TITL C-3578208-4450-379 -2.20919721508997e-06 125000 -835.878561518238 0 0 134 (C1) n - 1
REM
REM in /home/bkarasulu/work/CARBON/AIRSS/Generating-Clusters/EDIP-Nigel-Params/with-SteepDescent/Higher-Symm/SD-CG/HFTN-CG
REM
REM
REM
REM
REM
REM ./C.cell (12c818d87b63d06a65506943cc24bca4)
REM
REM compiler GCC version 9.2.1 20190827 (Red Hat 9.2.1-1)
REM options -cpp -mtune=generic -march=x86-64 -g -O0 -fpre-include=/usr/include/finclude/math-vector-fortran.h
REM seed 1363341470 -2016859494 685955664 -703422434 1950174157 -262770220 352541005 2019787133 -664631864 -585638979 1452910482 1347650934 172040955 679181760 562167103 2144676548 -1721231735 2030859167 723157619 1574118806 533523966 432482781 1204108512 -1394317465 -220935815 -1831967577 1954811622 -1618664999 -704544594 -233630942 -320280847 -1335129457 -1874234389
REM
CELL 1.54180   50.00000   50.00000   50.00000   90.00000   90.00000   90.00000
LATT -1
SFAC C  
C      1  0.5416920000000  0.4678110000000  0.4982850000000 1.0
C      1  0.4753510000000  0.4649580000000  0.4636740000000 1.0
C      1  0.4803990000000  0.4605370000000  0.5370390000000 1.0
C      1  0.4898510000000  0.4099400000000  0.5507900000000 1.0
C      1  0.5493890000000  0.4142230000000  0.4843490000000 1.0
C      1  0.4581730000000  0.4092820000000  0.4653840000000 1.0
C      1  0.4143420000000  0.5153830000000  0.4781460000000 1.0
C      1  0.5231150000000  0.5147980000000  0.5862500000000 1.0
C      1  0.5608170000000  0.5126960000000  0.4325950000000 1.0
C      1  0.5439870000000  0.5303760000000  0.4738660000000 1.0
C      1  0.4630010000000  0.5389770000000  0.4808730000000 1.0
C      1  0.4891940000000  0.5166820000000  0.5475100000000 1.0
C      1  0.5185400000000  0.4987510000000  0.4115110000000 1.0
C      1  0.4139370000000  0.4971050000000  0.5258390000000 1.0
C      1  0.5639330000000  0.4973350000000  0.5654780000000 1.0
C      1  0.5462360000000  0.5428100000000  0.5008490000000 1.0
C      1  0.4888030000000  0.5481710000000  0.4679910000000 1.0
C      1  0.4674880000000  0.5549740000000  0.5269870000000 1.0
C      1  0.4195140000000  0.5208060000000  0.5074420000000 1.0
C      1  0.5461540000000  0.5202940000000  0.5688340000000 1.0
C      1  0.5334770000000  0.5217110000000  0.4230610000000 1.0
C      1  0.5272570000000  0.4618710000000  0.4727970000000 1.0
C      1  0.4617500000000  0.4576760000000  0.4898540000000 1.0
C      1  0.5100890000000  0.4604470000000  0.5366840000000 1.0
C      1  0.4274930000000  0.4871650000000  0.4741460000000 1.0
C      1  0.5151570000000  0.4855510000000  0.5773070000000 1.0
C      1  0.5554770000000  0.4872510000000  0.4468770000000 1.0
C      1  0.5777510000000  0.5307890000000  0.4474190000000 1.0
C      1  0.4166010000000  0.5392370000000  0.4600370000000 1.0
C      1  0.5069130000000  0.5402460000000  0.5909510000000 1.0
C      1  0.4714940000000  0.5730100000000  0.5707150000000 1.0
C      1  0.5809650000000  0.5748950000000  0.4869240000000 1.0
C      1  0.4517760000000  0.5701640000000  0.4455080000000 1.0
C      1  0.4778000000000  0.5143040000000  0.4491290000000 1.0
C      1  0.4638160000000  0.5260020000000  0.5367120000000 1.0
C      1  0.5556980000000  0.5198450000000  0.5148600000000 1.0
C      1  0.5273120000000  0.4784430000000  0.4318170000000 1.0
C      1  0.4254650000000  0.4767830000000  0.5069720000000 1.0
C      1  0.5426260000000  0.4770160000000  0.5621260000000 1.0
C      1  0.4526940000000  0.5720160000000  0.5473540000000 1.0
C      1  0.5629690000000  0.5674000000000  0.5091190000000 1.0
C      1  0.4820290000000  0.5690770000000  0.4463060000000 1.0
C      1  0.4651560000000  0.4854580000000  0.5808870000000 1.0
C      1  0.5803730000000  0.4910590000000  0.4916580000000 1.0
C      1  0.4462860000000  0.4853310000000  0.4255230000000 1.0
C      1  0.5406660000000  0.4333270000000  0.5062350000000 1.0
C      1  0.4820410000000  0.4269710000000  0.4605850000000 1.0
C      1  0.4726490000000  0.4280180000000  0.5334040000000 1.0
C      1  0.5772350000000  0.4812060000000  0.5200170000000 1.0
C      1  0.4718650000000  0.4765650000000  0.4119790000000 1.0
C      1  0.4417160000000  0.4769870000000  0.5643550000000 1.0
C      1  0.4686660000000  0.4746990000000  0.5134220000000 1.0
C      1  0.5224260000000  0.4817060000000  0.5179640000000 1.0
C      1  0.5026510000000  0.4779030000000  0.4685690000000 1.0
C      1  0.6004150000000  0.5302060000000  0.4986880000000 1.0
C      1  0.4476330000000  0.5296060000000  0.4197940000000 1.0
C      1  0.4557240000000  0.5292430000000  0.5833980000000 1.0
C      1  0.4744950000000  0.4621490000000  0.5968980000000 1.0
C      1  0.5939710000000  0.4694370000000  0.4743490000000 1.0
C      1  0.4275230000000  0.4626460000000  0.4285930000000 1.0
C      1  0.5227070000000  0.4391990000000  0.5561110000000 1.0
C      1  0.5369880000000  0.4409340000000  0.4514500000000 1.0
C      1  0.4371890000000  0.4384610000000  0.4914400000000 1.0
C      1  0.4412840000000  0.5265050000000  0.5571040000000 1.0
C      1  0.5826560000000  0.5295550000000  0.5241850000000 1.0
C      1  0.4770890000000  0.5259120000000  0.4213210000000 1.0
C      1  0.4330000000000  0.5074780000000  0.4128350000000 1.0
C      1  0.4595020000000  0.5068840000000  0.5988950000000 1.0
C      1  0.6053950000000  0.5048830000000  0.4870660000000 1.0
C      1  0.4720620000000  0.5135990000000  0.4928280000000 1.0
C      1  0.5094250000000  0.5217940000000  0.5267950000000 1.0
C      1  0.5131970000000  0.5251490000000  0.4736000000000 1.0
C      1  0.5351770000000  0.5723780000000  0.5628760000000 1.0
C      1  0.5364810000000  0.5645430000000  0.4469240000000 1.0
C      1  0.4509900000000  0.5578840000000  0.5029990000000 1.0
C      1  0.5609030000000  0.5654790000000  0.5548260000000 1.0
C      1  0.5216710000000  0.5480770000000  0.4282110000000 1.0
C      1  0.4243770000000  0.5491030000000  0.5166090000000 1.0
C      1  0.4358330000000  0.4208840000000  0.4492900000000 1.0
C      1  0.4871410000000  0.4199600000000  0.5787070000000 1.0
C      1  0.5747900000000  0.4250980000000  0.4727490000000 1.0
C      1  0.4927010000000  0.5901980000000  0.5643150000000 1.0
C      1  0.5659950000000  0.5923190000000  0.4701240000000 1.0
C      1  0.4356840000000  0.5828770000000  0.4678350000000 1.0
C      1  0.4143930000000  0.4649850000000  0.4556090000000 1.0
C      1  0.5045690000000  0.4627730000000  0.5963660000000 1.0
C      1  0.5785290000000  0.4672930000000  0.4482450000000 1.0
C      1  0.4552270000000  0.5063910000000  0.5145820000000 1.0
C      1  0.5357060000000  0.5094310000000  0.5340630000000 1.0
C      1  0.5062100000000  0.5035550000000  0.4533790000000 1.0
C      1  0.4273500000000  0.4998150000000  0.5521800000000 1.0
C      1  0.5831900000000  0.4996060000000  0.5427380000000 1.0
C      1  0.4890940000000  0.5012420000000  0.4080210000000 1.0
C      1  0.5179680000000  0.4031470000000  0.5434440000000 1.0
C      1  0.5297490000000  0.4052260000000  0.4636410000000 1.0
C      1  0.4494440000000  0.4019280000000  0.4929170000000 1.0
C      1  0.5249000000000  0.5614700000000  0.5863740000000 1.0
C      1  0.5626020000000  0.5541880000000  0.4486500000000 1.0
C      1  0.4129520000000  0.5652850000000  0.4714230000000 1.0
C      1  0.4211650000000  0.4477780000000  0.5148710000000 1.0
C      1  0.5506300000000  0.4484360000000  0.5599860000000 1.0
C      1  0.5244680000000  0.4485660000000  0.4251710000000 1.0
C      1  0.4740140000000  0.4488000000000  0.4236730000000 1.0
C      1  0.4455840000000  0.4478880000000  0.5601070000000 1.0
C      1  0.5776000000000  0.4519790000000  0.5176710000000 1.0
C      1  0.4566630000000  0.4902070000000  0.4545330000000 1.0
C      1  0.4889120000000  0.4897350000000  0.5608280000000 1.0
C      1  0.5527590000000  0.4977260000000  0.4764560000000 1.0
C      1  0.4337130000000  0.4311100000000  0.5367370000000 1.0
C      1  0.5635660000000  0.4331100000000  0.5377290000000 1.0
C      1  0.4996350000000  0.4319910000000  0.4255870000000 1.0
C      1  0.5416870000000  0.4109230000000  0.5280150000000 1.0
C      1  0.5046300000000  0.4107600000000  0.4492930000000 1.0
C      1  0.4509290000000  0.4087810000000  0.5213590000000 1.0
C      1  0.4512550000000  0.5860630000000  0.4929890000000 1.0
C      1  0.5160050000000  0.5893080000000  0.5493020000000 1.0
C      1  0.5397930000000  0.5907020000000  0.4596530000000 1.0
C      1  0.5112320000000  0.4364640000000  0.5841720000000 1.0
C      1  0.5671100000000  0.4400750000000  0.4481070000000 1.0
C      1  0.4190830000000  0.4379230000000  0.4672450000000 1.0
C      1  0.5145330000000  0.5963190000000  0.5223280000000 1.0
C      1  0.5196140000000  0.6018270000000  0.4749550000000 1.0
C      1  0.4759910000000  0.5992160000000  0.4928590000000 1.0
C      1  0.4793590000000  0.5457780000000  0.5793170000000 1.0
C      1  0.5928600000000  0.5493160000000  0.4778750000000 1.0
C      1  0.4431920000000  0.5414110000000  0.4470520000000 1.0
C      1  0.5882630000000  0.4448040000000  0.4906560000000 1.0
C      1  0.4456030000000  0.4389670000000  0.4275660000000 1.0
C      1  0.4637470000000  0.4382930000000  0.5823910000000 1.0
C      1  0.4281740000000  0.5523980000000  0.5469420000000 1.0
C      1  0.5776560000000  0.5589010000000  0.5336840000000 1.0
C      1  0.4931210000000  0.5521950000000  0.4241260000000 1.0
C      1  0.5033120000000  0.6012940000000  0.4972730000000 1.0
C      1  0.5020650000000  0.5096150000000  0.4993030000000 1.0
END
