TITL C-3577083-591-649 -1.07463352804446e-06 125000 -768.703418003238 0 0 124 (C1) n - 1
REM
REM in /home/bkarasulu/work/CARBON/AIRSS/Generating-Clusters/EDIP-Nigel-Params/with-SteepDescent/Higher-Symm/SD-CG/HFTN-CG
REM
REM
REM
REM
REM
REM ./C.cell (12c818d87b63d06a65506943cc24bca4)
REM
REM compiler GCC version 9.2.1 20190827 (Red Hat 9.2.1-1)
REM options -cpp -mtune=generic -march=x86-64 -g -O0 -fpre-include=/usr/include/finclude/math-vector-fortran.h
REM seed 1999994372 305385817 -1820856683 504353513 -1586844545 888397014 2138548018 579853630 1388807498 -1470358777 -154405190 -590837724 -182534249 -45080851 1832272603 -2006042673 -1114980159 -989399414 1485727302 -1033688723 -1058038844 -40140837 584557578 129607708 -983756177 2054820050 1274776528 956348224 -303852037 -611644868 120850717 1804039960 744028770
REM
CELL 1.54180   50.00000   50.00000   50.00000   90.00000   90.00000   90.00000
LATT -1
SFAC C  
C      1  0.4418470000000  0.5695550000000  0.4799500000000 1.0
C      1  0.4804060000000  0.4418170000000  0.5792910000000 1.0
C      1  0.5755450000000  0.4827600000000  0.4408960000000 1.0
C      1  0.5568910000000  0.4289300000000  0.4783880000000 1.0
C      1  0.5583380000000  0.5679450000000  0.5364150000000 1.0
C      1  0.4396000000000  0.4220310000000  0.5176190000000 1.0
C      1  0.5231760000000  0.5602900000000  0.5699330000000 1.0
C      1  0.5261170000000  0.4410230000000  0.4254910000000 1.0
C      1  0.4812940000000  0.5556920000000  0.4207130000000 1.0
C      1  0.4265950000000  0.5274730000000  0.4443690000000 1.0
C      1  0.4252460000000  0.4749350000000  0.5571450000000 1.0
C      1  0.5802140000000  0.5152420000000  0.5604940000000 1.0
C      1  0.5794420000000  0.4422630000000  0.4728470000000 1.0
C      1  0.4433060000000  0.4785190000000  0.5774590000000 1.0
C      1  0.4841440000000  0.5687310000000  0.4436960000000 1.0
C      1  0.4196960000000  0.5548870000000  0.4824980000000 1.0
C      1  0.5804960000000  0.5565160000000  0.5252940000000 1.0
C      1  0.4262140000000  0.4448620000000  0.5245580000000 1.0
C      1  0.5573110000000  0.5278510000000  0.5707960000000 1.0
C      1  0.4396620000000  0.5164860000000  0.4205900000000 1.0
C      1  0.5564010000000  0.4757060000000  0.4230190000000 1.0
C      1  0.5230010000000  0.4194140000000  0.4425190000000 1.0
C      1  0.4762900000000  0.4291710000000  0.5561530000000 1.0
C      1  0.5119430000000  0.5832200000000  0.5594040000000 1.0
C      1  0.5371180000000  0.4534300000000  0.5729150000000 1.0
C      1  0.5690640000000  0.5319980000000  0.4456380000000 1.0
C      1  0.4527080000000  0.5777220000000  0.5385850000000 1.0
C      1  0.4638390000000  0.5517700000000  0.5728430000000 1.0
C      1  0.4620010000000  0.4461380000000  0.4232000000000 1.0
C      1  0.5355440000000  0.5626340000000  0.4298480000000 1.0
C      1  0.4208630000000  0.4625240000000  0.4437980000000 1.0
C      1  0.4236360000000  0.5379690000000  0.5502710000000 1.0
C      1  0.5659820000000  0.4745710000000  0.5375840000000 1.0
C      1  0.5504800000000  0.4263160000000  0.5345930000000 1.0
C      1  0.5602770000000  0.5765560000000  0.4695380000000 1.0
C      1  0.4543290000000  0.4310630000000  0.4718700000000 1.0
C      1  0.4425200000000  0.5323980000000  0.5722250000000 1.0
C      1  0.5392020000000  0.5837650000000  0.4481110000000 1.0
C      1  0.5662770000000  0.4481230000000  0.5236730000000 1.0
C      1  0.5599040000000  0.4679510000000  0.5651420000000 1.0
C      1  0.4442080000000  0.4681640000000  0.4278990000000 1.0
C      1  0.5478700000000  0.5377590000000  0.4265060000000 1.0
C      1  0.4685850000000  0.4289320000000  0.4454240000000 1.0
C      1  0.5307050000000  0.4313270000000  0.5553120000000 1.0
C      1  0.4632970000000  0.5789820000000  0.5647070000000 1.0
C      1  0.4300430000000  0.5613460000000  0.5356480000000 1.0
C      1  0.5668800000000  0.5478170000000  0.4696430000000 1.0
C      1  0.4237640000000  0.4423000000000  0.4667290000000 1.0
C      1  0.4869760000000  0.4252410000000  0.5300300000000 1.0
C      1  0.5317750000000  0.4913360000000  0.4267590000000 1.0
C      1  0.4111090000000  0.5289280000000  0.4861500000000 1.0
C      1  0.5152480000000  0.5893650000000  0.5327070000000 1.0
C      1  0.5153890000000  0.4101230000000  0.4675300000000 1.0
C      1  0.4939530000000  0.5704680000000  0.4702980000000 1.0
C      1  0.4684970000000  0.5087680000000  0.4217850000000 1.0
C      1  0.4695110000000  0.4890020000000  0.5786410000000 1.0
C      1  0.5337420000000  0.5188930000000  0.5870660000000 1.0
C      1  0.5900290000000  0.4662480000000  0.4816640000000 1.0
C      1  0.5785880000000  0.5305950000000  0.5136080000000 1.0
C      1  0.4270090000000  0.4697920000000  0.5078880000000 1.0
C      1  0.4282840000000  0.4918630000000  0.5326730000000 1.0
C      1  0.4843880000000  0.5308490000000  0.4093520000000 1.0
C      1  0.5306820000000  0.4250400000000  0.4892950000000 1.0
C      1  0.5898920000000  0.5115140000000  0.5343500000000 1.0
C      1  0.4252930000000  0.5093990000000  0.4683400000000 1.0
C      1  0.5773970000000  0.4899780000000  0.4681460000000 1.0
C      1  0.5078930000000  0.4650070000000  0.4251430000000 1.0
C      1  0.4887050000000  0.4667230000000  0.5881400000000 1.0
C      1  0.5101850000000  0.5337640000000  0.5752880000000 1.0
C      1  0.4677110000000  0.5729020000000  0.4907050000000 1.0
C      1  0.5356450000000  0.5730620000000  0.5174380000000 1.0
C      1  0.4654240000000  0.4150880000000  0.5116830000000 1.0
C      1  0.4681310000000  0.5880480000000  0.5158440000000 1.0
C      1  0.5180550000000  0.4702890000000  0.5877100000000 1.0
C      1  0.5946760000000  0.5135500000000  0.4683800000000 1.0
C      1  0.5339770000000  0.4106980000000  0.5159380000000 1.0
C      1  0.5419840000000  0.5883180000000  0.4919670000000 1.0
C      1  0.4691510000000  0.3992480000000  0.4885440000000 1.0
C      1  0.4834200000000  0.5376690000000  0.5891700000000 1.0
C      1  0.4832910000000  0.4605010000000  0.4083950000000 1.0
C      1  0.5095730000000  0.5248960000000  0.3998700000000 1.0
C      1  0.4087470000000  0.4837900000000  0.4624000000000 1.0
C      1  0.4103980000000  0.5157630000000  0.5349860000000 1.0
C      1  0.6018010000000  0.4866030000000  0.5276940000000 1.0
C      1  0.5974000000000  0.4650240000000  0.5094700000000 1.0
C      1  0.4677350000000  0.5136500000000  0.5948110000000 1.0
C      1  0.5182910000000  0.5900370000000  0.4707370000000 1.0
C      1  0.3998900000000  0.5226060000000  0.5104300000000 1.0
C      1  0.5881060000000  0.5357240000000  0.4855380000000 1.0
C      1  0.4072720000000  0.4641630000000  0.4857500000000 1.0
C      1  0.5292280000000  0.4937180000000  0.5975140000000 1.0
C      1  0.4690240000000  0.4852900000000  0.4037580000000 1.0
C      1  0.5333510000000  0.5169410000000  0.4114800000000 1.0
C      1  0.4871560000000  0.4036010000000  0.4670380000000 1.0
C      1  0.5104150000000  0.4076470000000  0.5328450000000 1.0
C      1  0.4927120000000  0.5995140000000  0.5206900000000 1.0
C      1  0.4638250000000  0.5155870000000  0.5035430000000 1.0
C      1  0.4954050000000  0.4522680000000  0.5181300000000 1.0
C      1  0.5275410000000  0.5024320000000  0.4565210000000 1.0
C      1  0.5372320000000  0.4760560000000  0.4978000000000 1.0
C      1  0.5494310000000  0.5210210000000  0.5088070000000 1.0
C      1  0.4522790000000  0.4744280000000  0.4920400000000 1.0
C      1  0.5021130000000  0.5380090000000  0.5250460000000 1.0
C      1  0.4961810000000  0.4579070000000  0.4743950000000 1.0
C      1  0.5029710000000  0.5426410000000  0.4805860000000 1.0
C      1  0.4785080000000  0.5023320000000  0.4532760000000 1.0
C      1  0.4768450000000  0.4971230000000  0.5494550000000 1.0
C      1  0.5198100000000  0.4939550000000  0.5395730000000 1.0
C      1  0.5172530000000  0.4530200000000  0.4948010000000 1.0
C      1  0.4556220000000  0.5043730000000  0.5299090000000 1.0
C      1  0.5027550000000  0.5197420000000  0.4611290000000 1.0
C      1  0.4821620000000  0.5386430000000  0.5033870000000 1.0
C      1  0.5265280000000  0.5440790000000  0.5089010000000 1.0
C      1  0.4704220000000  0.4519950000000  0.4887260000000 1.0
C      1  0.5435520000000  0.4915290000000  0.5228610000000 1.0
C      1  0.4550170000000  0.5012710000000  0.4783630000000 1.0
C      1  0.5482860000000  0.4972400000000  0.4790850000000 1.0
C      1  0.4985660000000  0.4769430000000  0.4525180000000 1.0
C      1  0.4963870000000  0.4763820000000  0.5363980000000 1.0
C      1  0.5034720000000  0.5191480000000  0.5478360000000 1.0
C      1  0.4187800000000  0.4486310000000  0.5510540000000 1.0
C      1  0.5519440000000  0.4486230000000  0.4190310000000 1.0
C      1  0.4281810000000  0.5427600000000  0.4196130000000 1.0
C      1  0.5495190000000  0.5540900000000  0.5606400000000 1.0
END
