TITL C-3578199-7832-410 -1.57592784225693e-06 125000 -1100.86271131287 0 0 175 (C1) n - 1
REM
REM in /home/bkarasulu/work/CARBON/AIRSS/Generating-Clusters/EDIP-Nigel-Params/with-SteepDescent/Higher-Symm/SD-CG/HFTN-CG
REM
REM
REM
REM
REM
REM ./C.cell (12c818d87b63d06a65506943cc24bca4)
REM
REM compiler GCC version 9.2.1 20190827 (Red Hat 9.2.1-1)
REM options -cpp -mtune=generic -march=x86-64 -g -O0 -fpre-include=/usr/include/finclude/math-vector-fortran.h
REM seed 2122919968 2083256209 521433887 1981872340 1262676782 -272212332 853258216 1183497228 1299565814 -1560868207 568534709 1278124441 -195893693 50563634 2067829450 -1149724482 69494158 -851869470 957269310 -1363573450 -845346543 1787865142 -1886686796 -679479985 1654000397 1675692832 2040250207 -745783294 -105093530 -1475929651 649921512 2081129491 -1571466411
REM
CELL 1.54180   50.00000   50.00000   50.00000   90.00000   90.00000   90.00000
LATT -1
SFAC C  
C      1  0.6049230000000  0.5341390000000  0.5331090000000 1.0
C      1  0.4079820000000  0.4678540000000  0.5201930000000 1.0
C      1  0.4844900000000  0.5469450000000  0.5465810000000 1.0
C      1  0.5166410000000  0.4730110000000  0.5403650000000 1.0
C      1  0.5267100000000  0.4761160000000  0.3910710000000 1.0
C      1  0.4700190000000  0.5204210000000  0.3972890000000 1.0
C      1  0.5059120000000  0.5657700000000  0.5107900000000 1.0
C      1  0.4987090000000  0.4364530000000  0.5142950000000 1.0
C      1  0.4797930000000  0.4472150000000  0.5852910000000 1.0
C      1  0.5175680000000  0.5505040000000  0.5876790000000 1.0
C      1  0.4235290000000  0.4224730000000  0.5187020000000 1.0
C      1  0.5829560000000  0.5663050000000  0.5044230000000 1.0
C      1  0.4835610000000  0.4944400000000  0.4010970000000 1.0
C      1  0.5139120000000  0.5011910000000  0.4006780000000 1.0
C      1  0.4953100000000  0.4549950000000  0.4906180000000 1.0
C      1  0.5082560000000  0.5409390000000  0.4939870000000 1.0
C      1  0.4333620000000  0.4289040000000  0.4503000000000 1.0
C      1  0.5685790000000  0.5683100000000  0.4464560000000 1.0
C      1  0.5098190000000  0.4379800000000  0.4714010000000 1.0
C      1  0.4920430000000  0.5468690000000  0.4728140000000 1.0
C      1  0.5058490000000  0.5532570000000  0.4487060000000 1.0
C      1  0.4998080000000  0.4394650000000  0.4443360000000 1.0
C      1  0.4458330000000  0.4961010000000  0.5035070000000 1.0
C      1  0.5619600000000  0.5103380000000  0.5030040000000 1.0
C      1  0.4366820000000  0.5439790000000  0.4272510000000 1.0
C      1  0.5523540000000  0.4441570000000  0.4175230000000 1.0
C      1  0.4838490000000  0.4041120000000  0.4423790000000 1.0
C      1  0.5173190000000  0.5944860000000  0.4536420000000 1.0
C      1  0.4672070000000  0.5005050000000  0.6007440000000 1.0
C      1  0.5339970000000  0.4971310000000  0.6083230000000 1.0
C      1  0.5643230000000  0.4950750000000  0.4178160000000 1.0
C      1  0.4284750000000  0.4964670000000  0.4138910000000 1.0
C      1  0.5444760000000  0.4646940000000  0.4890490000000 1.0
C      1  0.4500310000000  0.5415770000000  0.4848780000000 1.0
C      1  0.4794140000000  0.4572110000000  0.3936100000000 1.0
C      1  0.5196400000000  0.5322900000000  0.3938900000000 1.0
C      1  0.4638010000000  0.4570100000000  0.4856440000000 1.0
C      1  0.5363650000000  0.5439920000000  0.4832990000000 1.0
C      1  0.4935280000000  0.4533150000000  0.5382310000000 1.0
C      1  0.5123510000000  0.5544270000000  0.5373340000000 1.0
C      1  0.5252250000000  0.4853090000000  0.4485510000000 1.0
C      1  0.4758260000000  0.5109000000000  0.4465260000000 1.0
C      1  0.4526000000000  0.4616800000000  0.5797100000000 1.0
C      1  0.5432440000000  0.5367340000000  0.5782720000000 1.0
C      1  0.5068960000000  0.3945220000000  0.5323460000000 1.0
C      1  0.4955740000000  0.6059130000000  0.5408980000000 1.0
C      1  0.5723470000000  0.4148830000000  0.5095230000000 1.0
C      1  0.4258760000000  0.5905660000000  0.5136240000000 1.0
C      1  0.4162160000000  0.5618120000000  0.5185160000000 1.0
C      1  0.5828320000000  0.4416660000000  0.5169670000000 1.0
C      1  0.5655790000000  0.5056660000000  0.5517570000000 1.0
C      1  0.4344980000000  0.4959270000000  0.5530880000000 1.0
C      1  0.5760580000000  0.4389230000000  0.4627960000000 1.0
C      1  0.4223490000000  0.5706200000000  0.4666520000000 1.0
C      1  0.6141070000000  0.4825770000000  0.5232320000000 1.0
C      1  0.3917150000000  0.5177180000000  0.5172110000000 1.0
C      1  0.4707820000000  0.4701320000000  0.5337370000000 1.0
C      1  0.5289750000000  0.5306390000000  0.5318990000000 1.0
C      1  0.4059880000000  0.5059530000000  0.4732880000000 1.0
C      1  0.5974460000000  0.4988000000000  0.4753250000000 1.0
C      1  0.5200600000000  0.3908130000000  0.4802980000000 1.0
C      1  0.4804610000000  0.6146980000000  0.4905660000000 1.0
C      1  0.5816350000000  0.5320140000000  0.5511530000000 1.0
C      1  0.4171710000000  0.4712110000000  0.5477480000000 1.0
C      1  0.5555050000000  0.5135770000000  0.5964070000000 1.0
C      1  0.4409910000000  0.4869250000000  0.5974760000000 1.0
C      1  0.5304620000000  0.5761680000000  0.5512430000000 1.0
C      1  0.4662410000000  0.4171670000000  0.5457450000000 1.0
C      1  0.4350380000000  0.4983400000000  0.4717220000000 1.0
C      1  0.5665980000000  0.5034480000000  0.4740280000000 1.0
C      1  0.4317550000000  0.4484980000000  0.5597890000000 1.0
C      1  0.5641910000000  0.5569850000000  0.5554360000000 1.0
C      1  0.5683530000000  0.4923220000000  0.5241200000000 1.0
C      1  0.4418050000000  0.5146400000000  0.5283050000000 1.0
C      1  0.4342050000000  0.5581730000000  0.5633370000000 1.0
C      1  0.5579320000000  0.4446860000000  0.5574600000000 1.0
C      1  0.5441570000000  0.3991280000000  0.4634030000000 1.0
C      1  0.4581940000000  0.6056730000000  0.4722190000000 1.0
C      1  0.4979260000000  0.5342720000000  0.6027740000000 1.0
C      1  0.5000590000000  0.4628670000000  0.6014700000000 1.0
C      1  0.5126670000000  0.5773560000000  0.5754340000000 1.0
C      1  0.4895700000000  0.4318850000000  0.5599740000000 1.0
C      1  0.4050530000000  0.5049320000000  0.4268680000000 1.0
C      1  0.5818470000000  0.4802990000000  0.4354360000000 1.0
C      1  0.4917750000000  0.5392890000000  0.4046130000000 1.0
C      1  0.5072990000000  0.4570970000000  0.4025440000000 1.0
C      1  0.5647330000000  0.5263960000000  0.4166880000000 1.0
C      1  0.4361280000000  0.4662240000000  0.4180880000000 1.0
C      1  0.4592760000000  0.4468720000000  0.4126710000000 1.0
C      1  0.5417190000000  0.5455880000000  0.4108330000000 1.0
C      1  0.5491320000000  0.5359350000000  0.5105910000000 1.0
C      1  0.4512950000000  0.4662820000000  0.5121580000000 1.0
C      1  0.6001400000000  0.4770570000000  0.4972970000000 1.0
C      1  0.4040850000000  0.5279390000000  0.4925920000000 1.0
C      1  0.5085820000000  0.5096970000000  0.6168920000000 1.0
C      1  0.4886720000000  0.4870370000000  0.6161010000000 1.0
C      1  0.5727070000000  0.5391500000000  0.4430780000000 1.0
C      1  0.4271120000000  0.4573520000000  0.4453880000000 1.0
C      1  0.4993380000000  0.5286550000000  0.4330530000000 1.0
C      1  0.5029150000000  0.4668200000000  0.4316240000000 1.0
C      1  0.5253360000000  0.3915750000000  0.5094050000000 1.0
C      1  0.4746620000000  0.6032470000000  0.5186430000000 1.0
C      1  0.5516990000000  0.4709240000000  0.4045460000000 1.0
C      1  0.4465120000000  0.5199110000000  0.4141970000000 1.0
C      1  0.4930410000000  0.5800920000000  0.4407390000000 1.0
C      1  0.5114720000000  0.4158390000000  0.4277560000000 1.0
C      1  0.4685980000000  0.5300870000000  0.5958180000000 1.0
C      1  0.5257420000000  0.4760710000000  0.5887410000000 1.0
C      1  0.4401430000000  0.5681600000000  0.4432410000000 1.0
C      1  0.5720730000000  0.4333720000000  0.4346950000000 1.0
C      1  0.3964320000000  0.5300990000000  0.5423680000000 1.0
C      1  0.6058450000000  0.4664950000000  0.5453770000000 1.0
C      1  0.5611090000000  0.5603810000000  0.5235370000000 1.0
C      1  0.4438300000000  0.4354890000000  0.5356030000000 1.0
C      1  0.4879010000000  0.5903830000000  0.5651000000000 1.0
C      1  0.5155840000000  0.4121340000000  0.5550020000000 1.0
C      1  0.4777670000000  0.5743900000000  0.5091020000000 1.0
C      1  0.5284540000000  0.4295280000000  0.5162930000000 1.0
C      1  0.5155510000000  0.4919470000000  0.5642020000000 1.0
C      1  0.4849400000000  0.5023230000000  0.5659530000000 1.0
C      1  0.5590350000000  0.4036800000000  0.5327050000000 1.0
C      1  0.4468940000000  0.6008690000000  0.5324670000000 1.0
C      1  0.5087080000000  0.6060350000000  0.4820580000000 1.0
C      1  0.4917500000000  0.3975060000000  0.4725460000000 1.0
C      1  0.5457030000000  0.4158280000000  0.5552160000000 1.0
C      1  0.4511380000000  0.5842510000000  0.5583190000000 1.0
C      1  0.4095530000000  0.5550780000000  0.5466100000000 1.0
C      1  0.5875230000000  0.4445390000000  0.5462920000000 1.0
C      1  0.4773300000000  0.4102280000000  0.4966990000000 1.0
C      1  0.5240170000000  0.5895980000000  0.5028920000000 1.0
C      1  0.3915130000000  0.4897800000000  0.5150810000000 1.0
C      1  0.6179570000000  0.5098960000000  0.5281210000000 1.0
C      1  0.5503640000000  0.5257140000000  0.4586650000000 1.0
C      1  0.4499360000000  0.4731190000000  0.4592200000000 1.0
C      1  0.5404690000000  0.4116500000000  0.4354180000000 1.0
C      1  0.4658940000000  0.5811890000000  0.4554070000000 1.0
C      1  0.4281960000000  0.4223280000000  0.4803650000000 1.0
C      1  0.5701820000000  0.5770530000000  0.4774560000000 1.0
C      1  0.4700430000000  0.5631520000000  0.4804630000000 1.0
C      1  0.5366570000000  0.4359920000000  0.4871380000000 1.0
C      1  0.6038640000000  0.4792600000000  0.4534570000000 1.0
C      1  0.3976960000000  0.5194290000000  0.4494200000000 1.0
C      1  0.4741680000000  0.4837070000000  0.4311300000000 1.0
C      1  0.5278400000000  0.5122610000000  0.4354620000000 1.0
C      1  0.5238210000000  0.6001310000000  0.5329630000000 1.0
C      1  0.4783810000000  0.3991300000000  0.5253550000000 1.0
C      1  0.4482070000000  0.5229840000000  0.4579230000000 1.0
C      1  0.5538380000000  0.4770370000000  0.4623120000000 1.0
C      1  0.5608350000000  0.4190460000000  0.4802130000000 1.0
C      1  0.4326730000000  0.5926680000000  0.4845310000000 1.0
C      1  0.5133300000000  0.4916430000000  0.5179800000000 1.0
C      1  0.4777750000000  0.5198380000000  0.5408710000000 1.0
C      1  0.5396650000000  0.5744480000000  0.4786150000000 1.0
C      1  0.4555110000000  0.4289790000000  0.4887710000000 1.0
C      1  0.4601310000000  0.4257190000000  0.4355480000000 1.0
C      1  0.5395180000000  0.5678650000000  0.4355370000000 1.0
C      1  0.4634850000000  0.5602790000000  0.5305580000000 1.0
C      1  0.5408090000000  0.4544540000000  0.5340810000000 1.0
C      1  0.5534330000000  0.4646370000000  0.5807180000000 1.0
C      1  0.4423170000000  0.5355810000000  0.5817060000000 1.0
C      1  0.4618840000000  0.4822370000000  0.5583270000000 1.0
C      1  0.5365580000000  0.5157210000000  0.5559160000000 1.0
C      1  0.4416270000000  0.5440170000000  0.5160680000000 1.0
C      1  0.5611330000000  0.4648840000000  0.5149770000000 1.0
C      1  0.4016900000000  0.5498040000000  0.4719170000000 1.0
C      1  0.5996610000000  0.4549800000000  0.4721200000000 1.0
C      1  0.6071520000000  0.5566820000000  0.5159460000000 1.0
C      1  0.4073230000000  0.4421110000000  0.5061730000000 1.0
C      1  0.5165730000000  0.4773350000000  0.4936770000000 1.0
C      1  0.4716590000000  0.5105750000000  0.4942320000000 1.0
C      1  0.5113700000000  0.4945060000000  0.4723790000000 1.0
C      1  0.4841000000000  0.4992050000000  0.4710910000000 1.0
C      1  0.4283230000000  0.5089140000000  0.5798550000000 1.0
C      1  0.5686980000000  0.4910870000000  0.5788270000000 1.0
C      1  0.4926580000000  0.5134530000000  0.5153800000000 1.0
END
