TITL C-3578198-8939-392 -6.41731559262267e-07 125000 -796.474622250349 0 0 130 (C1) n - 1
REM
REM in /home/bkarasulu/work/CARBON/AIRSS/Generating-Clusters/EDIP-Nigel-Params/with-SteepDescent/Higher-Symm/SD-CG/HFTN-CG
REM
REM
REM
REM
REM
REM ./C.cell (12c818d87b63d06a65506943cc24bca4)
REM
REM compiler GCC version 9.2.1 20190827 (Red Hat 9.2.1-1)
REM options -cpp -mtune=generic -march=x86-64 -g -O0 -fpre-include=/usr/include/finclude/math-vector-fortran.h
REM seed -2091541521 737276901 -632928085 -2080740884 -901615246 674803969 1316248868 -795779707 37829025 -421677691 -637011336 -1603323521 1658513508 -1810404113 1590192705 1221850696 1018252920 466218066 268246124 -1995004908 -1300970689 548960343 2046135195 -22243455 -774967591 -1309472399 1183188761 -2114299554 -1229030760 -1142336054 -1482369241 -1372109195 -382211574
REM
CELL 1.54180   50.00000   50.00000   50.00000   90.00000   90.00000   90.00000
LATT -1
SFAC C  
C      1  0.5344010000000  0.4494520000000  0.4159080000000 1.0
C      1  0.5810260000000  0.5250690000000  0.4218480000000 1.0
C      1  0.5068160000000  0.5558370000000  0.4153650000000 1.0
C      1  0.4274640000000  0.5274180000000  0.4201780000000 1.0
C      1  0.4585040000000  0.4432960000000  0.4114610000000 1.0
C      1  0.5350820000000  0.5519680000000  0.4148090000000 1.0
C      1  0.5804460000000  0.4758380000000  0.4228320000000 1.0
C      1  0.5061650000000  0.4459140000000  0.4160720000000 1.0
C      1  0.4288030000000  0.4730730000000  0.4200710000000 1.0
C      1  0.4576440000000  0.5589160000000  0.4112650000000 1.0
C      1  0.5352170000000  0.5536040000000  0.4657050000000 1.0
C      1  0.4500360000000  0.5514510000000  0.4617680000000 1.0
C      1  0.4279000000000  0.4678700000000  0.4585220000000 1.0
C      1  0.5062740000000  0.4446890000000  0.4666970000000 1.0
C      1  0.5754260000000  0.4859190000000  0.4601430000000 1.0
C      1  0.5341710000000  0.4481990000000  0.4668830000000 1.0
C      1  0.4490320000000  0.4469860000000  0.4619870000000 1.0
C      1  0.4283620000000  0.5310530000000  0.4587970000000 1.0
C      1  0.5071450000000  0.5543670000000  0.4659770000000 1.0
C      1  0.5781930000000  0.5155930000000  0.4594450000000 1.0
C      1  0.4539630000000  0.4025990000000  0.5067950000000 1.0
C      1  0.5801150000000  0.4282860000000  0.5069040000000 1.0
C      1  0.6011540000000  0.5527130000000  0.5073840000000 1.0
C      1  0.4808940000000  0.6040320000000  0.4979660000000 1.0
C      1  0.3910160000000  0.5135990000000  0.5139920000000 1.0
C      1  0.4546950000000  0.5958720000000  0.5063280000000 1.0
C      1  0.5811780000000  0.5733430000000  0.5069600000000 1.0
C      1  0.5999930000000  0.4489220000000  0.5063990000000 1.0
C      1  0.4803910000000  0.3948440000000  0.4985730000000 1.0
C      1  0.3906770000000  0.4851070000000  0.5139100000000 1.0
C      1  0.5380610000000  0.4435320000000  0.5582410000000 1.0
C      1  0.5798570000000  0.5294060000000  0.5569860000000 1.0
C      1  0.4913270000000  0.5855430000000  0.5477550000000 1.0
C      1  0.4301080000000  0.5142120000000  0.5556930000000 1.0
C      1  0.4620550000000  0.4373080000000  0.5606240000000 1.0
C      1  0.5394700000000  0.5564020000000  0.5573430000000 1.0
C      1  0.5770210000000  0.4720510000000  0.5548840000000 1.0
C      1  0.4905940000000  0.4133710000000  0.5486310000000 1.0
C      1  0.4287040000000  0.4846520000000  0.5554910000000 1.0
C      1  0.4631450000000  0.5611860000000  0.5598610000000 1.0
C      1  0.5196810000000  0.4003230000000  0.4874310000000 1.0
C      1  0.6137750000000  0.4863190000000  0.4960690000000 1.0
C      1  0.5477790000000  0.5918660000000  0.4917230000000 1.0
C      1  0.4213590000000  0.5730470000000  0.4997870000000 1.0
C      1  0.4030000000000  0.4477010000000  0.5024050000000 1.0
C      1  0.5202910000000  0.5996090000000  0.4868340000000 1.0
C      1  0.6146360000000  0.5151610000000  0.4969900000000 1.0
C      1  0.5468070000000  0.4095520000000  0.4918560000000 1.0
C      1  0.4204260000000  0.4251700000000  0.5002980000000 1.0
C      1  0.4035670000000  0.5508870000000  0.5023780000000 1.0
C      1  0.5132460000000  0.4701440000000  0.5891980000000 1.0
C      1  0.5385140000000  0.5146460000000  0.5811140000000 1.0
C      1  0.4962610000000  0.5302970000000  0.6097470000000 1.0
C      1  0.4511300000000  0.5135400000000  0.6094480000000 1.0
C      1  0.4672380000000  0.4631430000000  0.6102020000000 1.0
C      1  0.5146900000000  0.5301820000000  0.5887840000000 1.0
C      1  0.5378380000000  0.4850670000000  0.5818550000000 1.0
C      1  0.4946270000000  0.4702170000000  0.6100210000000 1.0
C      1  0.4489070000000  0.4854470000000  0.6091630000000 1.0
C      1  0.4687100000000  0.5364440000000  0.6097970000000 1.0
C      1  0.4982200000000  0.4658320000000  0.3963200000000 1.0
C      1  0.5607700000000  0.4859410000000  0.4039130000000 1.0
C      1  0.5368920000000  0.5298570000000  0.3960790000000 1.0
C      1  0.4688410000000  0.5358300000000  0.3986960000000 1.0
C      1  0.4509020000000  0.4866290000000  0.4077380000000 1.0
C      1  0.4982770000000  0.5351360000000  0.3967200000000 1.0
C      1  0.5608200000000  0.5147080000000  0.4035820000000 1.0
C      1  0.5369170000000  0.4708210000000  0.3964630000000 1.0
C      1  0.4688950000000  0.4658920000000  0.3970890000000 1.0
C      1  0.4496680000000  0.5152760000000  0.4068200000000 1.0
C      1  0.5914880000000  0.4747360000000  0.5067660000000 1.0
C      1  0.5536890000000  0.5696710000000  0.5072220000000 1.0
C      1  0.4472500000000  0.5690480000000  0.5087230000000 1.0
C      1  0.4141660000000  0.4722690000000  0.5077300000000 1.0
C      1  0.5006530000000  0.4123490000000  0.5025280000000 1.0
C      1  0.5922970000000  0.5271530000000  0.5068200000000 1.0
C      1  0.5524860000000  0.4316520000000  0.5079320000000 1.0
C      1  0.4462230000000  0.4292680000000  0.5092120000000 1.0
C      1  0.4146200000000  0.5263290000000  0.5078750000000 1.0
C      1  0.5015120000000  0.5868720000000  0.5018270000000 1.0
C      1  0.4619040000000  0.4439140000000  0.4885970000000 1.0
C      1  0.5456120000000  0.4574300000000  0.4927060000000 1.0
C      1  0.5714390000000  0.5272690000000  0.4861290000000 1.0
C      1  0.4932860000000  0.5583720000000  0.4917240000000 1.0
C      1  0.4256680000000  0.5139070000000  0.4830620000000 1.0
C      1  0.4631550000000  0.5542770000000  0.4882820000000 1.0
C      1  0.5473740000000  0.5445430000000  0.4911520000000 1.0
C      1  0.5689590000000  0.4759530000000  0.4876280000000 1.0
C      1  0.4919880000000  0.4403850000000  0.4921450000000 1.0
C      1  0.4251280000000  0.4848020000000  0.4828860000000 1.0
C      1  0.4797530000000  0.5137350000000  0.5554760000000 1.0
C      1  0.4809590000000  0.4721050000000  0.5297310000000 1.0
C      1  0.5253210000000  0.4726840000000  0.5090600000000 1.0
C      1  0.5421420000000  0.5141520000000  0.5303520000000 1.0
C      1  0.5027990000000  0.5393300000000  0.5127880000000 1.0
C      1  0.4779730000000  0.4847480000000  0.5556250000000 1.0
C      1  0.4841790000000  0.5256870000000  0.5294520000000 1.0
C      1  0.5287530000000  0.5279830000000  0.5076730000000 1.0
C      1  0.5349430000000  0.4863580000000  0.5333850000000 1.0
C      1  0.5003680000000  0.4595010000000  0.5132500000000 1.0
C      1  0.5482120000000  0.5489780000000  0.4404430000000 1.0
C      1  0.4662680000000  0.5561400000000  0.4381980000000 1.0
C      1  0.4066500000000  0.4857370000000  0.4320720000000 1.0
C      1  0.4933340000000  0.4425870000000  0.4416540000000 1.0
C      1  0.5755980000000  0.4535300000000  0.4388970000000 1.0
C      1  0.5474670000000  0.4523270000000  0.4416020000000 1.0
C      1  0.4655790000000  0.4411720000000  0.4388150000000 1.0
C      1  0.4062770000000  0.5137940000000  0.4325240000000 1.0
C      1  0.4940030000000  0.5589110000000  0.4412410000000 1.0
C      1  0.5762740000000  0.5475570000000  0.4377010000000 1.0
C      1  0.4446570000000  0.5555360000000  0.5357990000000 1.0
C      1  0.4324030000000  0.4694890000000  0.5312670000000 1.0
C      1  0.5115890000000  0.4108700000000  0.5297780000000 1.0
C      1  0.5881030000000  0.4863590000000  0.5339490000000 1.0
C      1  0.5369470000000  0.5725820000000  0.5327780000000 1.0
C      1  0.4436150000000  0.4429630000000  0.5363210000000 1.0
C      1  0.4328920000000  0.5292830000000  0.5313340000000 1.0
C      1  0.5122960000000  0.5885350000000  0.5290680000000 1.0
C      1  0.5863910000000  0.5150440000000  0.5336300000000 1.0
C      1  0.5358700000000  0.4274920000000  0.5335450000000 1.0
C      1  0.5508610000000  0.5286600000000  0.5566010000000 1.0
C      1  0.4930410000000  0.5563100000000  0.5519930000000 1.0
C      1  0.4546830000000  0.5208510000000  0.5714540000000 1.0
C      1  0.4569070000000  0.4440860000000  0.5898510000000 1.0
C      1  0.5131990000000  0.4456490000000  0.5736940000000 1.0
C      1  0.5484080000000  0.4715420000000  0.5568250000000 1.0
C      1  0.4918650000000  0.4426070000000  0.5528490000000 1.0
C      1  0.4528580000000  0.4777370000000  0.5715460000000 1.0
C      1  0.4578620000000  0.5548160000000  0.5891290000000 1.0
C      1  0.5145910000000  0.5542020000000  0.5727310000000 1.0
END
