TITL C-3578209-2550-255 -1.54110900796601e-06 125000 -650.245646372327 0 0 103 (C1) n - 1
REM
REM in /home/bkarasulu/work/CARBON/AIRSS/Generating-Clusters/EDIP-Nigel-Params/with-SteepDescent/Higher-Symm/SD-CG/HFTN-CG
REM
REM
REM
REM
REM
REM ./C.cell (12c818d87b63d06a65506943cc24bca4)
REM
REM compiler GCC version 9.2.1 20190827 (Red Hat 9.2.1-1)
REM options -cpp -mtune=generic -march=x86-64 -g -O0 -fpre-include=/usr/include/finclude/math-vector-fortran.h
REM seed 1884956437 305973723 -361897478 -288984303 1351463716 251683 1494755470 -28749599 -96959155 -1008885752 -1887025760 -323398157 856924253 -876060961 831877548 45286887 -1379814966 -1483033923 188598372 270839742 1257968293 584049536 319325656 -1950414580 -1647427525 -1991139741 -1728408870 30116315 644069229 -390443639 -454098278 752304107 120977286
REM
CELL 1.54180   50.00000   50.00000   50.00000   90.00000   90.00000   90.00000
LATT -1
SFAC C  
C      1  0.5767570000000  0.5130100000000  0.4495750000000 1.0
C      1  0.5320740000000  0.4286840000000  0.4516520000000 1.0
C      1  0.4348670000000  0.4459610000000  0.4463100000000 1.0
C      1  0.4421410000000  0.5292460000000  0.4505510000000 1.0
C      1  0.5290570000000  0.5826670000000  0.4527710000000 1.0
C      1  0.4656040000000  0.5102770000000  0.4550770000000 1.0
C      1  0.4965720000000  0.5502510000000  0.4613820000000 1.0
C      1  0.5338590000000  0.5077050000000  0.4578200000000 1.0
C      1  0.5071620000000  0.4823560000000  0.4434760000000 1.0
C      1  0.4825280000000  0.4673840000000  0.4575210000000 1.0
C      1  0.5748880000000  0.4902710000000  0.4697000000000 1.0
C      1  0.5292650000000  0.4250830000000  0.4780500000000 1.0
C      1  0.4362020000000  0.4533650000000  0.4729030000000 1.0
C      1  0.4441560000000  0.5509960000000  0.4710750000000 1.0
C      1  0.5142300000000  0.5715940000000  0.4734320000000 1.0
C      1  0.5215310000000  0.5152460000000  0.5925010000000 1.0
C      1  0.5219540000000  0.4853130000000  0.5946810000000 1.0
C      1  0.4926570000000  0.4755100000000  0.5958000000000 1.0
C      1  0.4749320000000  0.5003890000000  0.5944860000000 1.0
C      1  0.4931270000000  0.5242860000000  0.5926510000000 1.0
C      1  0.5554240000000  0.4654410000000  0.5048480000000 1.0
C      1  0.4855920000000  0.4346180000000  0.4994420000000 1.0
C      1  0.4343740000000  0.4944830000000  0.5015510000000 1.0
C      1  0.4752640000000  0.5595430000000  0.5064740000000 1.0
C      1  0.5500970000000  0.5425890000000  0.4963570000000 1.0
C      1  0.5763940000000  0.5232400000000  0.5372580000000 1.0
C      1  0.5472510000000  0.4337940000000  0.5421440000000 1.0
C      1  0.4538320000000  0.4371910000000  0.5394010000000 1.0
C      1  0.4247610000000  0.5256330000000  0.5400180000000 1.0
C      1  0.5017990000000  0.5819200000000  0.5407750000000 1.0
C      1  0.4499600000000  0.5676060000000  0.5430840000000 1.0
C      1  0.5486100000000  0.5665110000000  0.5393740000000 1.0
C      1  0.5810770000000  0.4749050000000  0.5424400000000 1.0
C      1  0.5009830000000  0.4180190000000  0.5429390000000 1.0
C      1  0.4220040000000  0.4732240000000  0.5421940000000 1.0
C      1  0.5664110000000  0.4930550000000  0.4998590000000 1.0
C      1  0.5170240000000  0.4347860000000  0.5019520000000 1.0
C      1  0.4428520000000  0.4649410000000  0.4993430000000 1.0
C      1  0.4500730000000  0.5440150000000  0.5012240000000 1.0
C      1  0.5244260000000  0.5611680000000  0.4999960000000 1.0
C      1  0.4434920000000  0.5241380000000  0.5624890000000 1.0
C      1  0.5063020000000  0.5618400000000  0.5616090000000 1.0
C      1  0.5617520000000  0.5141520000000  0.5611400000000 1.0
C      1  0.5330510000000  0.4465120000000  0.5644340000000 1.0
C      1  0.4596800000000  0.4527170000000  0.5637380000000 1.0
C      1  0.5655440000000  0.5477310000000  0.5222630000000 1.0
C      1  0.5679980000000  0.4517370000000  0.5273450000000 1.0
C      1  0.4763770000000  0.4223440000000  0.5257480000000 1.0
C      1  0.4184380000000  0.4988510000000  0.5258490000000 1.0
C      1  0.4736550000000  0.5795750000000  0.5274180000000 1.0
C      1  0.4529300000000  0.4807250000000  0.4200070000000 1.0
C      1  0.4691350000000  0.5605480000000  0.4290290000000 1.0
C      1  0.5446330000000  0.5426870000000  0.4322130000000 1.0
C      1  0.5511310000000  0.4738440000000  0.4292640000000 1.0
C      1  0.4882860000000  0.4296920000000  0.4341580000000 1.0
C      1  0.4984900000000  0.5263530000000  0.4836700000000 1.0
C      1  0.5223180000000  0.5077690000000  0.4841340000000 1.0
C      1  0.5142770000000  0.4803670000000  0.4870360000000 1.0
C      1  0.4860850000000  0.4794540000000  0.4844450000000 1.0
C      1  0.4754960000000  0.5079280000000  0.4832770000000 1.0
C      1  0.4724770000000  0.5081210000000  0.5333130000000 1.0
C      1  0.5006590000000  0.5274390000000  0.5344790000000 1.0
C      1  0.5279880000000  0.5083270000000  0.5334250000000 1.0
C      1  0.5172830000000  0.4753000000000  0.5349140000000 1.0
C      1  0.4819870000000  0.4753640000000  0.5332450000000 1.0
C      1  0.4677170000000  0.5145550000000  0.4106520000000 1.0
C      1  0.4982930000000  0.5523900000000  0.4224470000000 1.0
C      1  0.5378440000000  0.5202660000000  0.4154310000000 1.0
C      1  0.5224730000000  0.4662730000000  0.4226510000000 1.0
C      1  0.4689070000000  0.4367710000000  0.4148330000000 1.0
C      1  0.4584440000000  0.5486290000000  0.5650020000000 1.0
C      1  0.5339250000000  0.5542400000000  0.5624740000000 1.0
C      1  0.5637880000000  0.4856470000000  0.5648610000000 1.0
C      1  0.5058210000000  0.4370190000000  0.5657490000000 1.0
C      1  0.4412870000000  0.4749660000000  0.5655810000000 1.0
C      1  0.5262070000000  0.4635590000000  0.5071640000000 1.0
C      1  0.4736110000000  0.4628990000000  0.5050730000000 1.0
C      1  0.4568450000000  0.5138540000000  0.5054430000000 1.0
C      1  0.4999620000000  0.5436180000000  0.5079980000000 1.0
C      1  0.5427470000000  0.5135160000000  0.5047630000000 1.0
C      1  0.5546770000000  0.5323680000000  0.4587290000000 1.0
C      1  0.5485740000000  0.4801280000000  0.4585200000000 1.0
C      1  0.4808760000000  0.4373430000000  0.4614540000000 1.0
C      1  0.4580860000000  0.4830200000000  0.4484920000000 1.0
C      1  0.4682580000000  0.5642210000000  0.4587330000000 1.0
C      1  0.5385600000000  0.5272740000000  0.5713670000000 1.0
C      1  0.5387400000000  0.4730620000000  0.5733610000000 1.0
C      1  0.4865890000000  0.4572880000000  0.5729930000000 1.0
C      1  0.4547100000000  0.4998010000000  0.5725730000000 1.0
C      1  0.4862010000000  0.5444860000000  0.5723030000000 1.0
C      1  0.4312830000000  0.5511770000000  0.5242980000000 1.0
C      1  0.5273770000000  0.5809730000000  0.5229880000000 1.0
C      1  0.5860690000000  0.4984100000000  0.5226520000000 1.0
C      1  0.5258820000000  0.4189360000000  0.5260000000000 1.0
C      1  0.4316390000000  0.4507290000000  0.5238230000000 1.0
C      1  0.5608080000000  0.5025400000000  0.4225950000000 1.0
C      1  0.5172120000000  0.4368740000000  0.4291220000000 1.0
C      1  0.4457460000000  0.4517120000000  0.4202130000000 1.0
C      1  0.4512730000000  0.5373150000000  0.4228090000000 1.0
C      1  0.5255410000000  0.5642790000000  0.4314380000000 1.0
C      1  0.4995130000000  0.5237420000000  0.4127320000000 1.0
C      1  0.4949090000000  0.5117730000000  0.4402490000000 1.0
C      1  0.4999990000000  0.4972260000000  0.5584480000000 1.0
END
