TITL C-3578199-7832-203 -3.01312219811675e-06 125000 -856.333612610948 0 0 135 (C1) n - 1
REM
REM in /home/bkarasulu/work/CARBON/AIRSS/Generating-Clusters/EDIP-Nigel-Params/with-SteepDescent/Higher-Symm/SD-CG/HFTN-CG
REM
REM
REM
REM
REM
REM ./C.cell (12c818d87b63d06a65506943cc24bca4)
REM
REM compiler GCC version 9.2.1 20190827 (Red Hat 9.2.1-1)
REM options -cpp -mtune=generic -march=x86-64 -g -O0 -fpre-include=/usr/include/finclude/math-vector-fortran.h
REM seed 242145584 641235291 -640064872 1391804524 945225385 -889176099 -1771064470 -1186932816 -1030469608 -1733700591 1660841497 -41545423 -392485937 -1361777632 1078820726 1112201953 311733430 1039506542 364451431 2096158638 980162242 1092281654 1832045116 918334165 1581554967 1849707670 93749794 1232540089 -945012702 442927105 105421706 1309006991 1230544348
REM
CELL 1.54180   50.00000   50.00000   50.00000   90.00000   90.00000   90.00000
LATT -1
SFAC C  
C      1  0.5247960000000  0.4760190000000  0.4213340000000 1.0
C      1  0.4731630000000  0.4741680000000  0.4189340000000 1.0
C      1  0.5311310000000  0.5687340000000  0.4338410000000 1.0
C      1  0.4701140000000  0.5638740000000  0.4371150000000 1.0
C      1  0.4859020000000  0.5493960000000  0.4173570000000 1.0
C      1  0.5146280000000  0.5511720000000  0.4157710000000 1.0
C      1  0.5579120000000  0.5735470000000  0.5263970000000 1.0
C      1  0.4415250000000  0.5683050000000  0.5205550000000 1.0
C      1  0.4613130000000  0.5873400000000  0.4812690000000 1.0
C      1  0.5395350000000  0.5908760000000  0.4826390000000 1.0
C      1  0.5538550000000  0.5017140000000  0.5797120000000 1.0
C      1  0.4462820000000  0.5075870000000  0.5827480000000 1.0
C      1  0.5681770000000  0.5514150000000  0.4630360000000 1.0
C      1  0.4299270000000  0.5494030000000  0.4633610000000 1.0
C      1  0.4679670000000  0.4091990000000  0.4641990000000 1.0
C      1  0.5285310000000  0.4121650000000  0.4616180000000 1.0
C      1  0.3973950000000  0.5311390000000  0.4958400000000 1.0
C      1  0.5974320000000  0.5299870000000  0.4974730000000 1.0
C      1  0.5542350000000  0.4796600000000  0.4211350000000 1.0
C      1  0.4433750000000  0.4755160000000  0.4194410000000 1.0
C      1  0.5876430000000  0.5297420000000  0.4699560000000 1.0
C      1  0.4073270000000  0.5300940000000  0.4678900000000 1.0
C      1  0.5180290000000  0.5529740000000  0.4768160000000 1.0
C      1  0.4901760000000  0.5472230000000  0.4729080000000 1.0
C      1  0.4724770000000  0.4750000000000  0.5422810000000 1.0
C      1  0.5330190000000  0.4606170000000  0.5250140000000 1.0
C      1  0.4427600000000  0.4737980000000  0.5440890000000 1.0
C      1  0.5607540000000  0.4658810000000  0.5421300000000 1.0
C      1  0.3970150000000  0.5578590000000  0.5044460000000 1.0
C      1  0.5998700000000  0.5554880000000  0.5086220000000 1.0
C      1  0.5131530000000  0.4986710000000  0.5533240000000 1.0
C      1  0.4833060000000  0.4979460000000  0.5573230000000 1.0
C      1  0.4194480000000  0.5747160000000  0.5035100000000 1.0
C      1  0.5788990000000  0.5738560000000  0.5064370000000 1.0
C      1  0.5805210000000  0.5388430000000  0.5521780000000 1.0
C      1  0.4139240000000  0.5439590000000  0.5522380000000 1.0
C      1  0.4411790000000  0.4282100000000  0.5381520000000 1.0
C      1  0.5597260000000  0.4213910000000  0.5386860000000 1.0
C      1  0.4810700000000  0.5819860000000  0.4582790000000 1.0
C      1  0.5191040000000  0.5781620000000  0.4615070000000 1.0
C      1  0.5319750000000  0.5488920000000  0.5625510000000 1.0
C      1  0.4639570000000  0.5478560000000  0.5596820000000 1.0
C      1  0.4710470000000  0.5244880000000  0.5151780000000 1.0
C      1  0.5305780000000  0.5288010000000  0.5179000000000 1.0
C      1  0.4485000000000  0.4465270000000  0.4526400000000 1.0
C      1  0.5500640000000  0.4490960000000  0.4525600000000 1.0
C      1  0.4384450000000  0.5560370000000  0.5461290000000 1.0
C      1  0.5588330000000  0.5565420000000  0.5502200000000 1.0
C      1  0.4833770000000  0.5889320000000  0.5330970000000 1.0
C      1  0.5139370000000  0.5915070000000  0.5353150000000 1.0
C      1  0.4856730000000  0.4672900000000  0.5964770000000 1.0
C      1  0.5152420000000  0.4663970000000  0.5943920000000 1.0
C      1  0.5140000000000  0.4271050000000  0.5637550000000 1.0
C      1  0.4853660000000  0.4284730000000  0.5640140000000 1.0
C      1  0.5208280000000  0.4500450000000  0.4954720000000 1.0
C      1  0.4890200000000  0.4524750000000  0.4953390000000 1.0
C      1  0.5322190000000  0.5801000000000  0.5133610000000 1.0
C      1  0.4678700000000  0.5753670000000  0.5095190000000 1.0
C      1  0.4880340000000  0.5197490000000  0.5990770000000 1.0
C      1  0.5166730000000  0.5158770000000  0.5989390000000 1.0
C      1  0.5830600000000  0.5127530000000  0.5424760000000 1.0
C      1  0.4157670000000  0.5179470000000  0.5420700000000 1.0
C      1  0.5160770000000  0.4842390000000  0.5252840000000 1.0
C      1  0.4873700000000  0.4764770000000  0.5164670000000 1.0
C      1  0.5372100000000  0.5349800000000  0.5887710000000 1.0
C      1  0.4561680000000  0.5361880000000  0.5861080000000 1.0
C      1  0.5806560000000  0.4601700000000  0.5213680000000 1.0
C      1  0.4338040000000  0.4681160000000  0.5157210000000 1.0
C      1  0.5255970000000  0.4927490000000  0.5817090000000 1.0
C      1  0.4748770000000  0.4960170000000  0.5864830000000 1.0
C      1  0.5475830000000  0.5133140000000  0.4632910000000 1.0
C      1  0.4445720000000  0.5077000000000  0.4676850000000 1.0
C      1  0.5288710000000  0.5270670000000  0.4059310000000 1.0
C      1  0.4715410000000  0.5252530000000  0.4073700000000 1.0
C      1  0.5849370000000  0.5022410000000  0.4570710000000 1.0
C      1  0.4114360000000  0.5010020000000  0.4566910000000 1.0
C      1  0.4818970000000  0.4798790000000  0.4477560000000 1.0
C      1  0.5136490000000  0.4817930000000  0.4495430000000 1.0
C      1  0.4832020000000  0.4214480000000  0.4421650000000 1.0
C      1  0.5106930000000  0.4298700000000  0.4459180000000 1.0
C      1  0.4681940000000  0.4638450000000  0.4696190000000 1.0
C      1  0.5325590000000  0.4674020000000  0.4713200000000 1.0
C      1  0.5292970000000  0.4190040000000  0.5397190000000 1.0
C      1  0.4705150000000  0.4221700000000  0.5397320000000 1.0
C      1  0.4451900000000  0.5258400000000  0.4211540000000 1.0
C      1  0.5562580000000  0.5292470000000  0.4183440000000 1.0
C      1  0.4133840000000  0.4462350000000  0.4794390000000 1.0
C      1  0.5841190000000  0.4446050000000  0.4800280000000 1.0
C      1  0.4851840000000  0.4138230000000  0.5159280000000 1.0
C      1  0.5143560000000  0.4115520000000  0.5157000000000 1.0
C      1  0.4448550000000  0.5493220000000  0.4388460000000 1.0
C      1  0.5567690000000  0.5536090000000  0.4359270000000 1.0
C      1  0.5549570000000  0.4396410000000  0.5843660000000 1.0
C      1  0.4444870000000  0.4442140000000  0.5839930000000 1.0
C      1  0.5271470000000  0.5030510000000  0.5054880000000 1.0
C      1  0.4753540000000  0.4988550000000  0.5012620000000 1.0
C      1  0.5200010000000  0.5534610000000  0.5058930000000 1.0
C      1  0.4815410000000  0.5492880000000  0.5023390000000 1.0
C      1  0.4125730000000  0.4849440000000  0.5051010000000 1.0
C      1  0.5843220000000  0.4822840000000  0.5034990000000 1.0
C      1  0.4319090000000  0.4535440000000  0.4307840000000 1.0
C      1  0.5672900000000  0.4580780000000  0.4317150000000 1.0
C      1  0.5885690000000  0.5084490000000  0.5145210000000 1.0
C      1  0.4110710000000  0.5124050000000  0.5136460000000 1.0
C      1  0.5660190000000  0.4933380000000  0.5550960000000 1.0
C      1  0.4335600000000  0.4999710000000  0.5566210000000 1.0
C      1  0.5855390000000  0.4754450000000  0.4758050000000 1.0
C      1  0.4102980000000  0.4764560000000  0.4776130000000 1.0
C      1  0.4334820000000  0.4487290000000  0.5587530000000 1.0
C      1  0.5677150000000  0.4417650000000  0.5597910000000 1.0
C      1  0.4528310000000  0.4852770000000  0.4867370000000 1.0
C      1  0.5454080000000  0.4921310000000  0.4846070000000 1.0
C      1  0.5740490000000  0.4322560000000  0.5135600000000 1.0
C      1  0.4310240000000  0.4386970000000  0.5122970000000 1.0
C      1  0.4323980000000  0.5005190000000  0.4310170000000 1.0
C      1  0.5631020000000  0.5046580000000  0.4340750000000 1.0
C      1  0.5664440000000  0.5765690000000  0.4796790000000 1.0
C      1  0.4329990000000  0.5756140000000  0.4773920000000 1.0
C      1  0.4345640000000  0.4281470000000  0.4696590000000 1.0
C      1  0.5633160000000  0.4280950000000  0.4671770000000 1.0
C      1  0.4848960000000  0.4466100000000  0.4141010000000 1.0
C      1  0.5135860000000  0.4464390000000  0.4205700000000 1.0
C      1  0.5134780000000  0.5742070000000  0.5619800000000 1.0
C      1  0.4822230000000  0.5729480000000  0.5598730000000 1.0
C      1  0.4848130000000  0.4983590000000  0.4030290000000 1.0
C      1  0.5142080000000  0.4991630000000  0.4038960000000 1.0
C      1  0.5289910000000  0.4129950000000  0.4905350000000 1.0
C      1  0.4717990000000  0.4182650000000  0.4911090000000 1.0
C      1  0.5182340000000  0.5283360000000  0.5443560000000 1.0
C      1  0.4789200000000  0.5257000000000  0.5436560000000 1.0
C      1  0.4722540000000  0.4425980000000  0.5864190000000 1.0
C      1  0.5272500000000  0.4405240000000  0.5859150000000 1.0
C      1  0.5180060000000  0.5102690000000  0.4545850000000 1.0
C      1  0.4705810000000  0.5071190000000  0.4523050000000 1.0
C      1  0.4924020000000  0.5190800000000  0.4657490000000 1.0
END
