TITL C-3578199-7832-260 -3.33160564069632e-06 125000 -367.519594097174 0 0 60 (C1) n - 1
REM
REM in /home/bkarasulu/work/CARBON/AIRSS/Generating-Clusters/EDIP-Nigel-Params/with-SteepDescent/Higher-Symm/SD-CG/HFTN-CG
REM
REM
REM
REM
REM
REM ./C.cell (12c818d87b63d06a65506943cc24bca4)
REM
REM compiler GCC version 9.2.1 20190827 (Red Hat 9.2.1-1)
REM options -cpp -mtune=generic -march=x86-64 -g -O0 -fpre-include=/usr/include/finclude/math-vector-fortran.h
REM seed 1563613097 -1910349599 -1165735434 1566802316 1058949274 -586777906 -554627685 525054627 1688083748 -1740041671 -1309679534 695029792 -772652892 16730068 1046273607 457948326 -665875550 -1980229078 -1384448300 -1825630712 630039372 1911226509 -152881791 498634298 1358579897 -298523071 -312191269 -960076208 -1743207083 -1856154299 559454802 -1807651858 943311368
REM
CELL 1.54180   50.00000   50.00000   50.00000   90.00000   90.00000   90.00000
LATT -1
SFAC C  
C      1  0.5456620000000  0.5178970000000  0.4557080000000 1.0
C      1  0.5385680000000  0.4417540000000  0.4870020000000 1.0
C      1  0.4686830000000  0.5027360000000  0.5243250000000 1.0
C      1  0.5247110000000  0.5583580000000  0.5163000000000 1.0
C      1  0.5449360000000  0.5440110000000  0.4991060000000 1.0
C      1  0.4678730000000  0.4533010000000  0.4526140000000 1.0
C      1  0.4765930000000  0.5516350000000  0.5294770000000 1.0
C      1  0.4819060000000  0.4799480000000  0.4776050000000 1.0
C      1  0.4828000000000  0.5334170000000  0.5520430000000 1.0
C      1  0.4506660000000  0.5026790000000  0.4386900000000 1.0
C      1  0.4621190000000  0.5005140000000  0.5535280000000 1.0
C      1  0.5083670000000  0.4696060000000  0.4632330000000 1.0
C      1  0.5004130000000  0.5200570000000  0.4997500000000 1.0
C      1  0.5174530000000  0.4370670000000  0.5294460000000 1.0
C      1  0.4979650000000  0.4745590000000  0.5553010000000 1.0
C      1  0.4636930000000  0.4348360000000  0.4957130000000 1.0
C      1  0.4697600000000  0.4739910000000  0.5619770000000 1.0
C      1  0.5723060000000  0.5115270000000  0.4519980000000 1.0
C      1  0.5473900000000  0.5050720000000  0.5606910000000 1.0
C      1  0.4472810000000  0.4689780000000  0.5308880000000 1.0
C      1  0.5322980000000  0.5507610000000  0.5454970000000 1.0
C      1  0.5164320000000  0.4748390000000  0.5110560000000 1.0
C      1  0.4792630000000  0.5146050000000  0.4430240000000 1.0
C      1  0.5483890000000  0.5178740000000  0.5160970000000 1.0
C      1  0.4849460000000  0.4894820000000  0.4273010000000 1.0
C      1  0.4588810000000  0.5527910000000  0.4760560000000 1.0
C      1  0.4283380000000  0.4805090000000  0.5100010000000 1.0
C      1  0.4826300000000  0.5101070000000  0.4756820000000 1.0
C      1  0.5530800000000  0.5286040000000  0.5434900000000 1.0
C      1  0.4491460000000  0.4513220000000  0.4740970000000 1.0
C      1  0.4696590000000  0.4522040000000  0.5188770000000 1.0
C      1  0.4971360000000  0.5487050000000  0.5072470000000 1.0
C      1  0.4882100000000  0.5599260000000  0.4803700000000 1.0
C      1  0.5212910000000  0.5136130000000  0.5728650000000 1.0
C      1  0.4491810000000  0.5489250000000  0.5191540000000 1.0
C      1  0.4479730000000  0.5202930000000  0.5102820000000 1.0
C      1  0.4847310000000  0.4761480000000  0.5078510000000 1.0
C      1  0.5104950000000  0.5414240000000  0.5651600000000 1.0
C      1  0.5886510000000  0.4991200000000  0.4914730000000 1.0
C      1  0.5296630000000  0.4683630000000  0.4844080000000 1.0
C      1  0.4944220000000  0.4424090000000  0.4582170000000 1.0
C      1  0.5029250000000  0.5329620000000  0.4372030000000 1.0
C      1  0.5367030000000  0.5413270000000  0.4705060000000 1.0
C      1  0.5693320000000  0.4968390000000  0.5109320000000 1.0
C      1  0.5190430000000  0.5046060000000  0.5179910000000 1.0
C      1  0.5172470000000  0.4298520000000  0.5017480000000 1.0
C      1  0.5253280000000  0.5123940000000  0.4353130000000 1.0
C      1  0.4375130000000  0.5030350000000  0.4647730000000 1.0
C      1  0.4917110000000  0.4273160000000  0.4843150000000 1.0
C      1  0.5054780000000  0.5021620000000  0.5473700000000 1.0
C      1  0.4441230000000  0.5655410000000  0.4966700000000 1.0
C      1  0.5675460000000  0.4741170000000  0.5271260000000 1.0
C      1  0.4550790000000  0.5223470000000  0.4810050000000 1.0
C      1  0.5456850000000  0.4791900000000  0.5440850000000 1.0
C      1  0.5120960000000  0.4851390000000  0.4364340000000 1.0
C      1  0.4382350000000  0.4779200000000  0.4824970000000 1.0
C      1  0.5939590000000  0.5040900000000  0.4657800000000 1.0
C      1  0.5096870000000  0.5503770000000  0.4604740000000 1.0
C      1  0.5225590000000  0.4591330000000  0.5478430000000 1.0
C      1  0.4217940000000  0.5076840000000  0.5143350000000 1.0
END
