TITL C-3578201-9217-693 2.48792101882984e-06 125000 -484.138431890477 0 0 78 (C1) n - 1
REM
REM in /home/bkarasulu/work/CARBON/AIRSS/Generating-Clusters/EDIP-Nigel-Params/with-SteepDescent/Higher-Symm/SD-CG/HFTN-CG
REM
REM
REM
REM
REM
REM ./C.cell (12c818d87b63d06a65506943cc24bca4)
REM
REM compiler GCC version 9.2.1 20190827 (Red Hat 9.2.1-1)
REM options -cpp -mtune=generic -march=x86-64 -g -O0 -fpre-include=/usr/include/finclude/math-vector-fortran.h
REM seed 2109717986 673303404 1329472327 1106073217 -1241841331 333462361 -1311542961 -2044736546 -1928457902 -1298585323 -2061834480 -1969918637 267904452 1193757602 337308046 1568315735 1624876690 -197822350 852411589 -434542232 192372592 -1521786863 -399788191 -586425443 647871441 1407653592 892767072 -2126531389 -1265803368 -233736437 -1871902195 813838243 1129381392
REM
CELL 1.54180   50.00000   50.00000   50.00000   90.00000   90.00000   90.00000
LATT -1
SFAC C  
C      1  0.5018060000000  0.5145130000000  0.4765030000000 1.0
C      1  0.5018960000000  0.4850280000000  0.4765810000000 1.0
C      1  0.5049670000000  0.4892940000000  0.5295900000000 1.0
C      1  0.5046220000000  0.5181300000000  0.5289420000000 1.0
C      1  0.4839140000000  0.4427820000000  0.4901660000000 1.0
C      1  0.5158760000000  0.5616500000000  0.4967480000000 1.0
C      1  0.4863110000000  0.5588770000000  0.4984030000000 1.0
C      1  0.5131280000000  0.4404610000000  0.4958670000000 1.0
C      1  0.4752190000000  0.5197560000000  0.5182330000000 1.0
C      1  0.5302420000000  0.4789940000000  0.5173170000000 1.0
C      1  0.4779880000000  0.4724270000000  0.4888950000000 1.0
C      1  0.5284390000000  0.5261670000000  0.4830420000000 1.0
C      1  0.5071730000000  0.5550570000000  0.4292460000000 1.0
C      1  0.4892460000000  0.4429370000000  0.4243730000000 1.0
C      1  0.5045160000000  0.4459800000000  0.5645960000000 1.0
C      1  0.4918340000000  0.5539350000000  0.5661680000000 1.0
C      1  0.4516600000000  0.4759700000000  0.4719500000000 1.0
C      1  0.5675210000000  0.5196260000000  0.4650420000000 1.0
C      1  0.4266860000000  0.5212040000000  0.5386240000000 1.0
C      1  0.5682520000000  0.4815690000000  0.5368320000000 1.0
C      1  0.5458610000000  0.5087600000000  0.5720740000000 1.0
C      1  0.4489660000000  0.4927870000000  0.5751550000000 1.0
C      1  0.5443160000000  0.4907680000000  0.4302690000000 1.0
C      1  0.4570890000000  0.5079580000000  0.4306670000000 1.0
C      1  0.4590430000000  0.5410180000000  0.5354350000000 1.0
C      1  0.5404870000000  0.4552730000000  0.5353350000000 1.0
C      1  0.4527540000000  0.4514110000000  0.4537690000000 1.0
C      1  0.5445570000000  0.5490630000000  0.4563490000000 1.0
C      1  0.5352050000000  0.4663030000000  0.4197420000000 1.0
C      1  0.4607810000000  0.5336280000000  0.4190510000000 1.0
C      1  0.5373620000000  0.5331290000000  0.5836350000000 1.0
C      1  0.4596210000000  0.4676580000000  0.5827680000000 1.0
C      1  0.4928740000000  0.5128590000000  0.5916240000000 1.0
C      1  0.5050290000000  0.4857100000000  0.5919520000000 1.0
C      1  0.4926660000000  0.4861470000000  0.4045170000000 1.0
C      1  0.5047740000000  0.5128330000000  0.4080580000000 1.0
C      1  0.4887330000000  0.5357480000000  0.4166480000000 1.0
C      1  0.5081860000000  0.4625930000000  0.4130250000000 1.0
C      1  0.4876440000000  0.4637760000000  0.5817980000000 1.0
C      1  0.5093520000000  0.5358860000000  0.5828560000000 1.0
C      1  0.5335120000000  0.5426190000000  0.4301730000000 1.0
C      1  0.4629040000000  0.4561320000000  0.4262730000000 1.0
C      1  0.5308240000000  0.4582770000000  0.5633230000000 1.0
C      1  0.4664720000000  0.5399880000000  0.5639140000000 1.0
C      1  0.4175650000000  0.5213140000000  0.5096410000000 1.0
C      1  0.5749350000000  0.4805560000000  0.5089310000000 1.0
C      1  0.4297750000000  0.4746940000000  0.4927730000000 1.0
C      1  0.5777400000000  0.5221470000000  0.4929920000000 1.0
C      1  0.4763530000000  0.4824030000000  0.5181760000000 1.0
C      1  0.5281530000000  0.5319840000000  0.5148650000000 1.0
C      1  0.4782590000000  0.5302630000000  0.4899580000000 1.0
C      1  0.5245860000000  0.4680640000000  0.4889710000000 1.0
C      1  0.4486370000000  0.4724220000000  0.5324230000000 1.0
C      1  0.5558860000000  0.5338950000000  0.5297800000000 1.0
C      1  0.4509150000000  0.5285880000000  0.4756590000000 1.0
C      1  0.5517170000000  0.4670540000000  0.4736000000000 1.0
C      1  0.5762210000000  0.5425670000000  0.5117860000000 1.0
C      1  0.4317270000000  0.4567820000000  0.5141610000000 1.0
C      1  0.5723690000000  0.4590920000000  0.4915510000000 1.0
C      1  0.4277420000000  0.5384340000000  0.4896640000000 1.0
C      1  0.4336880000000  0.4933270000000  0.5499940000000 1.0
C      1  0.5619550000000  0.5089600000000  0.5475720000000 1.0
C      1  0.4482270000000  0.5040750000000  0.4582290000000 1.0
C      1  0.5572260000000  0.4920770000000  0.4566170000000 1.0
C      1  0.4993720000000  0.4285540000000  0.5428270000000 1.0
C      1  0.4954600000000  0.5727700000000  0.5451640000000 1.0
C      1  0.5031110000000  0.5734650000000  0.4503020000000 1.0
C      1  0.4935590000000  0.4243120000000  0.4452310000000 1.0
C      1  0.4650510000000  0.4841720000000  0.4150880000000 1.0
C      1  0.5313940000000  0.5149890000000  0.4197570000000 1.0
C      1  0.4687030000000  0.5139650000000  0.5759220000000 1.0
C      1  0.5304610000000  0.4842570000000  0.5774580000000 1.0
C      1  0.5241350000000  0.5673970000000  0.4684870000000 1.0
C      1  0.4735450000000  0.4318840000000  0.4643890000000 1.0
C      1  0.5204380000000  0.4343900000000  0.5244610000000 1.0
C      1  0.4759540000000  0.5648630000000  0.5258400000000 1.0
C      1  0.4379080000000  0.4997880000000  0.5067290000000 1.0
C      1  0.5569250000000  0.5018170000000  0.5000140000000 1.0
END
