TITL C-3578209-2550-306 -7.82094852776445e-06 125000 -1076.89657129832 0 0 171 (C1) n - 1
REM
REM in /home/bkarasulu/work/CARBON/AIRSS/Generating-Clusters/EDIP-Nigel-Params/with-SteepDescent/Higher-Symm/SD-CG/HFTN-CG
REM
REM
REM
REM
REM
REM ./C.cell (12c818d87b63d06a65506943cc24bca4)
REM
REM compiler GCC version 9.2.1 20190827 (Red Hat 9.2.1-1)
REM options -cpp -mtune=generic -march=x86-64 -g -O0 -fpre-include=/usr/include/finclude/math-vector-fortran.h
REM seed 238284807 -1078227206 -1763836492 -1530453843 397413718 -115167434 -543530056 -1564444082 -420389197 -1102963034 347376840 1577475196 -1009445097 1028198876 -1753272007 -856376577 1167658717 341345701 -1473583730 1180876442 1350209269 -1081978787 1745852448 -162352397 956657244 -1502529488 1882210377 -35624463 -1622064379 -706062669 -1739254628 -1256688954 -1472100081
REM
CELL 1.54180   50.00000   50.00000   50.00000   90.00000   90.00000   90.00000
LATT -1
SFAC C  
C      1  0.4976040000000  0.5155540000000  0.3884730000000 1.0
C      1  0.5927040000000  0.5190390000000  0.5529100000000 1.0
C      1  0.4177140000000  0.5194260000000  0.5481560000000 1.0
C      1  0.4977350000000  0.5176130000000  0.6119680000000 1.0
C      1  0.5927630000000  0.5224100000000  0.4513980000000 1.0
C      1  0.4196320000000  0.5210290000000  0.4530690000000 1.0
C      1  0.5210930000000  0.5523580000000  0.3987040000000 1.0
C      1  0.5731660000000  0.5552070000000  0.5720780000000 1.0
C      1  0.4231350000000  0.5531970000000  0.5131500000000 1.0
C      1  0.5223830000000  0.5526060000000  0.5969250000000 1.0
C      1  0.5690180000000  0.5603640000000  0.4180740000000 1.0
C      1  0.4229970000000  0.5540030000000  0.4823630000000 1.0
C      1  0.4748570000000  0.5882710000000  0.5190480000000 1.0
C      1  0.4969350000000  0.5929180000000  0.4584030000000 1.0
C      1  0.5279220000000  0.5921170000000  0.5236930000000 1.0
C      1  0.4738600000000  0.5881830000000  0.4788830000000 1.0
C      1  0.4997440000000  0.5944780000000  0.5375840000000 1.0
C      1  0.5245670000000  0.5922360000000  0.4716150000000 1.0
C      1  0.5944990000000  0.4710080000000  0.5447170000000 1.0
C      1  0.4116260000000  0.4726510000000  0.5593680000000 1.0
C      1  0.4877660000000  0.4729000000000  0.3970950000000 1.0
C      1  0.5945890000000  0.4736390000000  0.4564710000000 1.0
C      1  0.4127530000000  0.4735900000000  0.4418080000000 1.0
C      1  0.4880540000000  0.4715520000000  0.6042920000000 1.0
C      1  0.4280480000000  0.4987990000000  0.4356080000000 1.0
C      1  0.5959000000000  0.5004780000000  0.4711940000000 1.0
C      1  0.4774140000000  0.5002600000000  0.5993020000000 1.0
C      1  0.4269990000000  0.4978190000000  0.5659040000000 1.0
C      1  0.5956930000000  0.4989490000000  0.5319720000000 1.0
C      1  0.4765670000000  0.5003000000000  0.4022150000000 1.0
C      1  0.5497550000000  0.5701480000000  0.5627880000000 1.0
C      1  0.4258230000000  0.5815330000000  0.5188010000000 1.0
C      1  0.5214920000000  0.5720960000000  0.4198850000000 1.0
C      1  0.5473340000000  0.5717460000000  0.4320230000000 1.0
C      1  0.4235900000000  0.5837710000000  0.4811270000000 1.0
C      1  0.5237300000000  0.5709470000000  0.5748340000000 1.0
C      1  0.4512400000000  0.5124200000000  0.6095730000000 1.0
C      1  0.4249030000000  0.5084680000000  0.4069360000000 1.0
C      1  0.6204720000000  0.5100350000000  0.4873610000000 1.0
C      1  0.4505910000000  0.5120410000000  0.3908340000000 1.0
C      1  0.4247440000000  0.5084680000000  0.5942920000000 1.0
C      1  0.6195340000000  0.5105070000000  0.5181200000000 1.0
C      1  0.5190010000000  0.4721120000000  0.5964490000000 1.0
C      1  0.4072350000000  0.4747990000000  0.4716070000000 1.0
C      1  0.5715980000000  0.4758030000000  0.4358920000000 1.0
C      1  0.5183130000000  0.4770300000000  0.4066120000000 1.0
C      1  0.4060550000000  0.4745100000000  0.5293770000000 1.0
C      1  0.5721630000000  0.4719660000000  0.5664240000000 1.0
C      1  0.5541370000000  0.5522200000000  0.4814440000000 1.0
C      1  0.4771130000000  0.5337770000000  0.5596300000000 1.0
C      1  0.4558090000000  0.5434330000000  0.4639020000000 1.0
C      1  0.5528850000000  0.5471210000000  0.5123420000000 1.0
C      1  0.4729910000000  0.5338820000000  0.4390410000000 1.0
C      1  0.4613310000000  0.5390770000000  0.5299010000000 1.0
C      1  0.5031950000000  0.4608540000000  0.5285940000000 1.0
C      1  0.4723780000000  0.4637810000000  0.4841930000000 1.0
C      1  0.5324450000000  0.4682740000000  0.4863160000000 1.0
C      1  0.5029370000000  0.4621150000000  0.4735870000000 1.0
C      1  0.4729370000000  0.4630270000000  0.5167370000000 1.0
C      1  0.5324060000000  0.4684240000000  0.5167540000000 1.0
C      1  0.4700630000000  0.4504280000000  0.5936800000000 1.0
C      1  0.4312840000000  0.4523370000000  0.4330510000000 1.0
C      1  0.5921370000000  0.4520270000000  0.4763520000000 1.0
C      1  0.4703170000000  0.4512250000000  0.4067510000000 1.0
C      1  0.4305710000000  0.4515600000000  0.5676110000000 1.0
C      1  0.5916320000000  0.4511410000000  0.5229510000000 1.0
C      1  0.4442410000000  0.5665970000000  0.4455960000000 1.0
C      1  0.5714950000000  0.5735050000000  0.4719620000000 1.0
C      1  0.4734870000000  0.5534850000000  0.5832360000000 1.0
C      1  0.4467290000000  0.5608100000000  0.5522030000000 1.0
C      1  0.5734110000000  0.5645540000000  0.5258410000000 1.0
C      1  0.4732020000000  0.5526830000000  0.4152780000000 1.0
C      1  0.5256750000000  0.5123660000000  0.4882070000000 1.0
C      1  0.5017950000000  0.5112490000000  0.5306900000000 1.0
C      1  0.4751620000000  0.5119830000000  0.4876820000000 1.0
C      1  0.5287070000000  0.5171820000000  0.5172540000000 1.0
C      1  0.5012230000000  0.5171620000000  0.4731050000000 1.0
C      1  0.4738030000000  0.5120920000000  0.5174560000000 1.0
C      1  0.4951850000000  0.5457080000000  0.6036980000000 1.0
C      1  0.4199120000000  0.5479810000000  0.4386700000000 1.0
C      1  0.5982730000000  0.5477400000000  0.4652010000000 1.0
C      1  0.4940540000000  0.5439840000000  0.3939740000000 1.0
C      1  0.4209860000000  0.5463600000000  0.5605110000000 1.0
C      1  0.5917670000000  0.5493720000000  0.5469650000000 1.0
C      1  0.4581200000000  0.4903660000000  0.4754380000000 1.0
C      1  0.5449550000000  0.4940860000000  0.4764550000000 1.0
C      1  0.5012440000000  0.4914280000000  0.5538520000000 1.0
C      1  0.4572110000000  0.4882590000000  0.5273490000000 1.0
C      1  0.5456960000000  0.4944470000000  0.5276340000000 1.0
C      1  0.4993600000000  0.4943460000000  0.4509160000000 1.0
C      1  0.5250580000000  0.5638140000000  0.4820140000000 1.0
C      1  0.5042530000000  0.5510760000000  0.5299150000000 1.0
C      1  0.4771480000000  0.5576370000000  0.4819910000000 1.0
C      1  0.5255880000000  0.5638420000000  0.5135300000000 1.0
C      1  0.5024400000000  0.5485910000000  0.4681500000000 1.0
C      1  0.4791650000000  0.5581830000000  0.5139060000000 1.0
C      1  0.5025160000000  0.4297580000000  0.4699150000000 1.0
C      1  0.5273220000000  0.4139400000000  0.5177480000000 1.0
C      1  0.4756980000000  0.4173530000000  0.5165820000000 1.0
C      1  0.5020830000000  0.4287350000000  0.5308790000000 1.0
C      1  0.5273430000000  0.4145470000000  0.4820870000000 1.0
C      1  0.4760490000000  0.4176250000000  0.4832540000000 1.0
C      1  0.5579360000000  0.4458420000000  0.5729890000000 1.0
C      1  0.4041640000000  0.4469370000000  0.5149660000000 1.0
C      1  0.5349590000000  0.4502830000000  0.4081160000000 1.0
C      1  0.5600010000000  0.4492580000000  0.4248440000000 1.0
C      1  0.4050010000000  0.4471820000000  0.4854950000000 1.0
C      1  0.5330420000000  0.4460030000000  0.5881040000000 1.0
C      1  0.4761240000000  0.3866820000000  0.4843650000000 1.0
C      1  0.5234970000000  0.3843610000000  0.4845660000000 1.0
C      1  0.4992150000000  0.3738820000000  0.5243320000000 1.0
C      1  0.4759480000000  0.3862760000000  0.5147770000000 1.0
C      1  0.5234810000000  0.3838860000000  0.5144230000000 1.0
C      1  0.4993050000000  0.3744560000000  0.4744220000000 1.0
C      1  0.5217770000000  0.4896380000000  0.4336390000000 1.0
C      1  0.5499530000000  0.4926320000000  0.5579790000000 1.0
C      1  0.4288720000000  0.4912680000000  0.5156750000000 1.0
C      1  0.5241290000000  0.4929970000000  0.5731210000000 1.0
C      1  0.5476440000000  0.4937920000000  0.4463080000000 1.0
C      1  0.4291560000000  0.4924840000000  0.4859340000000 1.0
C      1  0.5592010000000  0.4241570000000  0.5553610000000 1.0
C      1  0.4232880000000  0.4247170000000  0.5193200000000 1.0
C      1  0.5220970000000  0.4266850000000  0.4213260000000 1.0
C      1  0.5549630000000  0.4247960000000  0.4409090000000 1.0
C      1  0.4241090000000  0.4251460000000  0.4810460000000 1.0
C      1  0.5174810000000  0.4245190000000  0.5796260000000 1.0
C      1  0.5799040000000  0.5086540000000  0.5767090000000 1.0
C      1  0.3981860000000  0.5127740000000  0.5274140000000 1.0
C      1  0.5253970000000  0.5041470000000  0.3916580000000 1.0
C      1  0.5764740000000  0.5132400000000  0.4284990000000 1.0
C      1  0.3985010000000  0.5128110000000  0.4716650000000 1.0
C      1  0.5253800000000  0.5071620000000  0.6097420000000 1.0
C      1  0.4976480000000  0.4246320000000  0.5602430000000 1.0
C      1  0.4508710000000  0.4279280000000  0.4709020000000 1.0
C      1  0.5534320000000  0.4221810000000  0.4696800000000 1.0
C      1  0.4998630000000  0.4274480000000  0.4400760000000 1.0
C      1  0.4502130000000  0.4275330000000  0.5290690000000 1.0
C      1  0.5540320000000  0.4211010000000  0.5282750000000 1.0
C      1  0.5666530000000  0.5316510000000  0.5888100000000 1.0
C      1  0.3964920000000  0.5389040000000  0.5140950000000 1.0
C      1  0.5374160000000  0.5286480000000  0.4034190000000 1.0
C      1  0.5649230000000  0.5334940000000  0.4107150000000 1.0
C      1  0.3934280000000  0.5386520000000  0.4841720000000 1.0
C      1  0.5385920000000  0.5287680000000  0.5949220000000 1.0
C      1  0.4214250000000  0.5395900000000  0.4094240000000 1.0
C      1  0.6174380000000  0.5414740000000  0.4869320000000 1.0
C      1  0.4506930000000  0.5432420000000  0.6020330000000 1.0
C      1  0.4225920000000  0.5397250000000  0.5899230000000 1.0
C      1  0.6153560000000  0.5408370000000  0.5179750000000 1.0
C      1  0.4495720000000  0.5433490000000  0.3963360000000 1.0
C      1  0.4770910000000  0.5054580000000  0.4332550000000 1.0
C      1  0.5715360000000  0.5000640000000  0.5155840000000 1.0
C      1  0.4546240000000  0.4917220000000  0.5567260000000 1.0
C      1  0.4775960000000  0.5043380000000  0.5684280000000 1.0
C      1  0.5713820000000  0.4998060000000  0.4878530000000 1.0
C      1  0.4552850000000  0.4926310000000  0.4456150000000 1.0
C      1  0.4550320000000  0.4492940000000  0.4519870000000 1.0
C      1  0.5637830000000  0.4453630000000  0.4837050000000 1.0
C      1  0.4769290000000  0.4434230000000  0.5664660000000 1.0
C      1  0.4541140000000  0.4488540000000  0.5482340000000 1.0
C      1  0.5633760000000  0.4448960000000  0.5147750000000 1.0
C      1  0.4778560000000  0.4445600000000  0.4335820000000 1.0
C      1  0.4488140000000  0.5870520000000  0.5352910000000 1.0
C      1  0.4968920000000  0.5706380000000  0.4366130000000 1.0
C      1  0.5546740000000  0.5858620000000  0.5388750000000 1.0
C      1  0.4463930000000  0.5904670000000  0.4645690000000 1.0
C      1  0.4996140000000  0.5697770000000  0.5568770000000 1.0
C      1  0.5512690000000  0.5882250000000  0.4555470000000 1.0
C      1  0.4422340000000  0.4563940000000  0.4069260000000 1.0
C      1  0.4420360000000  0.4558950000000  0.5935050000000 1.0
C      1  0.6074150000000  0.4555850000000  0.4998990000000 1.0
END
