TITL C-3578208-4450-15 -1.11694759123826e-06 125000 -276.120424770178 0 0 46 (C1) n - 1
REM
REM in /home/bkarasulu/work/CARBON/AIRSS/Generating-Clusters/EDIP-Nigel-Params/with-SteepDescent/Higher-Symm/SD-CG/HFTN-CG
REM
REM
REM
REM
REM
REM ./C.cell (12c818d87b63d06a65506943cc24bca4)
REM
REM compiler GCC version 9.2.1 20190827 (Red Hat 9.2.1-1)
REM options -cpp -mtune=generic -march=x86-64 -g -O0 -fpre-include=/usr/include/finclude/math-vector-fortran.h
REM seed -396228623 1775606994 -1267844780 1448320342 970441155 1285898765 1885707105 -471884150 -1861267479 -314582359 603777808 307330787 754176834 1708461135 1783430250 -1953511169 1809125721 -1224114366 -958452745 -354848975 -1940548239 -1866956761 -276378641 -1173738589 -1410510324 1575693333 -1847449639 1257075838 1663030072 -75775874 1038489520 1145774226 -71017777
REM
CELL 1.54180   50.00000   50.00000   50.00000   90.00000   90.00000   90.00000
LATT -1
SFAC C  
C      1  0.4992760000000  0.5433400000000  0.4560220000000 1.0
C      1  0.5366590000000  0.4905770000000  0.4592020000000 1.0
C      1  0.4762920000000  0.4678530000000  0.4604020000000 1.0
C      1  0.4772590000000  0.4740830000000  0.5365180000000 1.0
C      1  0.4825240000000  0.5337660000000  0.5427770000000 1.0
C      1  0.5498400000000  0.4830080000000  0.5475760000000 1.0
C      1  0.5345160000000  0.4468210000000  0.5204250000000 1.0
C      1  0.4410660000000  0.5013870000000  0.5186420000000 1.0
C      1  0.5187920000000  0.5437050000000  0.5132990000000 1.0
C      1  0.5449680000000  0.5366350000000  0.4669830000000 1.0
C      1  0.5044820000000  0.4388780000000  0.4819310000000 1.0
C      1  0.4560320000000  0.5244430000000  0.4741630000000 1.0
C      1  0.4808310000000  0.4598290000000  0.5093560000000 1.0
C      1  0.4700620000000  0.5343110000000  0.5137880000000 1.0
C      1  0.5461050000000  0.4995390000000  0.5084690000000 1.0
C      1  0.5226190000000  0.4562250000000  0.4951070000000 1.0
C      1  0.4535920000000  0.5011190000000  0.4905500000000 1.0
C      1  0.5212050000000  0.5495840000000  0.4754490000000 1.0
C      1  0.4709140000000  0.5700270000000  0.4836180000000 1.0
C      1  0.5784480000000  0.5036760000000  0.4767460000000 1.0
C      1  0.4571820000000  0.4294070000000  0.4815010000000 1.0
C      1  0.5152800000000  0.4422390000000  0.5403770000000 1.0
C      1  0.4395920000000  0.5250250000000  0.5363590000000 1.0
C      1  0.5399930000000  0.5256280000000  0.5236480000000 1.0
C      1  0.4906080000000  0.4515270000000  0.5475400000000 1.0
C      1  0.4573510000000  0.5347630000000  0.5561060000000 1.0
C      1  0.5366750000000  0.5073160000000  0.5456220000000 1.0
C      1  0.4635030000000  0.5631230000000  0.5091040000000 1.0
C      1  0.5741850000000  0.4943010000000  0.5025560000000 1.0
C      1  0.4579800000000  0.4420060000000  0.5063590000000 1.0
C      1  0.4716310000000  0.5472220000000  0.4661460000000 1.0
C      1  0.5570760000000  0.5121520000000  0.4604330000000 1.0
C      1  0.4798140000000  0.4396090000000  0.4677290000000 1.0
C      1  0.5049220000000  0.5218840000000  0.4390410000000 1.0
C      1  0.5146880000000  0.4956850000000  0.4393510000000 1.0
C      1  0.4946560000000  0.4765870000000  0.4414470000000 1.0
C      1  0.4768930000000  0.4820270000000  0.4874860000000 1.0
C      1  0.4966990000000  0.5278700000000  0.4965810000000 1.0
C      1  0.5264870000000  0.4859200000000  0.4882240000000 1.0
C      1  0.5012490000000  0.5571600000000  0.5349600000000 1.0
C      1  0.5579900000000  0.4627310000000  0.5296170000000 1.0
C      1  0.4470940000000  0.4756390000000  0.5335660000000 1.0
C      1  0.4363560000000  0.4527440000000  0.5199490000000 1.0
C      1  0.4848530000000  0.5766310000000  0.5206900000000 1.0
C      1  0.5787430000000  0.4681760000000  0.5107910000000 1.0
C      1  0.5005300000000  0.4989110000000  0.4916040000000 1.0
END
