TITL C-3577090-796-527 -2.94701731345674e-06 125000 -331.559768783152 0 0 55 (C1) n - 1
REM
REM in /home/bkarasulu/work/CARBON/AIRSS/Generating-Clusters/EDIP-Nigel-Params/with-SteepDescent/Higher-Symm/SD-CG/HFTN-CG
REM
REM
REM
REM
REM
REM ./C.cell (12c818d87b63d06a65506943cc24bca4)
REM
REM compiler GCC version 9.2.1 20190827 (Red Hat 9.2.1-1)
REM options -cpp -mtune=generic -march=x86-64 -g -O0 -fpre-include=/usr/include/finclude/math-vector-fortran.h
REM seed -289925952 -1987943360 1586365900 -1451648394 -134760245 -1738375501 -1590365901 -1073060076 227882972 -1861794602 2055142973 90218761 1867203924 -1085109541 -1653084126 927152557 -492343127 -1499761654 400364439 557190148 685197554 1885087786 1547593356 -1845055338 -31527822 -1408456322 1050630063 788177769 1887169034 584322952 -1792458838 -2041368932 -1366073955
REM
CELL 1.54180   50.00000   50.00000   50.00000   90.00000   90.00000   90.00000
LATT -1
SFAC C  
C      1  0.5041850000000  0.5176800000000  0.4738290000000 1.0
C      1  0.5274130000000  0.5285210000000  0.5151040000000 1.0
C      1  0.4742010000000  0.5161030000000  0.5142750000000 1.0
C      1  0.5034190000000  0.5108140000000  0.5254460000000 1.0
C      1  0.5227710000000  0.5369380000000  0.4863520000000 1.0
C      1  0.4752780000000  0.5220590000000  0.4839080000000 1.0
C      1  0.4632860000000  0.4644780000000  0.4853290000000 1.0
C      1  0.5331080000000  0.4713060000000  0.4923370000000 1.0
C      1  0.4911680000000  0.4686360000000  0.5287440000000 1.0
C      1  0.4650390000000  0.4733300000000  0.5149860000000 1.0
C      1  0.5408270000000  0.4664260000000  0.5197800000000 1.0
C      1  0.4908190000000  0.4724700000000  0.4724150000000 1.0
C      1  0.5249170000000  0.5118750000000  0.5729390000000 1.0
C      1  0.4168190000000  0.5172920000000  0.4848470000000 1.0
C      1  0.5522900000000  0.5130540000000  0.4406760000000 1.0
C      1  0.5256150000000  0.5126800000000  0.4280050000000 1.0
C      1  0.4177990000000  0.5182460000000  0.5145080000000 1.0
C      1  0.5532050000000  0.5146460000000  0.5652540000000 1.0
C      1  0.4632570000000  0.5474330000000  0.5179820000000 1.0
C      1  0.5169930000000  0.5563230000000  0.4439170000000 1.0
C      1  0.5349560000000  0.5515910000000  0.5330080000000 1.0
C      1  0.4643300000000  0.5500640000000  0.4883920000000 1.0
C      1  0.5149980000000  0.5544120000000  0.5523290000000 1.0
C      1  0.5350140000000  0.5549240000000  0.4653760000000 1.0
C      1  0.4174730000000  0.4890110000000  0.5190780000000 1.0
C      1  0.5180090000000  0.4852210000000  0.4327140000000 1.0
C      1  0.5581920000000  0.4860470000000  0.5600410000000 1.0
C      1  0.4171530000000  0.4876950000000  0.4816930000000 1.0
C      1  0.5204510000000  0.4837200000000  0.5678110000000 1.0
C      1  0.5527470000000  0.4850070000000  0.4490700000000 1.0
C      1  0.5003340000000  0.4441570000000  0.4709430000000 1.0
C      1  0.5299230000000  0.4396600000000  0.5236340000000 1.0
C      1  0.4859800000000  0.4245710000000  0.5092070000000 1.0
C      1  0.5012070000000  0.4406010000000  0.5267360000000 1.0
C      1  0.5254430000000  0.4431450000000  0.4852530000000 1.0
C      1  0.4760580000000  0.4322930000000  0.4842650000000 1.0
C      1  0.5579360000000  0.5105640000000  0.4892320000000 1.0
C      1  0.4763610000000  0.5035190000000  0.5599490000000 1.0
C      1  0.4491000000000  0.5047560000000  0.4533430000000 1.0
C      1  0.5657970000000  0.5091460000000  0.5182720000000 1.0
C      1  0.4751880000000  0.5066470000000  0.4416060000000 1.0
C      1  0.4497530000000  0.5052830000000  0.5493770000000 1.0
C      1  0.5554950000000  0.4840190000000  0.4775840000000 1.0
C      1  0.4936780000000  0.4806110000000  0.5558080000000 1.0
C      1  0.4415130000000  0.4794150000000  0.4677970000000 1.0
C      1  0.5620510000000  0.4825410000000  0.5316530000000 1.0
C      1  0.4916450000000  0.4836780000000  0.4446900000000 1.0
C      1  0.4425580000000  0.4820100000000  0.5324930000000 1.0
C      1  0.4393930000000  0.5284510000000  0.4689880000000 1.0
C      1  0.5555320000000  0.5308780000000  0.4656050000000 1.0
C      1  0.5063270000000  0.5265790000000  0.5551330000000 1.0
C      1  0.4416760000000  0.5287700000000  0.5309980000000 1.0
C      1  0.5580320000000  0.5306640000000  0.5394240000000 1.0
C      1  0.5064000000000  0.5290570000000  0.4433230000000 1.0
C      1  0.5074960000000  0.4889820000000  0.4929900000000 1.0
END
