TITL C-3577081-279-474 -2.81700560800294e-07 125000 -911.841042721496 0 0 146 (C1) n - 1
REM
REM in /home/bkarasulu/work/CARBON/AIRSS/Generating-Clusters/EDIP-Nigel-Params/with-SteepDescent/Higher-Symm/SD-CG/HFTN-CG
REM
REM
REM
REM
REM
REM ./C.cell (12c818d87b63d06a65506943cc24bca4)
REM
REM compiler GCC version 9.2.1 20190827 (Red Hat 9.2.1-1)
REM options -cpp -mtune=generic -march=x86-64 -g -O0 -fpre-include=/usr/include/finclude/math-vector-fortran.h
REM seed 300909331 777818870 1489239469 1198421516 2121798520 -77323554 -846560409 -386539730 -1622368871 -139660143 -276563324 -1480190680 1559140791 3899631 1581357650 918736112 -128267927 -990268612 -1897615080 650979797 816890506 1304213984 -745040691 -88437280 2038586943 512773320 1063856256 -2089482479 -476690065 204339332 675623469 1554958202 997351940
REM
CELL 1.54180   50.00000   50.00000   50.00000   90.00000   90.00000   90.00000
LATT -1
SFAC C  
C      1  0.4530500000000  0.5858500000000  0.5535330000000 1.0
C      1  0.4276190000000  0.4526690000000  0.4479200000000 1.0
C      1  0.4949250000000  0.4569410000000  0.4187560000000 1.0
C      1  0.5125910000000  0.5339620000000  0.5825270000000 1.0
C      1  0.4725130000000  0.4507720000000  0.4929920000000 1.0
C      1  0.5949700000000  0.4993260000000  0.4840970000000 1.0
C      1  0.4524680000000  0.5305250000000  0.5387340000000 1.0
C      1  0.5061880000000  0.4016820000000  0.4832090000000 1.0
C      1  0.5945430000000  0.4785300000000  0.5306630000000 1.0
C      1  0.4794720000000  0.5126690000000  0.4372170000000 1.0
C      1  0.5401690000000  0.4162390000000  0.5142030000000 1.0
C      1  0.5115060000000  0.4207410000000  0.5638780000000 1.0
C      1  0.4356440000000  0.4296860000000  0.5218490000000 1.0
C      1  0.4793800000000  0.5457490000000  0.4057550000000 1.0
C      1  0.4178310000000  0.5490510000000  0.5550070000000 1.0
C      1  0.5658280000000  0.4152500000000  0.5015410000000 1.0
C      1  0.4833810000000  0.4628270000000  0.5373820000000 1.0
C      1  0.4547500000000  0.4013840000000  0.4873340000000 1.0
C      1  0.5015140000000  0.4303950000000  0.4297540000000 1.0
C      1  0.5990030000000  0.4535920000000  0.4849790000000 1.0
C      1  0.5509170000000  0.5278700000000  0.4118650000000 1.0
C      1  0.4681730000000  0.4915670000000  0.5808330000000 1.0
C      1  0.5606580000000  0.5049990000000  0.5204250000000 1.0
C      1  0.5552540000000  0.5130260000000  0.5845020000000 1.0
C      1  0.4607560000000  0.5234460000000  0.4869720000000 1.0
C      1  0.5284800000000  0.3925910000000  0.5256000000000 1.0
C      1  0.5310670000000  0.5906950000000  0.5154890000000 1.0
C      1  0.4375390000000  0.5358230000000  0.5743760000000 1.0
C      1  0.5703970000000  0.5303320000000  0.5085930000000 1.0
C      1  0.4682530000000  0.4468510000000  0.5579090000000 1.0
C      1  0.5164770000000  0.5009390000000  0.5537390000000 1.0
C      1  0.5287180000000  0.4673130000000  0.5037010000000 1.0
C      1  0.4881660000000  0.4854040000000  0.4516720000000 1.0
C      1  0.4641550000000  0.5488310000000  0.5812900000000 1.0
C      1  0.3987500000000  0.4696130000000  0.5297220000000 1.0
C      1  0.5457780000000  0.4312840000000  0.5385580000000 1.0
C      1  0.5268660000000  0.5097630000000  0.5883130000000 1.0
C      1  0.5327260000000  0.5361110000000  0.4875340000000 1.0
C      1  0.4533050000000  0.5509630000000  0.4204250000000 1.0
C      1  0.4761880000000  0.4634950000000  0.5818030000000 1.0
C      1  0.5313470000000  0.5552490000000  0.5691520000000 1.0
C      1  0.5028910000000  0.5794170000000  0.5566660000000 1.0
C      1  0.4707840000000  0.4973220000000  0.4771280000000 1.0
C      1  0.5796660000000  0.5379060000000  0.5511690000000 1.0
C      1  0.5143390000000  0.5552580000000  0.4743360000000 1.0
C      1  0.4400320000000  0.4477300000000  0.5447780000000 1.0
C      1  0.4831090000000  0.4148850000000  0.5256150000000 1.0
C      1  0.5558450000000  0.5256420000000  0.4587860000000 1.0
C      1  0.4900530000000  0.5602400000000  0.4920970000000 1.0
C      1  0.4817920000000  0.5343050000000  0.5393780000000 1.0
C      1  0.4213200000000  0.5541510000000  0.4681770000000 1.0
C      1  0.4833520000000  0.4199900000000  0.5556860000000 1.0
C      1  0.5217750000000  0.5094770000000  0.4817030000000 1.0
C      1  0.5670880000000  0.4928410000000  0.5669070000000 1.0
C      1  0.4326810000000  0.5699480000000  0.5401770000000 1.0
C      1  0.4644860000000  0.6034720000000  0.5329810000000 1.0
C      1  0.5300840000000  0.4253180000000  0.4691970000000 1.0
C      1  0.4850480000000  0.5846500000000  0.4375770000000 1.0
C      1  0.5293140000000  0.4300450000000  0.4390830000000 1.0
C      1  0.4826750000000  0.5150310000000  0.4067750000000 1.0
C      1  0.4306190000000  0.4123730000000  0.4775220000000 1.0
C      1  0.4218400000000  0.4348210000000  0.4939590000000 1.0
C      1  0.5596170000000  0.5404970000000  0.5732860000000 1.0
C      1  0.4876660000000  0.4532140000000  0.4687440000000 1.0
C      1  0.4857490000000  0.5910140000000  0.4921320000000 1.0
C      1  0.5117550000000  0.4921030000000  0.5025160000000 1.0
C      1  0.4569140000000  0.5736870000000  0.4390890000000 1.0
C      1  0.4410310000000  0.5023500000000  0.4157640000000 1.0
C      1  0.5757300000000  0.4320340000000  0.5348640000000 1.0
C      1  0.4967190000000  0.5589730000000  0.4262710000000 1.0
C      1  0.5747540000000  0.5657500000000  0.4626550000000 1.0
C      1  0.4118900000000  0.4544890000000  0.4725150000000 1.0
C      1  0.4203190000000  0.4688570000000  0.5469810000000 1.0
C      1  0.4535240000000  0.4832730000000  0.5222290000000 1.0
C      1  0.5222220000000  0.4404130000000  0.5824290000000 1.0
C      1  0.4936970000000  0.6027840000000  0.5388280000000 1.0
C      1  0.5020330000000  0.3940710000000  0.5121140000000 1.0
C      1  0.5423100000000  0.5406550000000  0.4367760000000 1.0
C      1  0.5386730000000  0.4587680000000  0.4331890000000 1.0
C      1  0.5279020000000  0.5810800000000  0.4652810000000 1.0
C      1  0.5597200000000  0.4278650000000  0.4765420000000 1.0
C      1  0.5494790000000  0.5686910000000  0.4455060000000 1.0
C      1  0.4001160000000  0.4808670000000  0.4805160000000 1.0
C      1  0.5864450000000  0.4553490000000  0.5475810000000 1.0
C      1  0.4199580000000  0.5042380000000  0.4776970000000 1.0
C      1  0.4221050000000  0.4887700000000  0.5659200000000 1.0
C      1  0.4556700000000  0.4084310000000  0.5164760000000 1.0
C      1  0.4845780000000  0.5315490000000  0.5917420000000 1.0
C      1  0.5996470000000  0.4766200000000  0.5012620000000 1.0
C      1  0.4888330000000  0.4431620000000  0.5156250000000 1.0
C      1  0.5560700000000  0.4800580000000  0.4942920000000 1.0
C      1  0.4747610000000  0.5700530000000  0.5645780000000 1.0
C      1  0.4707990000000  0.5479400000000  0.4724700000000 1.0
C      1  0.5697740000000  0.5769070000000  0.4895350000000 1.0
C      1  0.4591990000000  0.5030090000000  0.3942320000000 1.0
C      1  0.4910480000000  0.5387830000000  0.4490950000000 1.0
C      1  0.4215530000000  0.5269260000000  0.4558610000000 1.0
C      1  0.5720850000000  0.5530440000000  0.5268190000000 1.0
C      1  0.4357890000000  0.5719100000000  0.5115050000000 1.0
C      1  0.4466020000000  0.4646090000000  0.4974590000000 1.0
C      1  0.5242730000000  0.4740320000000  0.4552110000000 1.0
C      1  0.5434660000000  0.4946700000000  0.4690220000000 1.0
C      1  0.5089520000000  0.5019090000000  0.3987940000000 1.0
C      1  0.4430290000000  0.5725850000000  0.4638460000000 1.0
C      1  0.5697410000000  0.4640420000000  0.5705830000000 1.0
C      1  0.4523640000000  0.4379740000000  0.4378940000000 1.0
C      1  0.4799400000000  0.4048720000000  0.4701410000000 1.0
C      1  0.5042650000000  0.4615220000000  0.5884040000000 1.0
C      1  0.5320960000000  0.4579100000000  0.5326980000000 1.0
C      1  0.4658570000000  0.4604400000000  0.4225140000000 1.0
C      1  0.5303460000000  0.5192600000000  0.3953300000000 1.0
C      1  0.4051060000000  0.5316070000000  0.5361590000000 1.0
C      1  0.5923100000000  0.5272580000000  0.4905030000000 1.0
C      1  0.5440440000000  0.5896520000000  0.4894070000000 1.0
C      1  0.4483500000000  0.4817360000000  0.4347540000000 1.0
C      1  0.4563280000000  0.5937370000000  0.5050810000000 1.0
C      1  0.4418910000000  0.5258160000000  0.4332320000000 1.0
C      1  0.5283790000000  0.4000350000000  0.5539040000000 1.0
C      1  0.5312830000000  0.5650880000000  0.5356740000000 1.0
C      1  0.5249080000000  0.5392940000000  0.5187110000000 1.0
C      1  0.4439070000000  0.5166460000000  0.5126670000000 1.0
C      1  0.4884700000000  0.5061880000000  0.5445460000000 1.0
C      1  0.4958160000000  0.5411360000000  0.5153310000000 1.0
C      1  0.4796790000000  0.4291810000000  0.4514500000000 1.0
C      1  0.4753780000000  0.5075880000000  0.6027440000000 1.0
C      1  0.5765380000000  0.4914820000000  0.4396580000000 1.0
C      1  0.5150560000000  0.4748860000000  0.4076860000000 1.0
C      1  0.5713480000000  0.4555210000000  0.4743390000000 1.0
C      1  0.5050210000000  0.6029960000000  0.5125060000000 1.0
C      1  0.5116620000000  0.4695990000000  0.5515640000000 1.0
C      1  0.4844200000000  0.4983760000000  0.5138990000000 1.0
C      1  0.4991470000000  0.5956540000000  0.4624240000000 1.0
C      1  0.5175790000000  0.4522940000000  0.4769470000000 1.0
C      1  0.5346310000000  0.5143570000000  0.5329080000000 1.0
C      1  0.5853510000000  0.5745700000000  0.5135570000000 1.0
C      1  0.4173430000000  0.5540320000000  0.4968050000000 1.0
C      1  0.5681400000000  0.5069970000000  0.4182820000000 1.0
C      1  0.5980170000000  0.5004860000000  0.4555960000000 1.0
C      1  0.5666860000000  0.4648340000000  0.4450590000000 1.0
C      1  0.5816710000000  0.5040260000000  0.5436280000000 1.0
C      1  0.4145230000000  0.5266110000000  0.5089250000000 1.0
C      1  0.4441050000000  0.4845490000000  0.4734100000000 1.0
C      1  0.4474980000000  0.5011330000000  0.5605160000000 1.0
C      1  0.5496780000000  0.4469740000000  0.5811720000000 1.0
C      1  0.5849880000000  0.5366680000000  0.4625320000000 1.0
C      1  0.3895690000000  0.4781540000000  0.5061110000000 1.0
END
