TITL C-3577082-504-448 -1.1862900168392e-06 125000 -245.185476563382 0 0 42 (Ci) n - 1
REM
REM in /home/bkarasulu/work/CARBON/AIRSS/Generating-Clusters/EDIP-Nigel-Params/with-SteepDescent/Higher-Symm/SD-CG/HFTN-CG
REM
REM
REM
REM
REM
REM ./C.cell (12c818d87b63d06a65506943cc24bca4)
REM
REM compiler GCC version 9.2.1 20190827 (Red Hat 9.2.1-1)
REM options -cpp -mtune=generic -march=x86-64 -g -O0 -fpre-include=/usr/include/finclude/math-vector-fortran.h
REM seed -1030069767 1834655215 -820491381 1181920622 -982937338 741447470 513109623 -440992680 1283186819 1790212248 1730240384 -934199610 -960480597 159638481 -2084137487 1738675232 546604809 734461963 -969266304 1205862627 -996931206 -891679151 17907700 -2041498672 -917483873 532815487 1212404251 -640218547 -1608603270 -1748790685 254276654 -1059177229 1513458565
REM
CELL 1.54180   50.00000   50.00000   50.00000   90.00000   90.00000   90.00000
LATT -1
SFAC C  
C      1  0.5558740000000  0.4643160000000  0.4849350000000 1.0
C      1  0.4448180000000  0.5354110000000  0.4834990000000 1.0
C      1  0.5551800000000  0.4647690000000  0.5162700000000 1.0
C      1  0.4440950000000  0.5354840000000  0.5148380000000 1.0
C      1  0.5241680000000  0.4660650000000  0.5227730000000 1.0
C      1  0.4748660000000  0.5346390000000  0.5229060000000 1.0
C      1  0.5251060000000  0.4651610000000  0.4768480000000 1.0
C      1  0.4758270000000  0.5341440000000  0.4769750000000 1.0
C      1  0.5421440000000  0.5105700000000  0.5251410000000 1.0
C      1  0.4565210000000  0.4895090000000  0.5249370000000 1.0
C      1  0.5436360000000  0.5102230000000  0.4742600000000 1.0
C      1  0.4577370000000  0.4896690000000  0.4740790000000 1.0
C      1  0.5442040000000  0.5383990000000  0.5145150000000 1.0
C      1  0.4553660000000  0.4616030000000  0.5139780000000 1.0
C      1  0.5451370000000  0.5382190000000  0.4849480000000 1.0
C      1  0.4554260000000  0.4617770000000  0.4845140000000 1.0
C      1  0.5196120000000  0.4976140000000  0.4315250000000 1.0
C      1  0.4810990000000  0.5017430000000  0.4317150000000 1.0
C      1  0.5189060000000  0.4983280000000  0.5684630000000 1.0
C      1  0.4803880000000  0.5023020000000  0.5686730000000 1.0
C      1  0.4805020000000  0.4469750000000  0.5197090000000 1.0
C      1  0.5191480000000  0.5533690000000  0.5198620000000 1.0
C      1  0.4806450000000  0.4468790000000  0.4803840000000 1.0
C      1  0.5196470000000  0.5528160000000  0.4805120000000 1.0
C      1  0.4980220000000  0.4775120000000  0.4354280000000 1.0
C      1  0.5027110000000  0.5217870000000  0.4356550000000 1.0
C      1  0.4973690000000  0.4782080000000  0.5643570000000 1.0
C      1  0.5018950000000  0.5224840000000  0.5645890000000 1.0
C      1  0.5182350000000  0.4948120000000  0.4835370000000 1.0
C      1  0.4827010000000  0.5048370000000  0.4848850000000 1.0
C      1  0.5173100000000  0.4952480000000  0.5145360000000 1.0
C      1  0.4817650000000  0.5051090000000  0.5158840000000 1.0
C      1  0.4338010000000  0.5064340000000  0.5147480000000 1.0
C      1  0.5654430000000  0.4937240000000  0.5162510000000 1.0
C      1  0.4345160000000  0.5064970000000  0.4831370000000 1.0
C      1  0.5662480000000  0.4933090000000  0.4846400000000 1.0
C      1  0.5010360000000  0.5374320000000  0.4610200000000 1.0
C      1  0.4998290000000  0.4615550000000  0.4606520000000 1.0
C      1  0.5001280000000  0.5381020000000  0.5391790000000 1.0
C      1  0.4989560000000  0.4629500000000  0.5387860000000 1.0
C      1  0.4858060000000  0.5520860000000  0.4998250000000 1.0
C      1  0.5141790000000  0.4479300000000  0.5001110000000 1.0
END
