TITL C-3577080-309-559 -1.69988657989413e-06 125000 -451.348636847984 0 0 71 (C1) n - 1
REM
REM in /home/bkarasulu/work/CARBON/AIRSS/Generating-Clusters/EDIP-Nigel-Params/with-SteepDescent/Higher-Symm/SD-CG/HFTN-CG
REM
REM
REM
REM
REM
REM ./C.cell (12c818d87b63d06a65506943cc24bca4)
REM
REM compiler GCC version 9.2.1 20190827 (Red Hat 9.2.1-1)
REM options -cpp -mtune=generic -march=x86-64 -g -O0 -fpre-include=/usr/include/finclude/math-vector-fortran.h
REM seed -1036802843 844772410 -2126728996 1099173702 873553384 -1009037355 -410188551 99962204 -204248745 1996351608 1189019962 -1720039016 -1652586202 2075878276 989705969 1933288600 1802359063 -1691396105 -113762454 -1599067810 445267392 952548035 -208070422 -1244595230 1401086035 1319236938 993017502 313450990 -419601590 1728996075 -939220510 503404607 1187711397
REM
CELL 1.54180   50.00000   50.00000   50.00000   90.00000   90.00000   90.00000
LATT -1
SFAC C  
C      1  0.5674390000000  0.5019850000000  0.4746440000000 1.0
C      1  0.4325900000000  0.4846540000000  0.4792900000000 1.0
C      1  0.5684490000000  0.4766600000000  0.4905160000000 1.0
C      1  0.4297870000000  0.4744760000000  0.5080650000000 1.0
C      1  0.5689990000000  0.4836190000000  0.5198550000000 1.0
C      1  0.4296620000000  0.4980530000000  0.5264520000000 1.0
C      1  0.5682120000000  0.5138120000000  0.5215670000000 1.0
C      1  0.4351480000000  0.5222750000000  0.5102240000000 1.0
C      1  0.5651600000000  0.5243320000000  0.4940380000000 1.0
C      1  0.4329340000000  0.5152330000000  0.4809410000000 1.0
C      1  0.4885930000000  0.5610420000000  0.4537510000000 1.0
C      1  0.5136890000000  0.5229480000000  0.4268790000000 1.0
C      1  0.4889080000000  0.4776760000000  0.4333260000000 1.0
C      1  0.5130630000000  0.4409130000000  0.4572130000000 1.0
C      1  0.4880350000000  0.4291320000000  0.5007540000000 1.0
C      1  0.5132990000000  0.4401670000000  0.5436720000000 1.0
C      1  0.4894180000000  0.4786970000000  0.5665060000000 1.0
C      1  0.5130610000000  0.5223790000000  0.5692370000000 1.0
C      1  0.4888330000000  0.5628750000000  0.5486850000000 1.0
C      1  0.5126630000000  0.5790640000000  0.5009780000000 1.0
C      1  0.5547750000000  0.4648000000000  0.5388140000000 1.0
C      1  0.4488810000000  0.4953780000000  0.5507720000000 1.0
C      1  0.5542160000000  0.5262330000000  0.5448900000000 1.0
C      1  0.4511400000000  0.5449630000000  0.5211810000000 1.0
C      1  0.5495140000000  0.5489390000000  0.4893690000000 1.0
C      1  0.4482480000000  0.5333840000000  0.4619640000000 1.0
C      1  0.5539330000000  0.5052110000000  0.4478650000000 1.0
C      1  0.4456650000000  0.4725670000000  0.4546750000000 1.0
C      1  0.5533720000000  0.4537420000000  0.4791970000000 1.0
C      1  0.4385990000000  0.4505110000000  0.5208870000000 1.0
C      1  0.5022430000000  0.5366610000000  0.5080390000000 1.0
C      1  0.4904230000000  0.5276380000000  0.4832530000000 1.0
C      1  0.5143220000000  0.5128240000000  0.4726760000000 1.0
C      1  0.4831630000000  0.4789720000000  0.4769250000000 1.0
C      1  0.5144430000000  0.4836660000000  0.4795310000000 1.0
C      1  0.4853250000000  0.4720850000000  0.5111080000000 1.0
C      1  0.5159570000000  0.4772970000000  0.5123570000000 1.0
C      1  0.4719300000000  0.4992790000000  0.5194020000000 1.0
C      1  0.5173360000000  0.5014860000000  0.5300480000000 1.0
C      1  0.4929880000000  0.5190610000000  0.5295170000000 1.0
C      1  0.5278300000000  0.5544190000000  0.5102410000000 1.0
C      1  0.4702840000000  0.5499020000000  0.4748200000000 1.0
C      1  0.5311770000000  0.5249460000000  0.4515240000000 1.0
C      1  0.4638710000000  0.4909300000000  0.4391800000000 1.0
C      1  0.5312910000000  0.4644390000000  0.4614710000000 1.0
C      1  0.4669730000000  0.4456830000000  0.4886160000000 1.0
C      1  0.5317890000000  0.4527120000000  0.5232050000000 1.0
C      1  0.4633750000000  0.4697040000000  0.5575140000000 1.0
C      1  0.5333300000000  0.5060690000000  0.5541100000000 1.0
C      1  0.4713710000000  0.5388930000000  0.5434240000000 1.0
C      1  0.5382070000000  0.5527550000000  0.4620460000000 1.0
C      1  0.4626850000000  0.5204630000000  0.4396320000000 1.0
C      1  0.5394520000000  0.4808170000000  0.4369240000000 1.0
C      1  0.4613570000000  0.4464110000000  0.4590580000000 1.0
C      1  0.5390840000000  0.4360040000000  0.4990230000000 1.0
C      1  0.4610790000000  0.4477510000000  0.5384860000000 1.0
C      1  0.5406260000000  0.4773230000000  0.5628940000000 1.0
C      1  0.4622790000000  0.5195300000000  0.5647150000000 1.0
C      1  0.5382860000000  0.5522830000000  0.5394880000000 1.0
C      1  0.4633610000000  0.5641890000000  0.5015800000000 1.0
C      1  0.5146950000000  0.5514640000000  0.5589780000000 1.0
C      1  0.4866110000000  0.5773350000000  0.5158280000000 1.0
C      1  0.5143620000000  0.5704610000000  0.4663100000000 1.0
C      1  0.4873260000000  0.5372700000000  0.4329990000000 1.0
C      1  0.5137400000000  0.4916930000000  0.4237050000000 1.0
C      1  0.4876170000000  0.4498980000000  0.4438600000000 1.0
C      1  0.5135720000000  0.4272800000000  0.4848240000000 1.0
C      1  0.4867230000000  0.4330150000000  0.5307330000000 1.0
C      1  0.5139960000000  0.4614400000000  0.5658350000000 1.0
C      1  0.4878030000000  0.5072980000000  0.5749480000000 1.0
C      1  0.4699980000000  0.5056490000000  0.4888330000000 1.0
END
