TITL C-3577085-527-218 2.05163596718278e-06 125000 -488.923569991818 0 0 80 (C1) n - 1
REM
REM in /home/bkarasulu/work/CARBON/AIRSS/Generating-Clusters/EDIP-Nigel-Params/with-SteepDescent/Higher-Symm/SD-CG/HFTN-CG
REM
REM
REM
REM
REM
REM ./C.cell (12c818d87b63d06a65506943cc24bca4)
REM
REM compiler GCC version 9.2.1 20190827 (Red Hat 9.2.1-1)
REM options -cpp -mtune=generic -march=x86-64 -g -O0 -fpre-include=/usr/include/finclude/math-vector-fortran.h
REM seed -1746253098 496001213 1023297330 -833034353 2029550366 -541632388 -196966939 1883368874 -157075008 -154184929 188508187 1185449355 -1954816040 -1837828560 -858822666 1371959263 194221853 -872764349 532754381 -259841327 -266640640 1659849810 -2073886791 -1078563081 1685562279 1449854518 -666411540 368568897 -1656392033 1355598742 -500997825 1714358596 -201058980
REM
CELL 1.54180   50.00000   50.00000   50.00000   90.00000   90.00000   90.00000
LATT -1
SFAC C  
C      1  0.5477450000000  0.5433470000000  0.5458350000000 1.0
C      1  0.5142560000000  0.4529420000000  0.4315850000000 1.0
C      1  0.5112130000000  0.4874250000000  0.4579910000000 1.0
C      1  0.4336110000000  0.5280750000000  0.4530010000000 1.0
C      1  0.5545930000000  0.4422770000000  0.4827690000000 1.0
C      1  0.5740960000000  0.5467440000000  0.4806920000000 1.0
C      1  0.4542470000000  0.4913530000000  0.5650290000000 1.0
C      1  0.5282270000000  0.5658530000000  0.5500130000000 1.0
C      1  0.5555020000000  0.5074260000000  0.4598690000000 1.0
C      1  0.5710900000000  0.4854910000000  0.5021970000000 1.0
C      1  0.5046490000000  0.4791490000000  0.4207160000000 1.0
C      1  0.5124970000000  0.5735950000000  0.4634720000000 1.0
C      1  0.4627240000000  0.5713820000000  0.4669030000000 1.0
C      1  0.4580050000000  0.4874200000000  0.4588330000000 1.0
C      1  0.4785320000000  0.4292370000000  0.5079140000000 1.0
C      1  0.4777970000000  0.4342150000000  0.5363680000000 1.0
C      1  0.4488130000000  0.4446790000000  0.4724620000000 1.0
C      1  0.5229070000000  0.5167970000000  0.5805700000000 1.0
C      1  0.4414900000000  0.5179740000000  0.5192570000000 1.0
C      1  0.4583920000000  0.5632820000000  0.5202070000000 1.0
C      1  0.4845490000000  0.4835730000000  0.4726110000000 1.0
C      1  0.4967530000000  0.5080810000000  0.5396620000000 1.0
C      1  0.4968810000000  0.4428070000000  0.4535610000000 1.0
C      1  0.4860660000000  0.5739350000000  0.5086220000000 1.0
C      1  0.5217570000000  0.5772610000000  0.5228240000000 1.0
C      1  0.5053540000000  0.4186560000000  0.4996440000000 1.0
C      1  0.5472190000000  0.5194020000000  0.5638090000000 1.0
C      1  0.4849000000000  0.4571600000000  0.4933410000000 1.0
C      1  0.5059920000000  0.4973070000000  0.5653850000000 1.0
C      1  0.5443420000000  0.4922130000000  0.4380210000000 1.0
C      1  0.4627480000000  0.4673480000000  0.5232280000000 1.0
C      1  0.5048760000000  0.4334710000000  0.5458480000000 1.0
C      1  0.4418610000000  0.5436160000000  0.5025480000000 1.0
C      1  0.5104940000000  0.5410760000000  0.5867320000000 1.0
C      1  0.5040050000000  0.5305500000000  0.4584280000000 1.0
C      1  0.5758130000000  0.5327080000000  0.5061790000000 1.0
C      1  0.5124100000000  0.4672950000000  0.5049510000000 1.0
C      1  0.5379320000000  0.4709570000000  0.5496950000000 1.0
C      1  0.4563090000000  0.4952450000000  0.5068830000000 1.0
C      1  0.5070900000000  0.4982110000000  0.5134090000000 1.0
C      1  0.5407210000000  0.5638800000000  0.5047330000000 1.0
C      1  0.5592010000000  0.5358240000000  0.4592200000000 1.0
C      1  0.4866470000000  0.5791630000000  0.4791880000000 1.0
C      1  0.5574490000000  0.4483240000000  0.4562910000000 1.0
C      1  0.4472960000000  0.5230920000000  0.5468910000000 1.0
C      1  0.4935460000000  0.4642010000000  0.5815720000000 1.0
C      1  0.5551900000000  0.4952150000000  0.5489750000000 1.0
C      1  0.4468050000000  0.4680620000000  0.5484200000000 1.0
C      1  0.4251880000000  0.5176520000000  0.4783640000000 1.0
C      1  0.4221770000000  0.4566560000000  0.5121230000000 1.0
C      1  0.5477790000000  0.4964090000000  0.4864720000000 1.0
C      1  0.4591780000000  0.5443500000000  0.4768320000000 1.0
C      1  0.5050420000000  0.5531530000000  0.5619270000000 1.0
C      1  0.4568950000000  0.5130280000000  0.4459200000000 1.0
C      1  0.4299540000000  0.4615180000000  0.4857220000000 1.0
C      1  0.4835870000000  0.5038460000000  0.4947750000000 1.0
C      1  0.5007890000000  0.5469560000000  0.5101460000000 1.0
C      1  0.5016980000000  0.5175300000000  0.4301170000000 1.0
C      1  0.5063620000000  0.5544220000000  0.4423460000000 1.0
C      1  0.5400790000000  0.5650210000000  0.4754900000000 1.0
C      1  0.4868590000000  0.5318030000000  0.4840350000000 1.0
C      1  0.4388530000000  0.4899770000000  0.4822990000000 1.0
C      1  0.4732220000000  0.5106660000000  0.4218200000000 1.0
C      1  0.5631780000000  0.4569440000000  0.5062940000000 1.0
C      1  0.4582300000000  0.4627500000000  0.4296440000000 1.0
C      1  0.4674800000000  0.4452060000000  0.4507950000000 1.0
C      1  0.5484220000000  0.5375920000000  0.5160420000000 1.0
C      1  0.5453920000000  0.4516160000000  0.5290170000000 1.0
C      1  0.5143670000000  0.4553950000000  0.5627320000000 1.0
C      1  0.5217210000000  0.4336740000000  0.5218880000000 1.0
C      1  0.4210130000000  0.4646720000000  0.5380740000000 1.0
C      1  0.5420890000000  0.4629010000000  0.4381150000000 1.0
C      1  0.5740450000000  0.5005750000000  0.5269990000000 1.0
C      1  0.4647490000000  0.5464110000000  0.5440850000000 1.0
C      1  0.5080280000000  0.4258610000000  0.4727880000000 1.0
C      1  0.4793510000000  0.4899660000000  0.5811290000000 1.0
C      1  0.5305100000000  0.4723860000000  0.4799860000000 1.0
C      1  0.5308890000000  0.5149870000000  0.5038160000000 1.0
C      1  0.4925170000000  0.5375410000000  0.5391450000000 1.0
C      1  0.4757640000000  0.4812430000000  0.4147120000000 1.0
END
