TITL C-3578203-1966-278 -4.10950469855709e-07 125000 -541.029860355902 0 0 88 (C1) n - 1
REM
REM in /home/bkarasulu/work/CARBON/AIRSS/Generating-Clusters/EDIP-Nigel-Params/with-SteepDescent/Higher-Symm/SD-CG/HFTN-CG
REM
REM
REM
REM
REM
REM ./C.cell (12c818d87b63d06a65506943cc24bca4)
REM
REM compiler GCC version 9.2.1 20190827 (Red Hat 9.2.1-1)
REM options -cpp -mtune=generic -march=x86-64 -g -O0 -fpre-include=/usr/include/finclude/math-vector-fortran.h
REM seed -16428199 -1808060630 -64814160 -1366342981 1377754186 642602429 -621398537 -1933437698 1491791858 -1949642249 2072583244 -607578412 199061545 1334556309 1029731017 1670327041 -1724777474 -801529554 -1768304237 704850075 1325060756 -1011327659 -1714265317 1171835371 -2050434383 2021335656 -1237563097 -134482317 87503410 184317426 1481093667 1627050048 1369397701
REM
CELL 1.54180   50.00000   50.00000   50.00000   90.00000   90.00000   90.00000
LATT -1
SFAC C  
C      1  0.5184440000000  0.4942300000000  0.5434670000000 1.0
C      1  0.5423130000000  0.4811120000000  0.4445780000000 1.0
C      1  0.5738160000000  0.4590360000000  0.5508400000000 1.0
C      1  0.4871590000000  0.5534020000000  0.4752410000000 1.0
C      1  0.4794980000000  0.5376490000000  0.4263230000000 1.0
C      1  0.5458050000000  0.5561400000000  0.5037350000000 1.0
C      1  0.5453400000000  0.5416090000000  0.5606020000000 1.0
C      1  0.5072130000000  0.4143650000000  0.5140710000000 1.0
C      1  0.5013640000000  0.4471200000000  0.4315120000000 1.0
C      1  0.4197420000000  0.5144080000000  0.4915180000000 1.0
C      1  0.5081220000000  0.5374340000000  0.5175000000000 1.0
C      1  0.4408670000000  0.5058600000000  0.4305840000000 1.0
C      1  0.5097160000000  0.5755250000000  0.4772880000000 1.0
C      1  0.4735700000000  0.4709860000000  0.4560590000000 1.0
C      1  0.4266810000000  0.4752200000000  0.5302960000000 1.0
C      1  0.5804500000000  0.4860590000000  0.5514250000000 1.0
C      1  0.5857970000000  0.5257040000000  0.5004250000000 1.0
C      1  0.5278490000000  0.5705870000000  0.5219850000000 1.0
C      1  0.4364120000000  0.5599370000000  0.4842860000000 1.0
C      1  0.4835020000000  0.5524730000000  0.5047930000000 1.0
C      1  0.5242810000000  0.5158970000000  0.4174620000000 1.0
C      1  0.4567580000000  0.5520250000000  0.4391350000000 1.0
C      1  0.4865600000000  0.5163690000000  0.5289250000000 1.0
C      1  0.4746830000000  0.4428540000000  0.4448430000000 1.0
C      1  0.4393760000000  0.4798020000000  0.4438700000000 1.0
C      1  0.4613320000000  0.5662070000000  0.4651850000000 1.0
C      1  0.5495980000000  0.4372560000000  0.4998210000000 1.0
C      1  0.5532320000000  0.5218210000000  0.4710560000000 1.0
C      1  0.5338460000000  0.5171960000000  0.5709790000000 1.0
C      1  0.4804570000000  0.4950240000000  0.5082590000000 1.0
C      1  0.4636690000000  0.4388000000000  0.5178950000000 1.0
C      1  0.4346170000000  0.4772710000000  0.4726240000000 1.0
C      1  0.4829440000000  0.5814730000000  0.5128000000000 1.0
C      1  0.4549180000000  0.5670110000000  0.5347900000000 1.0
C      1  0.4914330000000  0.5165320000000  0.4637110000000 1.0
C      1  0.4267870000000  0.5025760000000  0.5377970000000 1.0
C      1  0.4426630000000  0.5280430000000  0.4515680000000 1.0
C      1  0.5135970000000  0.4191010000000  0.4679200000000 1.0
C      1  0.4591500000000  0.4619580000000  0.5615810000000 1.0
C      1  0.4573640000000  0.4344050000000  0.4899660000000 1.0
C      1  0.5751190000000  0.4806730000000  0.4776380000000 1.0
C      1  0.5090540000000  0.4532960000000  0.5103440000000 1.0
C      1  0.5330680000000  0.4707010000000  0.5692390000000 1.0
C      1  0.5280310000000  0.4884650000000  0.4206340000000 1.0
C      1  0.5377550000000  0.4556780000000  0.5197590000000 1.0
C      1  0.5236770000000  0.5593400000000  0.5510880000000 1.0
C      1  0.4257000000000  0.5246810000000  0.5177550000000 1.0
C      1  0.5457090000000  0.4537080000000  0.5487520000000 1.0
C      1  0.5795820000000  0.5344150000000  0.4745530000000 1.0
C      1  0.5686060000000  0.5411280000000  0.5450610000000 1.0
C      1  0.5280140000000  0.5161150000000  0.4992860000000 1.0
C      1  0.4692230000000  0.5100180000000  0.4202600000000 1.0
C      1  0.4904820000000  0.4958350000000  0.5781450000000 1.0
C      1  0.4463160000000  0.4558230000000  0.5358380000000 1.0
C      1  0.4208280000000  0.5368630000000  0.4710560000000 1.0
C      1  0.5626480000000  0.4523560000000  0.4761580000000 1.0
C      1  0.5667290000000  0.4875770000000  0.5254210000000 1.0
C      1  0.5061710000000  0.5210220000000  0.5762300000000 1.0
C      1  0.5387310000000  0.4996980000000  0.5224240000000 1.0
C      1  0.4448220000000  0.5108890000000  0.5591440000000 1.0
C      1  0.4870620000000  0.4926130000000  0.4374600000000 1.0
C      1  0.4912270000000  0.4271160000000  0.5560200000000 1.0
C      1  0.5170460000000  0.4464410000000  0.4578240000000 1.0
C      1  0.5026130000000  0.4742620000000  0.4185460000000 1.0
C      1  0.5271270000000  0.4165210000000  0.4932290000000 1.0
C      1  0.5620070000000  0.4972750000000  0.4571450000000 1.0
C      1  0.4878200000000  0.4560360000000  0.5575080000000 1.0
C      1  0.5094670000000  0.5882440000000  0.5050800000000 1.0
C      1  0.4477310000000  0.4989080000000  0.4896880000000 1.0
C      1  0.4370540000000  0.4511030000000  0.4815560000000 1.0
C      1  0.4611900000000  0.4899860000000  0.5723590000000 1.0
C      1  0.4993150000000  0.5447990000000  0.5600750000000 1.0
C      1  0.5034510000000  0.4993330000000  0.4863300000000 1.0
C      1  0.4955520000000  0.4728970000000  0.5299290000000 1.0
C      1  0.4765450000000  0.4261140000000  0.4689410000000 1.0
C      1  0.5355130000000  0.5621390000000  0.4760400000000 1.0
C      1  0.4621760000000  0.5172340000000  0.4710770000000 1.0
C      1  0.5052450000000  0.4697570000000  0.5780020000000 1.0
C      1  0.5034410000000  0.4662150000000  0.4806280000000 1.0
C      1  0.4706140000000  0.5541470000000  0.5595520000000 1.0
C      1  0.5844900000000  0.4952670000000  0.5028160000000 1.0
C      1  0.5160170000000  0.5362630000000  0.4345310000000 1.0
C      1  0.5679330000000  0.5419160000000  0.5170930000000 1.0
C      1  0.5363700000000  0.5412260000000  0.4555030000000 1.0
C      1  0.4402870000000  0.5505850000000  0.5129530000000 1.0
C      1  0.5450720000000  0.4535690000000  0.4524330000000 1.0
C      1  0.4618650000000  0.5291850000000  0.5429390000000 1.0
C      1  0.4845820000000  0.4220930000000  0.5292440000000 1.0
END
