TITL C-3577079-311-350 -2.54898724843268e-07 125000 -506.335265190515 0 0 82 (C1) n - 1
REM
REM in /home/bkarasulu/work/CARBON/AIRSS/Generating-Clusters/EDIP-Nigel-Params/with-SteepDescent/Higher-Symm/SD-CG/HFTN-CG
REM
REM
REM
REM
REM
REM ./C.cell (12c818d87b63d06a65506943cc24bca4)
REM
REM compiler GCC version 9.2.1 20190827 (Red Hat 9.2.1-1)
REM options -cpp -mtune=generic -march=x86-64 -g -O0 -fpre-include=/usr/include/finclude/math-vector-fortran.h
REM seed 463371536 -1977656258 56380135 1451734544 277250368 142232037 857729151 -436277625 423368921 -322865821 1703493147 933836110 -366682523 1179246779 2070665722 195868719 1208316483 144308622 -1567202000 1578640490 -963318096 990382881 1705254081 999258646 -967923476 -246337866 -687966149 1462203985 883402520 -629239962 -941950952 822975454 765353305
REM
CELL 1.54180   50.00000   50.00000   50.00000   90.00000   90.00000   90.00000
LATT -1
SFAC C  
C      1  0.5279550000000  0.5701540000000  0.5476450000000 1.0
C      1  0.5348980000000  0.5840620000000  0.4791070000000 1.0
C      1  0.5286270000000  0.5321040000000  0.4263250000000 1.0
C      1  0.5338460000000  0.4599660000000  0.4220280000000 1.0
C      1  0.5442420000000  0.4314450000000  0.4772230000000 1.0
C      1  0.5262260000000  0.4395810000000  0.5586370000000 1.0
C      1  0.5427790000000  0.4902390000000  0.5713370000000 1.0
C      1  0.5604570000000  0.5559400000000  0.5097570000000 1.0
C      1  0.5545340000000  0.5381710000000  0.4666990000000 1.0
C      1  0.5617850000000  0.4966720000000  0.4429580000000 1.0
C      1  0.5500290000000  0.4601760000000  0.4697140000000 1.0
C      1  0.5527140000000  0.4481590000000  0.5175040000000 1.0
C      1  0.5604580000000  0.4743920000000  0.5535510000000 1.0
C      1  0.5534920000000  0.5295740000000  0.5468550000000 1.0
C      1  0.5242670000000  0.4598540000000  0.5154380000000 1.0
C      1  0.5257290000000  0.4897460000000  0.5307600000000 1.0
C      1  0.5256470000000  0.5256670000000  0.5312390000000 1.0
C      1  0.5269230000000  0.5438170000000  0.5032740000000 1.0
C      1  0.5266750000000  0.5287680000000  0.4745940000000 1.0
C      1  0.5276840000000  0.4968670000000  0.4519070000000 1.0
C      1  0.5258520000000  0.4794680000000  0.4768400000000 1.0
C      1  0.5571090000000  0.5668280000000  0.4800610000000 1.0
C      1  0.5542820000000  0.5278260000000  0.4375550000000 1.0
C      1  0.5553350000000  0.4647380000000  0.4395230000000 1.0
C      1  0.5540940000000  0.4235610000000  0.5022730000000 1.0
C      1  0.5520680000000  0.4460960000000  0.5481440000000 1.0
C      1  0.5500590000000  0.5176650000000  0.5732560000000 1.0
C      1  0.5536700000000  0.5601140000000  0.5413200000000 1.0
C      1  0.5688470000000  0.4878470000000  0.5289170000000 1.0
C      1  0.5749350000000  0.5158880000000  0.5315620000000 1.0
C      1  0.5781610000000  0.5315210000000  0.5073340000000 1.0
C      1  0.5692730000000  0.5191830000000  0.4830210000000 1.0
C      1  0.5793100000000  0.4971080000000  0.4678280000000 1.0
C      1  0.5769380000000  0.4707370000000  0.4807580000000 1.0
C      1  0.5817500000000  0.4709940000000  0.5094640000000 1.0
C      1  0.4726090000000  0.5182250000000  0.4275850000000 1.0
C      1  0.4809530000000  0.4461320000000  0.4324070000000 1.0
C      1  0.4831510000000  0.4200250000000  0.4993450000000 1.0
C      1  0.4690050000000  0.4468520000000  0.5635640000000 1.0
C      1  0.4855090000000  0.5149340000000  0.5840200000000 1.0
C      1  0.4712460000000  0.5714700000000  0.5390040000000 1.0
C      1  0.4809040000000  0.5783030000000  0.4671320000000 1.0
C      1  0.4697090000000  0.4933510000000  0.4400270000000 1.0
C      1  0.4765090000000  0.4429110000000  0.4597390000000 1.0
C      1  0.4660140000000  0.4341710000000  0.5159070000000 1.0
C      1  0.4668420000000  0.4746270000000  0.5679980000000 1.0
C      1  0.4695050000000  0.5326210000000  0.5697320000000 1.0
C      1  0.4688580000000  0.5663100000000  0.5115280000000 1.0
C      1  0.4668320000000  0.5577770000000  0.4545440000000 1.0
C      1  0.4876460000000  0.4732890000000  0.4294990000000 1.0
C      1  0.4920340000000  0.4231410000000  0.4736920000000 1.0
C      1  0.4809620000000  0.4449690000000  0.5382640000000 1.0
C      1  0.4902610000000  0.4881190000000  0.5793230000000 1.0
C      1  0.4832260000000  0.5484050000000  0.5494880000000 1.0
C      1  0.4885510000000  0.5783370000000  0.4938600000000 1.0
C      1  0.4833630000000  0.5350040000000  0.4469720000000 1.0
C      1  0.4469980000000  0.4916180000000  0.5544630000000 1.0
C      1  0.4450390000000  0.5202410000000  0.5602200000000 1.0
C      1  0.4455670000000  0.5529980000000  0.4987270000000 1.0
C      1  0.4428530000000  0.5495530000000  0.4691880000000 1.0
C      1  0.4514760000000  0.4865530000000  0.4639230000000 1.0
C      1  0.4530290000000  0.4561800000000  0.4718040000000 1.0
C      1  0.4495990000000  0.4534130000000  0.5013340000000 1.0
C      1  0.4241400000000  0.5002760000000  0.4610950000000 1.0
C      1  0.4050190000000  0.4699380000000  0.4939340000000 1.0
C      1  0.4245640000000  0.4631710000000  0.5135100000000 1.0
C      1  0.4272390000000  0.4824240000000  0.5355080000000 1.0
C      1  0.4308940000000  0.5362770000000  0.5421770000000 1.0
C      1  0.4298530000000  0.5338710000000  0.5144060000000 1.0
C      1  0.4280500000000  0.5280660000000  0.4579430000000 1.0
C      1  0.5098910000000  0.4417140000000  0.5353690000000 1.0
C      1  0.5153850000000  0.4818060000000  0.5670590000000 1.0
C      1  0.5123340000000  0.5464900000000  0.5501990000000 1.0
C      1  0.5173120000000  0.5731070000000  0.4983940000000 1.0
C      1  0.5126470000000  0.5380850000000  0.4490260000000 1.0
C      1  0.5158420000000  0.4806940000000  0.4282750000000 1.0
C      1  0.5194590000000  0.4213510000000  0.4695530000000 1.0
C      1  0.4601100000000  0.5013640000000  0.4892030000000 1.0
C      1  0.4114880000000  0.4964090000000  0.4872530000000 1.0
C      1  0.4338630000000  0.5052290000000  0.5055080000000 1.0
C      1  0.4859610000000  0.4988930000000  0.4995090000000 1.0
C      1  0.5141280000000  0.4954710000000  0.5005230000000 1.0
END
