TITL C-3578202-4305-519 -2.71960825904515e-06 125000 -1034.39814853858 0 0 165 (C1) n - 1
REM
REM in /home/bkarasulu/work/CARBON/AIRSS/Generating-Clusters/EDIP-Nigel-Params/with-SteepDescent/Higher-Symm/SD-CG/HFTN-CG
REM
REM
REM
REM
REM
REM ./C.cell (12c818d87b63d06a65506943cc24bca4)
REM
REM compiler GCC version 9.2.1 20190827 (Red Hat 9.2.1-1)
REM options -cpp -mtune=generic -march=x86-64 -g -O0 -fpre-include=/usr/include/finclude/math-vector-fortran.h
REM seed 1292998963 -717345476 737556413 -743758979 652537117 -1292783520 -1594122687 614217973 -882203528 1667346753 -2006157890 -1687024073 183663634 275266439 941798864 -1957954115 -1809246992 10564095 -523887968 -1370249422 -854313054 1439215972 429627786 1555944997 975128965 583057534 -1970066091 -335284796 -811577687 -496651963 -1400701038 1019055093 -1565302177
REM
CELL 1.54180   50.00000   50.00000   50.00000   90.00000   90.00000   90.00000
LATT -1
SFAC C  
C      1  0.5454260000000  0.5250500000000  0.5732560000000 1.0
C      1  0.5586360000000  0.4353090000000  0.4378420000000 1.0
C      1  0.5016870000000  0.4702410000000  0.5281940000000 1.0
C      1  0.4797840000000  0.4859280000000  0.5463750000000 1.0
C      1  0.4709220000000  0.4284530000000  0.4553890000000 1.0
C      1  0.5164080000000  0.4070790000000  0.5669660000000 1.0
C      1  0.4339920000000  0.5600510000000  0.5156500000000 1.0
C      1  0.5314580000000  0.5593090000000  0.4390460000000 1.0
C      1  0.5986270000000  0.4666780000000  0.5372360000000 1.0
C      1  0.4491380000000  0.5592220000000  0.5635030000000 1.0
C      1  0.4899800000000  0.4035930000000  0.5260800000000 1.0
C      1  0.4514520000000  0.4956060000000  0.5116320000000 1.0
C      1  0.4698240000000  0.4320180000000  0.5598600000000 1.0
C      1  0.5276220000000  0.4735980000000  0.4488800000000 1.0
C      1  0.4764930000000  0.5574390000000  0.5721950000000 1.0
C      1  0.4484370000000  0.5446720000000  0.5371540000000 1.0
C      1  0.4889060000000  0.5527410000000  0.4768690000000 1.0
C      1  0.5107920000000  0.6054730000000  0.4975440000000 1.0
C      1  0.5981370000000  0.4621210000000  0.4396580000000 1.0
C      1  0.4181070000000  0.5212990000000  0.4320770000000 1.0
C      1  0.4435570000000  0.4581010000000  0.5844190000000 1.0
C      1  0.5066980000000  0.6015410000000  0.5498590000000 1.0
C      1  0.5766650000000  0.4880780000000  0.4204340000000 1.0
C      1  0.4267480000000  0.4386330000000  0.4745730000000 1.0
C      1  0.5143550000000  0.5161780000000  0.3914730000000 1.0
C      1  0.4526920000000  0.4305940000000  0.5835370000000 1.0
C      1  0.5945990000000  0.5241670000000  0.4956180000000 1.0
C      1  0.4985580000000  0.5032020000000  0.4887650000000 1.0
C      1  0.5291980000000  0.5285130000000  0.4340540000000 1.0
C      1  0.5624170000000  0.5660760000000  0.5756760000000 1.0
C      1  0.4836520000000  0.4616850000000  0.5666300000000 1.0
C      1  0.5863950000000  0.5011970000000  0.5722940000000 1.0
C      1  0.4289470000000  0.4947950000000  0.4238260000000 1.0
C      1  0.4655180000000  0.5415010000000  0.4605970000000 1.0
C      1  0.4439470000000  0.5612540000000  0.4485300000000 1.0
C      1  0.5151750000000  0.6029980000000  0.4499750000000 1.0
C      1  0.4916050000000  0.4102920000000  0.5546030000000 1.0
C      1  0.5378080000000  0.4118180000000  0.4793130000000 1.0
C      1  0.5508840000000  0.5714770000000  0.4587200000000 1.0
C      1  0.6084560000000  0.4395950000000  0.5351410000000 1.0
C      1  0.4037380000000  0.5270210000000  0.5019490000000 1.0
C      1  0.4952950000000  0.4739010000000  0.4854050000000 1.0
C      1  0.5903890000000  0.5069080000000  0.4726350000000 1.0
C      1  0.5332080000000  0.5047890000000  0.4830490000000 1.0
C      1  0.4190130000000  0.5920160000000  0.4828130000000 1.0
C      1  0.4538720000000  0.4026210000000  0.4921950000000 1.0
C      1  0.4217200000000  0.5648970000000  0.4697520000000 1.0
C      1  0.5034390000000  0.4944480000000  0.4109130000000 1.0
C      1  0.4328020000000  0.5190730000000  0.5445570000000 1.0
C      1  0.5805650000000  0.4803620000000  0.4830430000000 1.0
C      1  0.5089900000000  0.3894450000000  0.5078150000000 1.0
C      1  0.5238660000000  0.5532930000000  0.4951410000000 1.0
C      1  0.4713880000000  0.4515320000000  0.4090140000000 1.0
C      1  0.5741400000000  0.5190380000000  0.4519700000000 1.0
C      1  0.4267680000000  0.5443320000000  0.4916590000000 1.0
C      1  0.5755580000000  0.5426190000000  0.5360370000000 1.0
C      1  0.4789620000000  0.5537830000000  0.4039540000000 1.0
C      1  0.4684770000000  0.4741030000000  0.4474710000000 1.0
C      1  0.4455270000000  0.4527670000000  0.5199270000000 1.0
C      1  0.5620630000000  0.4239000000000  0.4641500000000 1.0
C      1  0.5814250000000  0.4401350000000  0.5071700000000 1.0
C      1  0.4836550000000  0.5297260000000  0.5792870000000 1.0
C      1  0.4335650000000  0.4846090000000  0.4884870000000 1.0
C      1  0.5528210000000  0.5623050000000  0.4888090000000 1.0
C      1  0.4761300000000  0.5385020000000  0.5211410000000 1.0
C      1  0.5267630000000  0.4747610000000  0.4183090000000 1.0
C      1  0.3916650000000  0.4722340000000  0.5099940000000 1.0
C      1  0.4619020000000  0.5844540000000  0.4417620000000 1.0
C      1  0.5482580000000  0.5477540000000  0.5890920000000 1.0
C      1  0.4546200000000  0.5394780000000  0.4048850000000 1.0
C      1  0.4952480000000  0.6086110000000  0.4712920000000 1.0
C      1  0.5504500000000  0.4901940000000  0.4072500000000 1.0
C      1  0.4995980000000  0.4359260000000  0.4584490000000 1.0
C      1  0.5675240000000  0.5178170000000  0.5534970000000 1.0
C      1  0.4545620000000  0.4805540000000  0.4702640000000 1.0
C      1  0.4840190000000  0.5716160000000  0.4265530000000 1.0
C      1  0.5093770000000  0.5763570000000  0.5094550000000 1.0
C      1  0.4676820000000  0.4762930000000  0.5881530000000 1.0
C      1  0.4912330000000  0.4753730000000  0.6075860000000 1.0
C      1  0.4575200000000  0.4480200000000  0.4371830000000 1.0
C      1  0.4954610000000  0.4448060000000  0.5115270000000 1.0
C      1  0.4062590000000  0.5188730000000  0.4586030000000 1.0
C      1  0.4626000000000  0.4071120000000  0.5183780000000 1.0
C      1  0.4704300000000  0.5992430000000  0.5254580000000 1.0
C      1  0.5944510000000  0.4193360000000  0.5229660000000 1.0
C      1  0.5166520000000  0.4347050000000  0.4864200000000 1.0
C      1  0.5102210000000  0.4554240000000  0.6011080000000 1.0
C      1  0.5455290000000  0.4770820000000  0.4757520000000 1.0
C      1  0.5221570000000  0.4463420000000  0.4070580000000 1.0
C      1  0.3805750000000  0.5169810000000  0.4874990000000 1.0
C      1  0.5475280000000  0.5157270000000  0.5091450000000 1.0
C      1  0.5673680000000  0.4618670000000  0.5644270000000 1.0
C      1  0.6032070000000  0.4812980000000  0.5610710000000 1.0
C      1  0.5851290000000  0.4343460000000  0.4783600000000 1.0
C      1  0.4252700000000  0.5223110000000  0.5723940000000 1.0
C      1  0.4310690000000  0.5477310000000  0.5824200000000 1.0
C      1  0.5348570000000  0.4571330000000  0.4947670000000 1.0
C      1  0.5120440000000  0.4154470000000  0.4380740000000 1.0
C      1  0.5933400000000  0.4826610000000  0.5121710000000 1.0
C      1  0.4821270000000  0.5624970000000  0.5040030000000 1.0
C      1  0.5698170000000  0.5374630000000  0.5058360000000 1.0
C      1  0.5398670000000  0.4993470000000  0.5873110000000 1.0
C      1  0.4276280000000  0.4484640000000  0.4456080000000 1.0
C      1  0.5408630000000  0.6085680000000  0.4907350000000 1.0
C      1  0.5576210000000  0.5880790000000  0.5042690000000 1.0
C      1  0.4065820000000  0.5028540000000  0.5799590000000 1.0
C      1  0.4140550000000  0.4748730000000  0.4414840000000 1.0
C      1  0.5000250000000  0.5403160000000  0.3914550000000 1.0
C      1  0.4994600000000  0.4662190000000  0.4565740000000 1.0
C      1  0.4489030000000  0.4914390000000  0.5410010000000 1.0
C      1  0.4755960000000  0.4815620000000  0.4041670000000 1.0
C      1  0.4455510000000  0.6093030000000  0.5137500000000 1.0
C      1  0.5425650000000  0.6005450000000  0.4618000000000 1.0
C      1  0.4507290000000  0.4283250000000  0.5354480000000 1.0
C      1  0.5399030000000  0.4186370000000  0.5572310000000 1.0
C      1  0.4963090000000  0.5114450000000  0.5585560000000 1.0
C      1  0.4954040000000  0.4355860000000  0.4087310000000 1.0
C      1  0.4704390000000  0.5159350000000  0.5007660000000 1.0
C      1  0.4897950000000  0.5239830000000  0.6057350000000 1.0
C      1  0.5011570000000  0.5284790000000  0.5340530000000 1.0
C      1  0.5570430000000  0.4986920000000  0.5322420000000 1.0
C      1  0.4236210000000  0.5878790000000  0.5137410000000 1.0
C      1  0.5206430000000  0.3951140000000  0.4609410000000 1.0
C      1  0.4303220000000  0.4672220000000  0.5584410000000 1.0
C      1  0.4598190000000  0.4949240000000  0.4268010000000 1.0
C      1  0.4040150000000  0.4810200000000  0.5614460000000 1.0
C      1  0.5789410000000  0.4495810000000  0.4240000000000 1.0
C      1  0.5508750000000  0.4699390000000  0.5396730000000 1.0
C      1  0.5347560000000  0.4443910000000  0.5971490000000 1.0
C      1  0.4451570000000  0.6096810000000  0.4819840000000 1.0
C      1  0.4728430000000  0.5232580000000  0.4349110000000 1.0
C      1  0.5157490000000  0.4858620000000  0.5726790000000 1.0
C      1  0.5229030000000  0.4694800000000  0.5484050000000 1.0
C      1  0.4095100000000  0.4904510000000  0.4673670000000 1.0
C      1  0.4349360000000  0.5446310000000  0.4250230000000 1.0
C      1  0.5528270000000  0.4478990000000  0.5170220000000 1.0
C      1  0.4073970000000  0.5159070000000  0.5284630000000 1.0
C      1  0.4227040000000  0.4579670000000  0.4990410000000 1.0
C      1  0.5362330000000  0.4260380000000  0.4228700000000 1.0
C      1  0.5962220000000  0.4594150000000  0.4683230000000 1.0
C      1  0.4676700000000  0.4501640000000  0.4989630000000 1.0
C      1  0.4507270000000  0.5276050000000  0.4812000000000 1.0
C      1  0.5222730000000  0.5800210000000  0.5373400000000 1.0
C      1  0.5450580000000  0.5174550000000  0.4569050000000 1.0
C      1  0.6055430000000  0.5080330000000  0.5156020000000 1.0
C      1  0.5855110000000  0.5147290000000  0.4264390000000 1.0
C      1  0.5516810000000  0.4383890000000  0.5757010000000 1.0
C      1  0.5363060000000  0.4013690000000  0.5083330000000 1.0
C      1  0.5405500000000  0.4229670000000  0.5280920000000 1.0
C      1  0.5022250000000  0.3843470000000  0.4802010000000 1.0
C      1  0.3935500000000  0.4906200000000  0.5342550000000 1.0
C      1  0.5319410000000  0.5029760000000  0.6151830000000 1.0
C      1  0.5038050000000  0.5013390000000  0.6137440000000 1.0
C      1  0.5015310000000  0.5142070000000  0.4342060000000 1.0
C      1  0.5695220000000  0.5686150000000  0.5487240000000 1.0
C      1  0.5512500000000  0.5867690000000  0.5335090000000 1.0
C      1  0.4551340000000  0.4286570000000  0.4800810000000 1.0
C      1  0.5406740000000  0.5185750000000  0.4059000000000 1.0
C      1  0.5658840000000  0.4840380000000  0.5852060000000 1.0
C      1  0.5250040000000  0.5327850000000  0.5170860000000 1.0
C      1  0.4682160000000  0.5977640000000  0.4673210000000 1.0
C      1  0.4784860000000  0.5908450000000  0.5540200000000 1.0
C      1  0.5113110000000  0.5796690000000  0.4321420000000 1.0
C      1  0.4958090000000  0.6163950000000  0.5231110000000 1.0
C      1  0.3837780000000  0.4868290000000  0.4846360000000 1.0
END
