TITL C-3578200-9634-280 -5.16721597048708e-07 125000 -326.647016119447 0 0 52 (C1) n - 1
REM
REM in /home/bkarasulu/work/CARBON/AIRSS/Generating-Clusters/EDIP-Nigel-Params/with-SteepDescent/Higher-Symm/SD-CG/HFTN-CG
REM
REM
REM
REM
REM
REM ./C.cell (12c818d87b63d06a65506943cc24bca4)
REM
REM compiler GCC version 9.2.1 20190827 (Red Hat 9.2.1-1)
REM options -cpp -mtune=generic -march=x86-64 -g -O0 -fpre-include=/usr/include/finclude/math-vector-fortran.h
REM seed 612827077 1102210713 1375300487 340405237 1777617545 -1764893550 1207255096 1768001422 -2145801915 -1665121766 1215882918 674317726 1604161404 -1269342048 934441173 173349829 -861642851 1215280244 -1679915258 -1566728068 1956872320 1255278671 -1823431302 -700719716 1153997227 1900009045 -1376745813 -1842464752 885679229 1132421180 -2060559442 1006599571 1525420061
REM
CELL 1.54180   50.00000   50.00000   50.00000   90.00000   90.00000   90.00000
LATT -1
SFAC C  
C      1  0.5366180000000  0.4804920000000  0.4495970000000 1.0
C      1  0.5361240000000  0.4734020000000  0.5377830000000 1.0
C      1  0.5295340000000  0.5481080000000  0.5026640000000 1.0
C      1  0.5216450000000  0.4500100000000  0.4994920000000 1.0
C      1  0.5119290000000  0.5208270000000  0.5378530000000 1.0
C      1  0.5227470000000  0.5251160000000  0.4541530000000 1.0
C      1  0.4683130000000  0.5776570000000  0.5081300000000 1.0
C      1  0.4845540000000  0.4669720000000  0.4376000000000 1.0
C      1  0.4735560000000  0.4561870000000  0.5655400000000 1.0
C      1  0.5265410000000  0.4379780000000  0.4731890000000 1.0
C      1  0.5257880000000  0.5093050000000  0.5616000000000 1.0
C      1  0.5284010000000  0.5534430000000  0.4587160000000 1.0
C      1  0.4810600000000  0.5154860000000  0.4283440000000 1.0
C      1  0.4796870000000  0.4305940000000  0.5245730000000 1.0
C      1  0.4763400000000  0.5558510000000  0.5510980000000 1.0
C      1  0.4658830000000  0.5281060000000  0.5132100000000 1.0
C      1  0.4681240000000  0.4980270000000  0.4737220000000 1.0
C      1  0.4703810000000  0.4791810000000  0.5203510000000 1.0
C      1  0.5095260000000  0.4370110000000  0.5238190000000 1.0
C      1  0.5050280000000  0.5503700000000  0.5430180000000 1.0
C      1  0.5117000000000  0.5151350000000  0.4281260000000 1.0
C      1  0.4611890000000  0.5549860000000  0.5250190000000 1.0
C      1  0.4723640000000  0.4923790000000  0.4453320000000 1.0
C      1  0.4660290000000  0.4546440000000  0.5372690000000 1.0
C      1  0.4694110000000  0.4274220000000  0.4985770000000 1.0
C      1  0.4669620000000  0.5356470000000  0.5685080000000 1.0
C      1  0.4705440000000  0.5392400000000  0.4392730000000 1.0
C      1  0.5014240000000  0.4575180000000  0.5699280000000 1.0
C      1  0.4957650000000  0.5840030000000  0.5070420000000 1.0
C      1  0.5026610000000  0.4676880000000  0.4157430000000 1.0
C      1  0.5427990000000  0.4542860000000  0.4573950000000 1.0
C      1  0.5473980000000  0.4927770000000  0.5548370000000 1.0
C      1  0.5449760000000  0.5572130000000  0.4810290000000 1.0
C      1  0.5382260000000  0.5035610000000  0.4671590000000 1.0
C      1  0.5385380000000  0.4725060000000  0.5086670000000 1.0
C      1  0.5308980000000  0.5217060000000  0.5140350000000 1.0
C      1  0.4671420000000  0.5247280000000  0.4844410000000 1.0
C      1  0.4678120000000  0.4756980000000  0.4915850000000 1.0
C      1  0.4761600000000  0.5065820000000  0.5317830000000 1.0
C      1  0.5087080000000  0.4998440000000  0.5814530000000 1.0
C      1  0.5068390000000  0.5713900000000  0.4575970000000 1.0
C      1  0.5047200000000  0.4264730000000  0.4591840000000 1.0
C      1  0.4670460000000  0.5089590000000  0.5601780000000 1.0
C      1  0.4670600000000  0.5470490000000  0.4658620000000 1.0
C      1  0.4676190000000  0.4486940000000  0.4804080000000 1.0
C      1  0.5219810000000  0.4868310000000  0.4248650000000 1.0
C      1  0.5190700000000  0.4522480000000  0.5475870000000 1.0
C      1  0.5149210000000  0.5664030000000  0.5197670000000 1.0
C      1  0.4824300000000  0.5714750000000  0.4728060000000 1.0
C      1  0.4827500000000  0.4442420000000  0.4558710000000 1.0
C      1  0.4818680000000  0.4905160000000  0.5783950000000 1.0
C      1  0.5351970000000  0.4989710000000  0.4961300000000 1.0
END
