TITL C-3577076-40-594 -4.18083174687891e-07 125000 -1143.11955726683 0 0 184 (C1) n - 1
REM
REM in /home/bkarasulu/work/CARBON/AIRSS/Generating-Clusters/EDIP-Nigel-Params/with-SteepDescent/Higher-Symm/SD-CG/HFTN-CG
REM
REM
REM
REM
REM
REM ./C.cell (12c818d87b63d06a65506943cc24bca4)
REM
REM compiler GCC version 9.2.1 20190827 (Red Hat 9.2.1-1)
REM options -cpp -mtune=generic -march=x86-64 -g -O0 -fpre-include=/usr/include/finclude/math-vector-fortran.h
REM seed -1279266442 9056847 1500430726 -441310247 1309060068 631334483 -163664666 1758438480 1797476878 282102933 -515269684 -781312431 1501674238 687407018 -1798207491 1119758585 -1380588914 1512303787 -1665091209 1382509283 -299134473 1174072463 90577614 -907240162 -239918981 1251742719 -1468786513 1143591042 1261839421 -1291306002 -1274428569 103946870 341850154
REM
CELL 1.54180   50.00000   50.00000   50.00000   90.00000   90.00000   90.00000
LATT -1
SFAC C  
C      1  0.5007270000000  0.5775290000000  0.3914420000000 1.0
C      1  0.5126360000000  0.4455890000000  0.4650540000000 1.0
C      1  0.4914450000000  0.5720270000000  0.5958860000000 1.0
C      1  0.5566640000000  0.4399150000000  0.5740610000000 1.0
C      1  0.5269310000000  0.6144650000000  0.5011070000000 1.0
C      1  0.4834010000000  0.6039470000000  0.5248940000000 1.0
C      1  0.5568590000000  0.5681150000000  0.4705660000000 1.0
C      1  0.5474840000000  0.4661750000000  0.4024360000000 1.0
C      1  0.4286540000000  0.5182420000000  0.4112670000000 1.0
C      1  0.5254310000000  0.4024530000000  0.5645020000000 1.0
C      1  0.4755160000000  0.4791810000000  0.4626040000000 1.0
C      1  0.5157920000000  0.5068930000000  0.4011120000000 1.0
C      1  0.4643600000000  0.4839860000000  0.5963990000000 1.0
C      1  0.4466740000000  0.5862760000000  0.4570230000000 1.0
C      1  0.4718100000000  0.5719990000000  0.4907850000000 1.0
C      1  0.4854940000000  0.5746350000000  0.5167440000000 1.0
C      1  0.5736070000000  0.5581780000000  0.4207180000000 1.0
C      1  0.5678200000000  0.4324510000000  0.4488520000000 1.0
C      1  0.5438550000000  0.5690750000000  0.5188960000000 1.0
C      1  0.4697180000000  0.4557890000000  0.5467770000000 1.0
C      1  0.4126170000000  0.5260840000000  0.5660190000000 1.0
C      1  0.4421370000000  0.5904820000000  0.5464160000000 1.0
C      1  0.5143680000000  0.3770500000000  0.5231720000000 1.0
C      1  0.4443350000000  0.4174870000000  0.4667050000000 1.0
C      1  0.4900520000000  0.4975060000000  0.6037040000000 1.0
C      1  0.3973040000000  0.4844930000000  0.5012080000000 1.0
C      1  0.4964640000000  0.3848250000000  0.4802410000000 1.0
C      1  0.5762080000000  0.4821030000000  0.5722920000000 1.0
C      1  0.4554070000000  0.4546100000000  0.5055200000000 1.0
C      1  0.3953790000000  0.4520320000000  0.5358230000000 1.0
C      1  0.4285230000000  0.5703810000000  0.5011250000000 1.0
C      1  0.3983410000000  0.5309120000000  0.5061340000000 1.0
C      1  0.4286460000000  0.5666300000000  0.4706800000000 1.0
C      1  0.4633500000000  0.5296950000000  0.4708900000000 1.0
C      1  0.5115510000000  0.5465460000000  0.4909760000000 1.0
C      1  0.4886900000000  0.5302900000000  0.5387740000000 1.0
C      1  0.4858570000000  0.5516200000000  0.4757620000000 1.0
C      1  0.5184360000000  0.5174480000000  0.4309050000000 1.0
C      1  0.5541910000000  0.4147620000000  0.4898290000000 1.0
C      1  0.4434800000000  0.4929130000000  0.5776070000000 1.0
C      1  0.4728030000000  0.3827740000000  0.5478910000000 1.0
C      1  0.5728760000000  0.5102830000000  0.5835650000000 1.0
C      1  0.5270140000000  0.4994660000000  0.5137480000000 1.0
C      1  0.4701700000000  0.4554160000000  0.6002000000000 1.0
C      1  0.4042740000000  0.4855180000000  0.4470920000000 1.0
C      1  0.4761100000000  0.5079340000000  0.5519900000000 1.0
C      1  0.4524150000000  0.5438680000000  0.5911170000000 1.0
C      1  0.4890570000000  0.4577560000000  0.4765820000000 1.0
C      1  0.4752260000000  0.5268920000000  0.4129820000000 1.0
C      1  0.4850180000000  0.3802310000000  0.5230410000000 1.0
C      1  0.5143810000000  0.5669110000000  0.5105250000000 1.0
C      1  0.4546690000000  0.4341110000000  0.5903950000000 1.0
C      1  0.4882430000000  0.4800790000000  0.5457640000000 1.0
C      1  0.4572880000000  0.4751200000000  0.3985190000000 1.0
C      1  0.5572680000000  0.4743790000000  0.4858750000000 1.0
C      1  0.5160360000000  0.5361800000000  0.5471070000000 1.0
C      1  0.4505280000000  0.4207110000000  0.5663590000000 1.0
C      1  0.4963370000000  0.5585140000000  0.4493960000000 1.0
C      1  0.5462100000000  0.5529170000000  0.5759870000000 1.0
C      1  0.4046220000000  0.5037310000000  0.5510180000000 1.0
C      1  0.5902900000000  0.5557310000000  0.5051250000000 1.0
C      1  0.3945370000000  0.4561430000000  0.5081320000000 1.0
C      1  0.5797830000000  0.5494570000000  0.4486040000000 1.0
C      1  0.5386480000000  0.4971030000000  0.4861350000000 1.0
C      1  0.5434900000000  0.5833850000000  0.5607890000000 1.0
C      1  0.4261870000000  0.4633520000000  0.4493360000000 1.0
C      1  0.4549230000000  0.4050690000000  0.4440430000000 1.0
C      1  0.4777060000000  0.3963050000000  0.4998080000000 1.0
C      1  0.5339180000000  0.4946500000000  0.4425530000000 1.0
C      1  0.4979600000000  0.4825840000000  0.4111670000000 1.0
C      1  0.3963670000000  0.5058810000000  0.5220940000000 1.0
C      1  0.5337710000000  0.4889320000000  0.5647540000000 1.0
C      1  0.5096410000000  0.6168370000000  0.5232800000000 1.0
C      1  0.4948300000000  0.5808470000000  0.5695670000000 1.0
C      1  0.5779880000000  0.4361270000000  0.5552680000000 1.0
C      1  0.5261490000000  0.4534570000000  0.5315320000000 1.0
C      1  0.4166210000000  0.5142240000000  0.4386980000000 1.0
C      1  0.4715470000000  0.5542930000000  0.5357810000000 1.0
C      1  0.4472090000000  0.5125240000000  0.5439980000000 1.0
C      1  0.4965790000000  0.5282790000000  0.3883780000000 1.0
C      1  0.5124490000000  0.5529560000000  0.3837720000000 1.0
C      1  0.5255760000000  0.4645840000000  0.4405750000000 1.0
C      1  0.5843610000000  0.4815880000000  0.4374390000000 1.0
C      1  0.5603300000000  0.4643160000000  0.5891490000000 1.0
C      1  0.4211680000000  0.4824280000000  0.5618830000000 1.0
C      1  0.5531310000000  0.4578510000000  0.4573010000000 1.0
C      1  0.5438640000000  0.4588650000000  0.5081580000000 1.0
C      1  0.5692790000000  0.5338280000000  0.5643300000000 1.0
C      1  0.4116320000000  0.5447990000000  0.4589770000000 1.0
C      1  0.5289960000000  0.5299070000000  0.5945660000000 1.0
C      1  0.4173710000000  0.4555360000000  0.5525110000000 1.0
C      1  0.5758910000000  0.4173470000000  0.5349010000000 1.0
C      1  0.5616850000000  0.5205250000000  0.5372710000000 1.0
C      1  0.4566420000000  0.5518930000000  0.4183200000000 1.0
C      1  0.6086350000000  0.4516930000000  0.5066060000000 1.0
C      1  0.4385470000000  0.5099750000000  0.4615960000000 1.0
C      1  0.4511550000000  0.4074080000000  0.4936480000000 1.0
C      1  0.4755450000000  0.4218180000000  0.4355360000000 1.0
C      1  0.5949270000000  0.5559670000000  0.5329880000000 1.0
C      1  0.5395660000000  0.3939400000000  0.4737910000000 1.0
C      1  0.5439570000000  0.4946970000000  0.3925540000000 1.0
C      1  0.4056550000000  0.5618720000000  0.5401500000000 1.0
C      1  0.4821350000000  0.4287190000000  0.5295320000000 1.0
C      1  0.5664220000000  0.5229830000000  0.4518290000000 1.0
C      1  0.4128100000000  0.4363140000000  0.4948220000000 1.0
C      1  0.5960250000000  0.4541420000000  0.4814380000000 1.0
C      1  0.5562570000000  0.4054000000000  0.5193830000000 1.0
C      1  0.4006600000000  0.5253730000000  0.4783240000000 1.0
C      1  0.4615230000000  0.5790350000000  0.4314110000000 1.0
C      1  0.5284250000000  0.4027510000000  0.5330410000000 1.0
C      1  0.4329210000000  0.5448380000000  0.5705860000000 1.0
C      1  0.5220590000000  0.5166860000000  0.5688470000000 1.0
C      1  0.5895230000000  0.4627420000000  0.5525100000000 1.0
C      1  0.5662950000000  0.5716550000000  0.4983660000000 1.0
C      1  0.5328620000000  0.4372360000000  0.4906690000000 1.0
C      1  0.4806290000000  0.5050000000000  0.5034080000000 1.0
C      1  0.4040320000000  0.5583710000000  0.5132570000000 1.0
C      1  0.5500660000000  0.5101860000000  0.6034520000000 1.0
C      1  0.4382370000000  0.4290240000000  0.5110390000000 1.0
C      1  0.5030220000000  0.4166260000000  0.4413340000000 1.0
C      1  0.4944600000000  0.6038420000000  0.4621000000000 1.0
C      1  0.4545770000000  0.5051960000000  0.4061650000000 1.0
C      1  0.5128270000000  0.4017340000000  0.4636740000000 1.0
C      1  0.5435080000000  0.5921640000000  0.4612320000000 1.0
C      1  0.4609320000000  0.6121580000000  0.5055370000000 1.0
C      1  0.4924760000000  0.4619160000000  0.3909410000000 1.0
C      1  0.5148760000000  0.4663490000000  0.5567690000000 1.0
C      1  0.5931390000000  0.5488590000000  0.5589910000000 1.0
C      1  0.5811540000000  0.4283870000000  0.4743480000000 1.0
C      1  0.4247370000000  0.5699600000000  0.5582310000000 1.0
C      1  0.5631710000000  0.5016580000000  0.4323490000000 1.0
C      1  0.4685850000000  0.5690330000000  0.5622270000000 1.0
C      1  0.4212830000000  0.4367570000000  0.4655340000000 1.0
C      1  0.5345530000000  0.5470620000000  0.4019230000000 1.0
C      1  0.5172090000000  0.5679110000000  0.5547440000000 1.0
C      1  0.5948340000000  0.4823160000000  0.4658990000000 1.0
C      1  0.5489660000000  0.5216780000000  0.4747340000000 1.0
C      1  0.5130610000000  0.4281940000000  0.5225620000000 1.0
C      1  0.4796080000000  0.5467620000000  0.5988740000000 1.0
C      1  0.5190900000000  0.3713010000000  0.4949250000000 1.0
C      1  0.4965070000000  0.4846300000000  0.5166300000000 1.0
C      1  0.4902790000000  0.5162880000000  0.4386020000000 1.0
C      1  0.5359180000000  0.5672420000000  0.4236680000000 1.0
C      1  0.5227670000000  0.5477040000000  0.4445630000000 1.0
C      1  0.4407660000000  0.5286920000000  0.4959900000000 1.0
C      1  0.4676800000000  0.5979100000000  0.4771070000000 1.0
C      1  0.5713560000000  0.4586950000000  0.4221360000000 1.0
C      1  0.5131420000000  0.4416280000000  0.5796700000000 1.0
C      1  0.4416110000000  0.4399510000000  0.5449590000000 1.0
C      1  0.4987770000000  0.5256240000000  0.6052660000000 1.0
C      1  0.5356590000000  0.5312900000000  0.5245760000000 1.0
C      1  0.4408430000000  0.4786350000000  0.4973480000000 1.0
C      1  0.4997010000000  0.4142600000000  0.5726590000000 1.0
C      1  0.4855150000000  0.5064950000000  0.4720980000000 1.0
C      1  0.5208320000000  0.4513350000000  0.4045880000000 1.0
C      1  0.4381560000000  0.5957760000000  0.5171830000000 1.0
C      1  0.5428150000000  0.4172010000000  0.5827920000000 1.0
C      1  0.5397950000000  0.4820980000000  0.6025150000000 1.0
C      1  0.4310750000000  0.5462260000000  0.4083380000000 1.0
C      1  0.4993770000000  0.4516830000000  0.6043930000000 1.0
C      1  0.4762530000000  0.4103300000000  0.5546460000000 1.0
C      1  0.5346520000000  0.5467220000000  0.4722010000000 1.0
C      1  0.5409240000000  0.5962100000000  0.5325120000000 1.0
C      1  0.5119400000000  0.5858690000000  0.4159570000000 1.0
C      1  0.5214470000000  0.6033690000000  0.4749430000000 1.0
C      1  0.5848330000000  0.5139020000000  0.5194370000000 1.0
C      1  0.4825840000000  0.4728180000000  0.4350310000000 1.0
C      1  0.6008510000000  0.4698080000000  0.5262700000000 1.0
C      1  0.4517470000000  0.5040150000000  0.5108520000000 1.0
C      1  0.4423640000000  0.5438630000000  0.5275760000000 1.0
C      1  0.3959680000000  0.4965470000000  0.4739900000000 1.0
C      1  0.5625840000000  0.5409900000000  0.3992270000000 1.0
C      1  0.5492580000000  0.4911340000000  0.5379470000000 1.0
C      1  0.4686240000000  0.4488620000000  0.4243530000000 1.0
C      1  0.6074190000000  0.5379380000000  0.4551610000000 1.0
C      1  0.5789290000000  0.4853750000000  0.5157930000000 1.0
C      1  0.5105580000000  0.4777870000000  0.6107590000000 1.0
C      1  0.5878600000000  0.5279090000000  0.4951190000000 1.0
C      1  0.4452220000000  0.4809950000000  0.4674420000000 1.0
C      1  0.6039980000000  0.5147610000000  0.4734250000000 1.0
C      1  0.4394180000000  0.4569840000000  0.4217760000000 1.0
C      1  0.4862900000000  0.4575500000000  0.5048260000000 1.0
C      1  0.4912370000000  0.5846870000000  0.4383230000000 1.0
C      1  0.5662580000000  0.5113380000000  0.4032210000000 1.0
END
