TITL C-3578204-4308-455 -1.24372869845081e-06 125000 -786.850363489914 0 0 128 (C1) n - 1
REM
REM in /home/bkarasulu/work/CARBON/AIRSS/Generating-Clusters/EDIP-Nigel-Params/with-SteepDescent/Higher-Symm/SD-CG/HFTN-CG
REM
REM
REM
REM
REM
REM ./C.cell (12c818d87b63d06a65506943cc24bca4)
REM
REM compiler GCC version 9.2.1 20190827 (Red Hat 9.2.1-1)
REM options -cpp -mtune=generic -march=x86-64 -g -O0 -fpre-include=/usr/include/finclude/math-vector-fortran.h
REM seed -207253174 120238830 586819882 -1392521605 -507493842 262210716 -423048338 817358480 -779306467 -1156091208 1478417831 -552925654 -1574232957 415320646 344268240 1059685538 566197941 -344396518 291773809 1525084065 -1230855712 576886913 -787157751 -1776638213 1716320977 -1444677562 1998485969 1552993147 -1800292752 818432287 -630927208 -394047023 341149532
REM
CELL 1.54180   50.00000   50.00000   50.00000   90.00000   90.00000   90.00000
LATT -1
SFAC C  
C      1  0.5132780000000  0.5336080000000  0.5489700000000 1.0
C      1  0.5342320000000  0.5567250000000  0.4806770000000 1.0
C      1  0.5351490000000  0.4902730000000  0.4283840000000 1.0
C      1  0.5520190000000  0.4186140000000  0.4914400000000 1.0
C      1  0.5329070000000  0.4767300000000  0.5569110000000 1.0
C      1  0.4627980000000  0.5320290000000  0.4524880000000 1.0
C      1  0.4463550000000  0.5700710000000  0.5351340000000 1.0
C      1  0.4888400000000  0.4990310000000  0.5619150000000 1.0
C      1  0.4724070000000  0.4489890000000  0.5149740000000 1.0
C      1  0.4544950000000  0.4662870000000  0.4253730000000 1.0
C      1  0.5288720000000  0.5373430000000  0.4191020000000 1.0
C      1  0.5353200000000  0.4282270000000  0.4462770000000 1.0
C      1  0.5319480000000  0.4212810000000  0.5448970000000 1.0
C      1  0.5322770000000  0.5106770000000  0.5891100000000 1.0
C      1  0.5204080000000  0.5754690000000  0.5206020000000 1.0
C      1  0.4734190000000  0.5433400000000  0.5791580000000 1.0
C      1  0.4739830000000  0.4427760000000  0.5589450000000 1.0
C      1  0.4722010000000  0.4270340000000  0.4601240000000 1.0
C      1  0.4597680000000  0.5264540000000  0.4067980000000 1.0
C      1  0.4682160000000  0.5788110000000  0.4978580000000 1.0
C      1  0.4179620000000  0.5791970000000  0.5114200000000 1.0
C      1  0.4327090000000  0.5228240000000  0.4466090000000 1.0
C      1  0.4268790000000  0.4610460000000  0.4377040000000 1.0
C      1  0.4311750000000  0.4486880000000  0.5298940000000 1.0
C      1  0.4323530000000  0.5247030000000  0.5511380000000 1.0
C      1  0.5598750000000  0.5595490000000  0.4949160000000 1.0
C      1  0.5625270000000  0.5410690000000  0.5640530000000 1.0
C      1  0.5742660000000  0.4500070000000  0.5386650000000 1.0
C      1  0.5789780000000  0.4495530000000  0.4681690000000 1.0
C      1  0.5716640000000  0.5179240000000  0.4413450000000 1.0
C      1  0.4680600000000  0.5486060000000  0.5300610000000 1.0
C      1  0.4651920000000  0.5346500000000  0.4820210000000 1.0
C      1  0.4718800000000  0.4858270000000  0.4440630000000 1.0
C      1  0.4787590000000  0.4619390000000  0.4897390000000 1.0
C      1  0.4838760000000  0.4875200000000  0.5350450000000 1.0
C      1  0.5304410000000  0.5310400000000  0.4670410000000 1.0
C      1  0.5184280000000  0.5235090000000  0.5208640000000 1.0
C      1  0.5035620000000  0.4979340000000  0.5156970000000 1.0
C      1  0.5401680000000  0.4440990000000  0.5017790000000 1.0
C      1  0.5402100000000  0.4748990000000  0.4516940000000 1.0
C      1  0.5789880000000  0.4782310000000  0.5439790000000 1.0
C      1  0.5762750000000  0.5433470000000  0.5371850000000 1.0
C      1  0.5766610000000  0.5418300000000  0.4784320000000 1.0
C      1  0.5875620000000  0.4937000000000  0.4496720000000 1.0
C      1  0.5944830000000  0.4511030000000  0.4925790000000 1.0
C      1  0.4138220000000  0.4832580000000  0.4506390000000 1.0
C      1  0.4183310000000  0.5389380000000  0.4671120000000 1.0
C      1  0.4124950000000  0.5540870000000  0.5247820000000 1.0
C      1  0.4252740000000  0.4970530000000  0.5460940000000 1.0
C      1  0.4311640000000  0.4627690000000  0.5052500000000 1.0
C      1  0.6028290000000  0.4787810000000  0.4986650000000 1.0
C      1  0.5963060000000  0.4916900000000  0.5248260000000 1.0
C      1  0.5914120000000  0.5206300000000  0.5208640000000 1.0
C      1  0.5970780000000  0.5259180000000  0.4922710000000 1.0
C      1  0.6024400000000  0.4998430000000  0.4772410000000 1.0
C      1  0.4090710000000  0.4807760000000  0.5022960000000 1.0
C      1  0.4079680000000  0.4944350000000  0.4766630000000 1.0
C      1  0.4007020000000  0.5223870000000  0.4826930000000 1.0
C      1  0.4042040000000  0.5277070000000  0.5121540000000 1.0
C      1  0.4064870000000  0.5003850000000  0.5242770000000 1.0
C      1  0.4467080000000  0.4432240000000  0.5515800000000 1.0
C      1  0.4479750000000  0.5320010000000  0.5735520000000 1.0
C      1  0.4391880000000  0.5755820000000  0.4920820000000 1.0
C      1  0.4354940000000  0.5377340000000  0.4188880000000 1.0
C      1  0.4460500000000  0.4441340000000  0.4570480000000 1.0
C      1  0.5613300000000  0.4250580000000  0.4641540000000 1.0
C      1  0.5498480000000  0.5144950000000  0.4206510000000 1.0
C      1  0.5521390000000  0.5524250000000  0.5221200000000 1.0
C      1  0.5577310000000  0.5132940000000  0.5726590000000 1.0
C      1  0.5562580000000  0.4348390000000  0.5564260000000 1.0
C      1  0.5617910000000  0.4647600000000  0.5059690000000 1.0
C      1  0.5546220000000  0.4955200000000  0.5484810000000 1.0
C      1  0.5482100000000  0.5137470000000  0.5217090000000 1.0
C      1  0.5581930000000  0.5202680000000  0.4690440000000 1.0
C      1  0.5666390000000  0.4766540000000  0.4648510000000 1.0
C      1  0.4494480000000  0.4636330000000  0.4799200000000 1.0
C      1  0.4508600000000  0.4913150000000  0.4671030000000 1.0
C      1  0.4374890000000  0.5457040000000  0.4899210000000 1.0
C      1  0.4467620000000  0.5278920000000  0.5237460000000 1.0
C      1  0.4549740000000  0.4963030000000  0.5214040000000 1.0
C      1  0.5194340000000  0.4454380000000  0.5898210000000 1.0
C      1  0.5260500000000  0.5599540000000  0.5887760000000 1.0
C      1  0.5098170000000  0.5924390000000  0.4714100000000 1.0
C      1  0.5016930000000  0.5028690000000  0.3983560000000 1.0
C      1  0.5138770000000  0.3985810000000  0.4805390000000 1.0
C      1  0.4883840000000  0.4383360000000  0.4176220000000 1.0
C      1  0.4768400000000  0.5657970000000  0.4278910000000 1.0
C      1  0.4816150000000  0.5994450000000  0.5398500000000 1.0
C      1  0.4821090000000  0.4999290000000  0.6052850000000 1.0
C      1  0.4832830000000  0.4081790000000  0.5279800000000 1.0
C      1  0.5143200000000  0.4898290000000  0.5760280000000 1.0
C      1  0.5120470000000  0.5517760000000  0.5019010000000 1.0
C      1  0.5110020000000  0.5345500000000  0.4442020000000 1.0
C      1  0.5194310000000  0.4528890000000  0.4537120000000 1.0
C      1  0.5189630000000  0.4379660000000  0.5226950000000 1.0
C      1  0.4818530000000  0.5144000000000  0.4351540000000 1.0
C      1  0.4855690000000  0.5573970000000  0.4846120000000 1.0
C      1  0.4885250000000  0.5503880000000  0.5523660000000 1.0
C      1  0.4899690000000  0.4561580000000  0.5365290000000 1.0
C      1  0.4938590000000  0.4407820000000  0.4756250000000 1.0
C      1  0.4888520000000  0.5290380000000  0.6015260000000 1.0
C      1  0.4822130000000  0.6025330000000  0.5096600000000 1.0
C      1  0.4810920000000  0.5462040000000  0.4047840000000 1.0
C      1  0.4870120000000  0.4155720000000  0.4375610000000 1.0
C      1  0.4855120000000  0.4156560000000  0.5564040000000 1.0
C      1  0.5066010000000  0.5309030000000  0.4002110000000 1.0
C      1  0.5100020000000  0.5977390000000  0.5003840000000 1.0
C      1  0.5183170000000  0.5348720000000  0.5999560000000 1.0
C      1  0.5128390000000  0.4171850000000  0.5667210000000 1.0
C      1  0.5147630000000  0.4062010000000  0.4501300000000 1.0
C      1  0.5129020000000  0.4818410000000  0.4130710000000 1.0
C      1  0.5387000000000  0.3936530000000  0.4917590000000 1.0
C      1  0.5420940000000  0.4544360000000  0.5732530000000 1.0
C      1  0.5341330000000  0.5523250000000  0.5623900000000 1.0
C      1  0.5331470000000  0.5804400000000  0.4627550000000 1.0
C      1  0.4682890000000  0.4933880000000  0.5813590000000 1.0
C      1  0.4628990000000  0.4217610000000  0.5141580000000 1.0
C      1  0.4640750000000  0.4462230000000  0.4068220000000 1.0
C      1  0.4482860000000  0.5615570000000  0.4323350000000 1.0
C      1  0.4557650000000  0.5930880000000  0.5495630000000 1.0
C      1  0.5018720000000  0.5778300000000  0.5457710000000 1.0
C      1  0.4958330000000  0.5618160000000  0.4520730000000 1.0
C      1  0.5030210000000  0.4208900000000  0.4978160000000 1.0
C      1  0.4998250000000  0.4618510000000  0.4311080000000 1.0
C      1  0.5049870000000  0.4702380000000  0.5967480000000 1.0
C      1  0.5629780000000  0.4978860000000  0.4964770000000 1.0
C      1  0.4658820000000  0.5050310000000  0.4906340000000 1.0
C      1  0.4924890000000  0.4909210000000  0.4900280000000 1.0
END
