TITL C-3577088-510-672 -1.66500363495756e-06 125000 -602.669652653138 0 0 98 (C1) n - 1
REM
REM in /home/bkarasulu/work/CARBON/AIRSS/Generating-Clusters/EDIP-Nigel-Params/with-SteepDescent/Higher-Symm/SD-CG/HFTN-CG
REM
REM
REM
REM
REM
REM ./C.cell (12c818d87b63d06a65506943cc24bca4)
REM
REM compiler GCC version 9.2.1 20190827 (Red Hat 9.2.1-1)
REM options -cpp -mtune=generic -march=x86-64 -g -O0 -fpre-include=/usr/include/finclude/math-vector-fortran.h
REM seed 1993109280 -130438325 1194432154 592202561 61570494 -261163967 -441145961 133051268 1154268462 784916033 -2005489243 1506683983 -1115805528 -1257073935 -247764241 -255084434 128079567 -198768469 -1606849808 2041317999 -224180868 814948745 1292905854 -333954169 587137242 -404170623 4424424 -1275477190 -1714251376 1801093136 171094952 855289292 -1986110325
REM
CELL 1.54180   50.00000   50.00000   50.00000   90.00000   90.00000   90.00000
LATT -1
SFAC C  
C      1  0.5534160000000  0.5358980000000  0.5436320000000 1.0
C      1  0.5621810000000  0.5330900000000  0.4563490000000 1.0
C      1  0.4791420000000  0.5324460000000  0.4261470000000 1.0
C      1  0.4324010000000  0.5387140000000  0.4960380000000 1.0
C      1  0.4688570000000  0.5206500000000  0.5678320000000 1.0
C      1  0.5532870000000  0.4724120000000  0.5580570000000 1.0
C      1  0.5689140000000  0.4727570000000  0.4672940000000 1.0
C      1  0.4891590000000  0.4747030000000  0.4220050000000 1.0
C      1  0.4292060000000  0.4760610000000  0.4894730000000 1.0
C      1  0.4664330000000  0.4564020000000  0.5791590000000 1.0
C      1  0.4658120000000  0.4289170000000  0.5718360000000 1.0
C      1  0.5378820000000  0.4466970000000  0.5579790000000 1.0
C      1  0.5630190000000  0.4458270000000  0.4843530000000 1.0
C      1  0.5044600000000  0.4441700000000  0.4336320000000 1.0
C      1  0.4254250000000  0.4464870000000  0.4868350000000 1.0
C      1  0.4625880000000  0.5522280000000  0.5628990000000 1.0
C      1  0.5550480000000  0.5644560000000  0.5379930000000 1.0
C      1  0.5543890000000  0.5621270000000  0.4556450000000 1.0
C      1  0.4765570000000  0.5616820000000  0.4310960000000 1.0
C      1  0.4304800000000  0.5683500000000  0.4961590000000 1.0
C      1  0.5276510000000  0.5385710000000  0.4251470000000 1.0
C      1  0.4371730000000  0.5406120000000  0.4477400000000 1.0
C      1  0.4425280000000  0.5549130000000  0.5400100000000 1.0
C      1  0.5122290000000  0.5389080000000  0.5748180000000 1.0
C      1  0.5776330000000  0.5399440000000  0.5043040000000 1.0
C      1  0.5333880000000  0.4456890000000  0.4446590000000 1.0
C      1  0.4571680000000  0.4467090000000  0.4434410000000 1.0
C      1  0.4335460000000  0.4574880000000  0.5342620000000 1.0
C      1  0.5105500000000  0.4442240000000  0.5696310000000 1.0
C      1  0.5630160000000  0.4475380000000  0.5151300000000 1.0
C      1  0.5503100000000  0.5202810000000  0.4306060000000 1.0
C      1  0.4502740000000  0.5210990000000  0.4294440000000 1.0
C      1  0.4295630000000  0.5314780000000  0.5257320000000 1.0
C      1  0.4935130000000  0.5179430000000  0.5871630000000 1.0
C      1  0.5789880000000  0.5222840000000  0.5291710000000 1.0
C      1  0.5535550000000  0.4672870000000  0.4361890000000 1.0
C      1  0.4587790000000  0.4710000000000  0.4290100000000 1.0
C      1  0.4215800000000  0.4812820000000  0.5204900000000 1.0
C      1  0.4951790000000  0.4654920000000  0.5831390000000 1.0
C      1  0.5673060000000  0.4724150000000  0.5306860000000 1.0
C      1  0.4695530000000  0.5139320000000  0.5179820000000 1.0
C      1  0.5112870000000  0.5109060000000  0.5404080000000 1.0
C      1  0.5446360000000  0.5185080000000  0.5027170000000 1.0
C      1  0.5156010000000  0.5203760000000  0.4633090000000 1.0
C      1  0.4687780000000  0.5193560000000  0.4696010000000 1.0
C      1  0.4653560000000  0.4832250000000  0.5187510000000 1.0
C      1  0.5130460000000  0.4817300000000  0.5462630000000 1.0
C      1  0.5378770000000  0.4883730000000  0.5023790000000 1.0
C      1  0.5217770000000  0.4921460000000  0.4552510000000 1.0
C      1  0.4769230000000  0.4908240000000  0.4733350000000 1.0
C      1  0.4627550000000  0.5333860000000  0.4943840000000 1.0
C      1  0.4854570000000  0.5236360000000  0.5408160000000 1.0
C      1  0.5294690000000  0.5294740000000  0.5258890000000 1.0
C      1  0.5381390000000  0.5338320000000  0.4769310000000 1.0
C      1  0.4890790000000  0.5339960000000  0.4556550000000 1.0
C      1  0.4587650000000  0.4750260000000  0.4908960000000 1.0
C      1  0.4852070000000  0.4657030000000  0.5402690000000 1.0
C      1  0.5245220000000  0.4675010000000  0.5217960000000 1.0
C      1  0.5387690000000  0.4772990000000  0.4755810000000 1.0
C      1  0.4959470000000  0.4778100000000  0.4525600000000 1.0
C      1  0.4903980000000  0.4258240000000  0.5579850000000 1.0
C      1  0.5417010000000  0.4334090000000  0.5309260000000 1.0
C      1  0.5381450000000  0.4337790000000  0.4714460000000 1.0
C      1  0.4817250000000  0.4358880000000  0.4522510000000 1.0
C      1  0.4416370000000  0.4388470000000  0.5103630000000 1.0
C      1  0.4941940000000  0.5591360000000  0.5551430000000 1.0
C      1  0.5498150000000  0.5650640000000  0.5099690000000 1.0
C      1  0.5260760000000  0.5659890000000  0.4497260000000 1.0
C      1  0.4618230000000  0.5677830000000  0.4553350000000 1.0
C      1  0.4490900000000  0.5737720000000  0.5176420000000 1.0
C      1  0.5099520000000  0.5675300000000  0.4750680000000 1.0
C      1  0.4809090000000  0.5703810000000  0.4782930000000 1.0
C      1  0.4768590000000  0.5712120000000  0.5076700000000 1.0
C      1  0.4998650000000  0.5622020000000  0.5241890000000 1.0
C      1  0.5211340000000  0.5651040000000  0.5026800000000 1.0
C      1  0.5148130000000  0.4277840000000  0.4881520000000 1.0
C      1  0.4869170000000  0.4302220000000  0.4807040000000 1.0
C      1  0.4702240000000  0.4280690000000  0.5062510000000 1.0
C      1  0.4907150000000  0.4243350000000  0.5283370000000 1.0
C      1  0.5172350000000  0.4242580000000  0.5163750000000 1.0
C      1  0.4251820000000  0.4959620000000  0.4641260000000 1.0
C      1  0.4507030000000  0.4708670000000  0.5579850000000 1.0
C      1  0.5366140000000  0.4964080000000  0.5739610000000 1.0
C      1  0.5817110000000  0.4955160000000  0.4862700000000 1.0
C      1  0.5112210000000  0.4945670000000  0.4108550000000 1.0
C      1  0.4220000000000  0.5260580000000  0.4692300000000 1.0
C      1  0.4457870000000  0.5002150000000  0.5616730000000 1.0
C      1  0.5401510000000  0.5268510000000  0.5699470000000 1.0
C      1  0.5815750000000  0.5240170000000  0.4786610000000 1.0
C      1  0.5050720000000  0.5239520000000  0.4122220000000 1.0
C      1  0.5089050000000  0.4920340000000  0.5886170000000 1.0
C      1  0.5368040000000  0.4928900000000  0.4290670000000 1.0
C      1  0.4457960000000  0.4944010000000  0.4415310000000 1.0
C      1  0.4309620000000  0.5046320000000  0.5364260000000 1.0
C      1  0.5789260000000  0.4950880000000  0.5164330000000 1.0
C      1  0.5014750000000  0.5254970000000  0.4996130000000 1.0
C      1  0.4970140000000  0.4627180000000  0.5081290000000 1.0
C      1  0.5000360000000  0.4929280000000  0.4940670000000 1.0
END
