TITL C-3578204-4308-574 -1.18471616995721e-06 125000 -1177.92475345475 0 0 184 (C1) n - 1
REM
REM in /home/bkarasulu/work/CARBON/AIRSS/Generating-Clusters/EDIP-Nigel-Params/with-SteepDescent/Higher-Symm/SD-CG/HFTN-CG
REM
REM
REM
REM
REM
REM ./C.cell (12c818d87b63d06a65506943cc24bca4)
REM
REM compiler GCC version 9.2.1 20190827 (Red Hat 9.2.1-1)
REM options -cpp -mtune=generic -march=x86-64 -g -O0 -fpre-include=/usr/include/finclude/math-vector-fortran.h
REM seed 1995391248 1776682199 -859909968 -1773717850 1434977808 1828683776 -1920764597 1227000061 -756097207 1620145436 -1351048765 516011672 -408352583 796141751 -51491570 967104060 -638765224 677716009 -155881000 -1427673861 -1256218718 1427891694 691145509 -480891832 -898915632 -747245738 1415126325 117019813 529598914 -1910942825 932215980 1382795351 649827375
REM
CELL 1.54180   50.00000   50.00000   50.00000   90.00000   90.00000   90.00000
LATT -1
SFAC C  
C      1  0.4122410000000  0.5457540000000  0.4451810000000 1.0
C      1  0.5486680000000  0.4380470000000  0.4121730000000 1.0
C      1  0.4568250000000  0.4298120000000  0.5378150000000 1.0
C      1  0.5843260000000  0.4545250000000  0.4424330000000 1.0
C      1  0.4197750000000  0.4529820000000  0.5542670000000 1.0
C      1  0.5852210000000  0.5456060000000  0.5581080000000 1.0
C      1  0.4604280000000  0.5425600000000  0.4366280000000 1.0
C      1  0.5453700000000  0.5583440000000  0.5844270000000 1.0
C      1  0.4538540000000  0.4424260000000  0.5857750000000 1.0
C      1  0.5593120000000  0.5844380000000  0.5452480000000 1.0
C      1  0.4420890000000  0.5812700000000  0.4586850000000 1.0
C      1  0.5606870000000  0.4154200000000  0.4523410000000 1.0
C      1  0.4943070000000  0.6107550000000  0.4864640000000 1.0
C      1  0.6103950000000  0.4857110000000  0.4897930000000 1.0
C      1  0.4821090000000  0.4936340000000  0.6093230000000 1.0
C      1  0.5105690000000  0.3905030000000  0.4798310000000 1.0
C      1  0.4981010000000  0.3948560000000  0.5052380000000 1.0
C      1  0.5075870000000  0.6126440000000  0.5119800000000 1.0
C      1  0.3859480000000  0.5098420000000  0.4975470000000 1.0
C      1  0.6168460000000  0.5129640000000  0.5007350000000 1.0
C      1  0.3880230000000  0.4823900000000  0.5080310000000 1.0
C      1  0.5090740000000  0.5055960000000  0.6116550000000 1.0
C      1  0.4853290000000  0.5002040000000  0.3908860000000 1.0
C      1  0.5127440000000  0.4899180000000  0.3893440000000 1.0
C      1  0.4789180000000  0.4172070000000  0.4960100000000 1.0
C      1  0.4064690000000  0.5077120000000  0.4746890000000 1.0
C      1  0.5125170000000  0.4682290000000  0.4106350000000 1.0
C      1  0.5278210000000  0.5898100000000  0.5076340000000 1.0
C      1  0.4735200000000  0.5888460000000  0.4929260000000 1.0
C      1  0.5278490000000  0.4168800000000  0.4811160000000 1.0
C      1  0.5852000000000  0.4896620000000  0.4743920000000 1.0
C      1  0.4124290000000  0.4875430000000  0.5260940000000 1.0
C      1  0.5993430000000  0.5088980000000  0.5266180000000 1.0
C      1  0.4970000000000  0.5140560000000  0.4225450000000 1.0
C      1  0.5071520000000  0.5280180000000  0.5920240000000 1.0
C      1  0.4865400000000  0.4781860000000  0.5840480000000 1.0
C      1  0.4744670000000  0.5643600000000  0.5945590000000 1.0
C      1  0.5639050000000  0.5948540000000  0.4741670000000 1.0
C      1  0.5946900000000  0.4742510000000  0.5616840000000 1.0
C      1  0.5231070000000  0.4448330000000  0.5760960000000 1.0
C      1  0.4786800000000  0.4328970000000  0.4182080000000 1.0
C      1  0.5265870000000  0.5537300000000  0.4165590000000 1.0
C      1  0.4378980000000  0.4027410000000  0.4734450000000 1.0
C      1  0.5608660000000  0.4217690000000  0.5210690000000 1.0
C      1  0.4391740000000  0.5951940000000  0.5283930000000 1.0
C      1  0.4099420000000  0.5175700000000  0.5650280000000 1.0
C      1  0.5729890000000  0.5231310000000  0.4411400000000 1.0
C      1  0.3999770000000  0.4747010000000  0.4353040000000 1.0
C      1  0.5908040000000  0.5732910000000  0.5121500000000 1.0
C      1  0.5718820000000  0.5129490000000  0.5888800000000 1.0
C      1  0.5140270000000  0.5909210000000  0.5732780000000 1.0
C      1  0.4161410000000  0.4282610000000  0.5111160000000 1.0
C      1  0.5897830000000  0.4270540000000  0.4875990000000 1.0
C      1  0.4079580000000  0.5726890000000  0.4913280000000 1.0
C      1  0.4236960000000  0.4838720000000  0.5906730000000 1.0
C      1  0.5750230000000  0.4843070000000  0.4064040000000 1.0
C      1  0.4269670000000  0.5091560000000  0.4169500000000 1.0
C      1  0.4880320000000  0.4106400000000  0.5728010000000 1.0
C      1  0.5179840000000  0.4021620000000  0.4226790000000 1.0
C      1  0.4870110000000  0.5822150000000  0.4341500000000 1.0
C      1  0.3997220000000  0.5032610000000  0.4264070000000 1.0
C      1  0.5037500000000  0.4212520000000  0.4051940000000 1.0
C      1  0.4330840000000  0.4056150000000  0.5032370000000 1.0
C      1  0.5885680000000  0.5002610000000  0.4270230000000 1.0
C      1  0.4004010000000  0.4913210000000  0.5737140000000 1.0
C      1  0.5938470000000  0.5015760000000  0.5736230000000 1.0
C      1  0.4985250000000  0.5617410000000  0.4173380000000 1.0
C      1  0.5022270000000  0.5750640000000  0.5950050000000 1.0
C      1  0.5009010000000  0.4312750000000  0.5896170000000 1.0
C      1  0.5748160000000  0.5953220000000  0.5013450000000 1.0
C      1  0.4257160000000  0.5942700000000  0.5017760000000 1.0
C      1  0.5733760000000  0.4046430000000  0.4978670000000 1.0
C      1  0.6064250000000  0.5334630000000  0.4822690000000 1.0
C      1  0.5301910000000  0.4865230000000  0.6044150000000 1.0
C      1  0.4879850000000  0.6101880000000  0.5336670000000 1.0
C      1  0.3886320000000  0.4634940000000  0.4844250000000 1.0
C      1  0.6084960000000  0.4659920000000  0.5123770000000 1.0
C      1  0.3905830000000  0.5302090000000  0.5184420000000 1.0
C      1  0.4612110000000  0.5152450000000  0.6061710000000 1.0
C      1  0.5337280000000  0.5100300000000  0.3925940000000 1.0
C      1  0.4630440000000  0.4803630000000  0.3899420000000 1.0
C      1  0.5160370000000  0.4031410000000  0.5261630000000 1.0
C      1  0.4885250000000  0.3874340000000  0.4605270000000 1.0
C      1  0.5150820000000  0.6064680000000  0.4658890000000 1.0
C      1  0.4808930000000  0.5586560000000  0.4812820000000 1.0
C      1  0.5608100000000  0.4715080000000  0.4852540000000 1.0
C      1  0.4651660000000  0.4908950000000  0.5618580000000 1.0
C      1  0.5204440000000  0.4448940000000  0.4547610000000 1.0
C      1  0.4883650000000  0.4474170000000  0.4918600000000 1.0
C      1  0.5179250000000  0.5604760000000  0.5126280000000 1.0
C      1  0.4374580000000  0.5091960000000  0.4825530000000 1.0
C      1  0.5686380000000  0.5047170000000  0.5187930000000 1.0
C      1  0.4437210000000  0.4742650000000  0.5167780000000 1.0
C      1  0.5010080000000  0.5282200000000  0.5522660000000 1.0
C      1  0.4970370000000  0.5032640000000  0.4530740000000 1.0
C      1  0.5266210000000  0.4702040000000  0.4386930000000 1.0
C      1  0.5658400000000  0.4605220000000  0.4208910000000 1.0
C      1  0.4609350000000  0.4214660000000  0.5658820000000 1.0
C      1  0.4206390000000  0.5635900000000  0.4666420000000 1.0
C      1  0.4337880000000  0.5351340000000  0.4288820000000 1.0
C      1  0.5667370000000  0.5396350000000  0.5792340000000 1.0
C      1  0.4387630000000  0.4649680000000  0.5734240000000 1.0
C      1  0.5401770000000  0.5801770000000  0.5667530000000 1.0
C      1  0.4675380000000  0.5668800000000  0.4520030000000 1.0
C      1  0.5367520000000  0.4231180000000  0.4359480000000 1.0
C      1  0.5730750000000  0.4395080000000  0.4657920000000 1.0
C      1  0.4333070000000  0.4457360000000  0.5292350000000 1.0
C      1  0.5809000000000  0.5667220000000  0.5389130000000 1.0
C      1  0.4380650000000  0.5308530000000  0.5278010000000 1.0
C      1  0.5412310000000  0.5193950000000  0.4440130000000 1.0
C      1  0.5234420000000  0.4522810000000  0.5209560000000 1.0
C      1  0.5443730000000  0.4670850000000  0.5357060000000 1.0
C      1  0.4307810000000  0.4641430000000  0.4707430000000 1.0
C      1  0.5560210000000  0.5340380000000  0.4831850000000 1.0
C      1  0.4656930000000  0.4785740000000  0.4340160000000 1.0
C      1  0.5298650000000  0.4873300000000  0.5533610000000 1.0
C      1  0.4536760000000  0.5451820000000  0.5482080000000 1.0
C      1  0.4737480000000  0.5626850000000  0.5350660000000 1.0
C      1  0.5355080000000  0.5496350000000  0.4673150000000 1.0
C      1  0.4691410000000  0.4334080000000  0.4482770000000 1.0
C      1  0.4368970000000  0.5626790000000  0.5659650000000 1.0
C      1  0.5493160000000  0.5677900000000  0.4294390000000 1.0
C      1  0.5601470000000  0.4136040000000  0.5501750000000 1.0
C      1  0.5647690000000  0.4519930000000  0.5528240000000 1.0
C      1  0.4238860000000  0.4599590000000  0.4236370000000 1.0
C      1  0.5760360000000  0.5522140000000  0.4317880000000 1.0
C      1  0.4372870000000  0.4446190000000  0.4477800000000 1.0
C      1  0.5500280000000  0.4330230000000  0.5710810000000 1.0
C      1  0.4530820000000  0.5785620000000  0.5820230000000 1.0
C      1  0.4266190000000  0.5844830000000  0.5518560000000 1.0
C      1  0.5750400000000  0.5816800000000  0.4400590000000 1.0
C      1  0.4198230000000  0.4227290000000  0.4607120000000 1.0
C      1  0.4719970000000  0.5243070000000  0.5628210000000 1.0
C      1  0.5109370000000  0.5516930000000  0.4849300000000 1.0
C      1  0.5652000000000  0.4759220000000  0.5156740000000 1.0
C      1  0.5106370000000  0.5040480000000  0.5390850000000 1.0
C      1  0.4772840000000  0.4812710000000  0.4606500000000 1.0
C      1  0.5254410000000  0.4948600000000  0.4556740000000 1.0
C      1  0.4893100000000  0.4522640000000  0.4631690000000 1.0
C      1  0.5077020000000  0.4697210000000  0.5026790000000 1.0
C      1  0.4947390000000  0.5451260000000  0.5259580000000 1.0
C      1  0.4507830000000  0.5264390000000  0.5023940000000 1.0
C      1  0.5460980000000  0.5125680000000  0.4997230000000 1.0
C      1  0.4507230000000  0.4824230000000  0.4837590000000 1.0
C      1  0.3956780000000  0.5221780000000  0.4499960000000 1.0
C      1  0.5232340000000  0.4434490000000  0.3979010000000 1.0
C      1  0.4585340000000  0.4104120000000  0.5167810000000 1.0
C      1  0.5950690000000  0.4806190000000  0.4483610000000 1.0
C      1  0.4007380000000  0.4735480000000  0.5496650000000 1.0
C      1  0.6021520000000  0.5225850000000  0.5535480000000 1.0
C      1  0.4812990000000  0.5383600000000  0.4181690000000 1.0
C      1  0.5213950000000  0.5526950000000  0.6002540000000 1.0
C      1  0.4796160000000  0.4514440000000  0.5956570000000 1.0
C      1  0.5529850000000  0.5989930000000  0.5210850000000 1.0
C      1  0.4472950000000  0.5980360000000  0.4816320000000 1.0
C      1  0.5533270000000  0.4006480000000  0.4758990000000 1.0
C      1  0.4371170000000  0.5093970000000  0.5904600000000 1.0
C      1  0.5040140000000  0.6027950000000  0.4409470000000 1.0
C      1  0.5927610000000  0.4420270000000  0.5114750000000 1.0
C      1  0.5556110000000  0.4975600000000  0.6049030000000 1.0
C      1  0.4424130000000  0.4827100000000  0.4143850000000 1.0
C      1  0.5589690000000  0.4993910000000  0.3898300000000 1.0
C      1  0.4994790000000  0.3861000000000  0.4353940000000 1.0
C      1  0.5044360000000  0.4030760000000  0.5514290000000 1.0
C      1  0.4992770000000  0.6092820000000  0.5589910000000 1.0
C      1  0.3932820000000  0.5562300000000  0.5084070000000 1.0
C      1  0.6062210000000  0.5582760000000  0.4947610000000 1.0
C      1  0.4056780000000  0.4373930000000  0.4852560000000 1.0
C      1  0.5260490000000  0.5243300000000  0.4179080000000 1.0
C      1  0.5315270000000  0.4249410000000  0.5121110000000 1.0
C      1  0.4127820000000  0.5175830000000  0.5348290000000 1.0
C      1  0.4821400000000  0.4623190000000  0.4138000000000 1.0
C      1  0.5187290000000  0.4747950000000  0.5788100000000 1.0
C      1  0.4776010000000  0.5343890000000  0.5905380000000 1.0
C      1  0.4685470000000  0.5893000000000  0.5235610000000 1.0
C      1  0.5354540000000  0.5871610000000  0.4771860000000 1.0
C      1  0.4679150000000  0.4085990000000  0.4679720000000 1.0
C      1  0.6084010000000  0.4818620000000  0.5367760000000 1.0
C      1  0.4050600000000  0.4784550000000  0.4650730000000 1.0
C      1  0.5804920000000  0.5211200000000  0.4710680000000 1.0
C      1  0.4810620000000  0.5259550000000  0.5033030000000 1.0
C      1  0.5335190000000  0.4874800000000  0.4848300000000 1.0
C      1  0.4680630000000  0.4825520000000  0.5329360000000 1.0
C      1  0.4916030000000  0.4938220000000  0.5178870000000 1.0
END
