TITL C-3578196-9646-522 2.91992469529337e-07 125000 -56.6370833974329 0 0 10 (Td) n - 1
REM
REM in /home/bkarasulu/work/CARBON/AIRSS/Generating-Clusters/EDIP-Nigel-Params/with-SteepDescent/Higher-Symm/SD-CG/HFTN-CG
REM
REM
REM
REM
REM
REM ./C.cell (12c818d87b63d06a65506943cc24bca4)
REM
REM compiler GCC version 9.2.1 20190827 (Red Hat 9.2.1-1)
REM options -cpp -mtune=generic -march=x86-64 -g -O0 -fpre-include=/usr/include/finclude/math-vector-fortran.h
REM seed 2143753375 -1590902090 -380598020 -1755651192 -998913321 -400531704 969838275 -1699631656 1719594280 -1222508162 -1776560875 1577799563 1694472607 -1820392668 -1499715862 1641011593 1219891703 -682618378 -1896948482 118550880 -1755808586 -1764558936 -1163869883 -868863340 -263902112 1401967948 1494394363 -1550358961 203645130 1138142750 273829758 1520161097 -2130233992
REM
CELL 1.54180   50.00000   50.00000   50.00000   90.00000   90.00000   90.00000
LATT -1
SFAC C  
C      1  0.5011500000000  0.5004450000000  0.4678830000000 1.0
C      1  0.4675070000000  0.5004450000000  0.5015250000000 1.0
C      1  0.5011500000000  0.5004450000000  0.5351680000000 1.0
C      1  0.5011500000000  0.5340880000000  0.5015250000000 1.0
C      1  0.5011500000000  0.4668030000000  0.5015250000000 1.0
C      1  0.5347920000000  0.5004450000000  0.5015250000000 1.0
C      1  0.5168690000000  0.4847260000000  0.4858060000000 1.0
C      1  0.4854300000000  0.5161650000000  0.4858060000000 1.0
C      1  0.4854300000000  0.4847260000000  0.5172450000000 1.0
C      1  0.5168690000000  0.5161650000000  0.5172450000000 1.0
END
