TITL C-3577078-809-286 -4.32795757325018e-06 125000 -307.962714679627 0 0 51 (C1) n - 1
REM
REM in /home/bkarasulu/work/CARBON/AIRSS/Generating-Clusters/EDIP-Nigel-Params/with-SteepDescent/Higher-Symm/SD-CG/HFTN-CG
REM
REM
REM
REM
REM
REM ./C.cell (12c818d87b63d06a65506943cc24bca4)
REM
REM compiler GCC version 9.2.1 20190827 (Red Hat 9.2.1-1)
REM options -cpp -mtune=generic -march=x86-64 -g -O0 -fpre-include=/usr/include/finclude/math-vector-fortran.h
REM seed 814902199 922647391 1102582157 -1222141170 1109649478 1224715752 780022130 -1475917471 -1187371136 2117331534 1653795822 -49598932 1125972740 -2029525624 -2045351794 -629035924 700021909 2056033950 701635898 904165105 1777126448 479719177 42219995 -1975357370 667051443 -1864623670 1920866129 1852326449 -1234245885 1350362688 563632477 831707456 -603283635
REM
CELL 1.54180   50.00000   50.00000   50.00000   90.00000   90.00000   90.00000
LATT -1
SFAC C  
C      1  0.4983420000000  0.5457730000000  0.4621010000000 1.0
C      1  0.4568020000000  0.5161670000000  0.4632910000000 1.0
C      1  0.4715110000000  0.4660300000000  0.4719540000000 1.0
C      1  0.5248010000000  0.4580270000000  0.4676210000000 1.0
C      1  0.5439020000000  0.5146080000000  0.4682070000000 1.0
C      1  0.5426110000000  0.4666660000000  0.5325650000000 1.0
C      1  0.5442450000000  0.5226230000000  0.5380100000000 1.0
C      1  0.4930420000000  0.5533210000000  0.5392620000000 1.0
C      1  0.4717280000000  0.5054170000000  0.5269160000000 1.0
C      1  0.4883640000000  0.4592530000000  0.5313940000000 1.0
C      1  0.5677500000000  0.4710950000000  0.4907600000000 1.0
C      1  0.5392290000000  0.5617770000000  0.5177930000000 1.0
C      1  0.4676530000000  0.5663770000000  0.5024230000000 1.0
C      1  0.4256380000000  0.4967840000000  0.5149470000000 1.0
C      1  0.4912880000000  0.4300170000000  0.4949750000000 1.0
C      1  0.4333850000000  0.5195560000000  0.5006310000000 1.0
C      1  0.4623780000000  0.4295370000000  0.4989770000000 1.0
C      1  0.5632880000000  0.4424590000000  0.4918290000000 1.0
C      1  0.5537710000000  0.5538740000000  0.4950090000000 1.0
C      1  0.4950830000000  0.5734070000000  0.4965930000000 1.0
C      1  0.5408900000000  0.4355720000000  0.4763230000000 1.0
C      1  0.5591550000000  0.5265050000000  0.4902580000000 1.0
C      1  0.5047440000000  0.5719030000000  0.4701280000000 1.0
C      1  0.4304290000000  0.5168220000000  0.4729190000000 1.0
C      1  0.4510670000000  0.4526660000000  0.4868770000000 1.0
C      1  0.5104600000000  0.5595710000000  0.5164970000000 1.0
C      1  0.4618900000000  0.5285720000000  0.5054690000000 1.0
C      1  0.4580420000000  0.4580490000000  0.5242680000000 1.0
C      1  0.5304040000000  0.4504320000000  0.5104920000000 1.0
C      1  0.5470860000000  0.5080150000000  0.5117210000000 1.0
C      1  0.4955890000000  0.4672660000000  0.5601020000000 1.0
C      1  0.5218840000000  0.4811400000000  0.5509270000000 1.0
C      1  0.5211700000000  0.5112230000000  0.5500770000000 1.0
C      1  0.4974870000000  0.5284040000000  0.5553300000000 1.0
C      1  0.4735630000000  0.5116280000000  0.5569980000000 1.0
C      1  0.5625140000000  0.4832690000000  0.5174110000000 1.0
C      1  0.5489340000000  0.5502960000000  0.5412430000000 1.0
C      1  0.4656580000000  0.5567950000000  0.5295150000000 1.0
C      1  0.4489400000000  0.4863940000000  0.5259260000000 1.0
C      1  0.5053890000000  0.4368570000000  0.5197430000000 1.0
C      1  0.4710840000000  0.5398710000000  0.4656430000000 1.0
C      1  0.4741930000000  0.4944860000000  0.4703330000000 1.0
C      1  0.4975890000000  0.4550880000000  0.4802140000000 1.0
C      1  0.5464180000000  0.4823050000000  0.4714630000000 1.0
C      1  0.5152500000000  0.5233010000000  0.4698850000000 1.0
C      1  0.4976450000000  0.4877840000000  0.5210490000000 1.0
C      1  0.5033040000000  0.4966260000000  0.4654940000000 1.0
C      1  0.4789210000000  0.4873620000000  0.5706510000000 1.0
C      1  0.5102690000000  0.4879210000000  0.4387420000000 1.0
C      1  0.5192840000000  0.4893490000000  0.4978230000000 1.0
C      1  0.5132990000000  0.4856400000000  0.4132520000000 1.0
END
