TITL C-3578200-9634-366 -5.13742699048318e-06 125000 -956.526549459526 0 0 154 (C1) n - 1
REM
REM in /home/bkarasulu/work/CARBON/AIRSS/Generating-Clusters/EDIP-Nigel-Params/with-SteepDescent/Higher-Symm/SD-CG/HFTN-CG
REM
REM
REM
REM
REM
REM ./C.cell (12c818d87b63d06a65506943cc24bca4)
REM
REM compiler GCC version 9.2.1 20190827 (Red Hat 9.2.1-1)
REM options -cpp -mtune=generic -march=x86-64 -g -O0 -fpre-include=/usr/include/finclude/math-vector-fortran.h
REM seed -165956398 1113862833 -423210557 1212505671 -823115490 933940252 -126618919 -662889832 583196238 472922643 -921783265 -660947064 -195023108 1962956605 -2005422934 1440378111 -358044641 245611784 -189214366 834921472 502202223 548420381 310272122 -713464993 -648470414 -1893651724 1708567973 -1651965873 438132507 -2131507525 1374413989 -420822174 -578834193
REM
CELL 1.54180   50.00000   50.00000   50.00000   90.00000   90.00000   90.00000
LATT -1
SFAC C  
C      1  0.4729350000000  0.5534890000000  0.4118560000000 1.0
C      1  0.4295520000000  0.5512930000000  0.4397580000000 1.0
C      1  0.4091670000000  0.5525390000000  0.4867400000000 1.0
C      1  0.4133450000000  0.5533570000000  0.5414170000000 1.0
C      1  0.4528030000000  0.5491000000000  0.5796250000000 1.0
C      1  0.5040900000000  0.5527120000000  0.5923370000000 1.0
C      1  0.5538760000000  0.5505690000000  0.5758990000000 1.0
C      1  0.5837480000000  0.5583030000000  0.5337910000000 1.0
C      1  0.5897910000000  0.5601640000000  0.4829260000000 1.0
C      1  0.5654180000000  0.5563430000000  0.4395200000000 1.0
C      1  0.5238980000000  0.5524600000000  0.4110560000000 1.0
C      1  0.4592170000000  0.5750040000000  0.5702850000000 1.0
C      1  0.5027520000000  0.5792260000000  0.5830000000000 1.0
C      1  0.5462630000000  0.5761910000000  0.5664380000000 1.0
C      1  0.5698470000000  0.5830780000000  0.5313210000000 1.0
C      1  0.5736360000000  0.5826650000000  0.4860820000000 1.0
C      1  0.5546670000000  0.5814930000000  0.4475520000000 1.0
C      1  0.5179530000000  0.5766110000000  0.4239230000000 1.0
C      1  0.4748710000000  0.5790670000000  0.4245730000000 1.0
C      1  0.4392020000000  0.5753460000000  0.4498400000000 1.0
C      1  0.4182810000000  0.5793150000000  0.4879100000000 1.0
C      1  0.4265310000000  0.5796450000000  0.5354290000000 1.0
C      1  0.5260130000000  0.4761920000000  0.4132510000000 1.0
C      1  0.4764020000000  0.4770560000000  0.4136150000000 1.0
C      1  0.4331480000000  0.4769730000000  0.4409310000000 1.0
C      1  0.4124290000000  0.4770810000000  0.4857570000000 1.0
C      1  0.4216460000000  0.4785580000000  0.5360470000000 1.0
C      1  0.4530540000000  0.4800600000000  0.5726730000000 1.0
C      1  0.5015520000000  0.4772020000000  0.5868210000000 1.0
C      1  0.5507460000000  0.4754430000000  0.5770770000000 1.0
C      1  0.5847850000000  0.4672980000000  0.5391490000000 1.0
C      1  0.5968050000000  0.4697640000000  0.4864540000000 1.0
C      1  0.5732940000000  0.4748250000000  0.4392270000000 1.0
C      1  0.4723110000000  0.4465790000000  0.4091420000000 1.0
C      1  0.4279360000000  0.4465820000000  0.4369700000000 1.0
C      1  0.4070670000000  0.4465380000000  0.4864820000000 1.0
C      1  0.4179460000000  0.4482050000000  0.5364520000000 1.0
C      1  0.4516120000000  0.4493590000000  0.5756470000000 1.0
C      1  0.4979980000000  0.4478940000000  0.5959160000000 1.0
C      1  0.5488840000000  0.4436400000000  0.5814060000000 1.0
C      1  0.5731150000000  0.4414050000000  0.5363810000000 1.0
C      1  0.5898150000000  0.4387800000000  0.4872680000000 1.0
C      1  0.5720000000000  0.4426550000000  0.4362150000000 1.0
C      1  0.5262120000000  0.4451480000000  0.4081930000000 1.0
C      1  0.5036650000000  0.4881070000000  0.4554140000000 1.0
C      1  0.4772850000000  0.5024560000000  0.4594060000000 1.0
C      1  0.4604000000000  0.4905330000000  0.4806190000000 1.0
C      1  0.4511340000000  0.5055560000000  0.5041840000000 1.0
C      1  0.4672420000000  0.4979930000000  0.5283390000000 1.0
C      1  0.4904520000000  0.5077440000000  0.5447150000000 1.0
C      1  0.5173440000000  0.4932340000000  0.5414480000000 1.0
C      1  0.5461340000000  0.4966840000000  0.5336600000000 1.0
C      1  0.5585190000000  0.4932420000000  0.5073180000000 1.0
C      1  0.5489820000000  0.4837620000000  0.4811390000000 1.0
C      1  0.5319700000000  0.4953240000000  0.4599000000000 1.0
C      1  0.4745450000000  0.5832970000000  0.5473420000000 1.0
C      1  0.5023400000000  0.5902040000000  0.5570620000000 1.0
C      1  0.5269750000000  0.5771880000000  0.5444500000000 1.0
C      1  0.5435280000000  0.5897990000000  0.5213720000000 1.0
C      1  0.5457140000000  0.5776300000000  0.4926710000000 1.0
C      1  0.5334280000000  0.5875880000000  0.4662480000000 1.0
C      1  0.5097690000000  0.5742670000000  0.4518810000000 1.0
C      1  0.4821390000000  0.5872880000000  0.4514330000000 1.0
C      1  0.4600340000000  0.5772080000000  0.4701860000000 1.0
C      1  0.4434200000000  0.5920430000000  0.4917450000000 1.0
C      1  0.4487450000000  0.5912500000000  0.5204920000000 1.0
C      1  0.5477180000000  0.5394180000000  0.4230550000000 1.0
C      1  0.4984980000000  0.5387690000000  0.4055320000000 1.0
C      1  0.4489240000000  0.5385710000000  0.4210630000000 1.0
C      1  0.4141240000000  0.5377330000000  0.4608400000000 1.0
C      1  0.4067650000000  0.5393280000000  0.5136420000000 1.0
C      1  0.4298120000000  0.5371670000000  0.5628720000000 1.0
C      1  0.4788860000000  0.5369070000000  0.5907590000000 1.0
C      1  0.5298830000000  0.5375410000000  0.5893870000000 1.0
C      1  0.5735560000000  0.5398150000000  0.5549950000000 1.0
C      1  0.5929380000000  0.5462830000000  0.5081280000000 1.0
C      1  0.5839770000000  0.5443960000000  0.4589380000000 1.0
C      1  0.5531800000000  0.4133350000000  0.4711470000000 1.0
C      1  0.5328920000000  0.4137520000000  0.4459110000000 1.0
C      1  0.4956690000000  0.4155620000000  0.4395220000000 1.0
C      1  0.4635000000000  0.4125540000000  0.4462290000000 1.0
C      1  0.4471710000000  0.4207490000000  0.4753760000000 1.0
C      1  0.4389290000000  0.4123220000000  0.5088380000000 1.0
C      1  0.4555220000000  0.4144470000000  0.5373320000000 1.0
C      1  0.4812550000000  0.4088700000000  0.5666260000000 1.0
C      1  0.5131280000000  0.4094070000000  0.5684910000000 1.0
C      1  0.5346240000000  0.4129750000000  0.5450730000000 1.0
C      1  0.5511110000000  0.4090220000000  0.5101920000000 1.0
C      1  0.4206270000000  0.4315040000000  0.4633900000000 1.0
C      1  0.4169550000000  0.4328780000000  0.5112690000000 1.0
C      1  0.4375720000000  0.4339750000000  0.5539430000000 1.0
C      1  0.4735830000000  0.4324390000000  0.5868870000000 1.0
C      1  0.5219090000000  0.4299580000000  0.5900670000000 1.0
C      1  0.5568930000000  0.4288550000000  0.5571040000000 1.0
C      1  0.5770920000000  0.4258140000000  0.5120720000000 1.0
C      1  0.5787600000000  0.4262410000000  0.4618730000000 1.0
C      1  0.5468170000000  0.4298050000000  0.4243220000000 1.0
C      1  0.4982510000000  0.4309480000000  0.4123480000000 1.0
C      1  0.4515740000000  0.4316520000000  0.4258720000000 1.0
C      1  0.5314610000000  0.5117630000000  0.6035800000000 1.0
C      1  0.5865330000000  0.5129180000000  0.5555560000000 1.0
C      1  0.6072580000000  0.5214240000000  0.5072840000000 1.0
C      1  0.5950810000000  0.5173940000000  0.4566940000000 1.0
C      1  0.5555520000000  0.5115080000000  0.4153720000000 1.0
C      1  0.5000230000000  0.5132760000000  0.3907760000000 1.0
C      1  0.4452770000000  0.5104370000000  0.4131090000000 1.0
C      1  0.4007770000000  0.5125810000000  0.4538870000000 1.0
C      1  0.3986980000000  0.5109560000000  0.5133290000000 1.0
C      1  0.4165900000000  0.5120080000000  0.5705270000000 1.0
C      1  0.4816180000000  0.5143710000000  0.6082470000000 1.0
C      1  0.4482970000000  0.5355570000000  0.4990100000000 1.0
C      1  0.4485630000000  0.5491090000000  0.5252360000000 1.0
C      1  0.4755570000000  0.5579080000000  0.5324600000000 1.0
C      1  0.4951880000000  0.5375770000000  0.5389880000000 1.0
C      1  0.5220650000000  0.5481180000000  0.5390550000000 1.0
C      1  0.5394320000000  0.5377930000000  0.5201370000000 1.0
C      1  0.5419290000000  0.5479710000000  0.4946930000000 1.0
C      1  0.5259950000000  0.5357790000000  0.4762510000000 1.0
C      1  0.5077900000000  0.5442630000000  0.4574260000000 1.0
C      1  0.4810510000000  0.5326890000000  0.4617960000000 1.0
C      1  0.4667390000000  0.5493380000000  0.4805550000000 1.0
C      1  0.5016780000000  0.4805600000000  0.4275880000000 1.0
C      1  0.4585930000000  0.4910870000000  0.4326550000000 1.0
C      1  0.4359760000000  0.4797810000000  0.4692600000000 1.0
C      1  0.4223410000000  0.4921950000000  0.5097860000000 1.0
C      1  0.4489290000000  0.4833630000000  0.5446410000000 1.0
C      1  0.4794540000000  0.4958730000000  0.5745300000000 1.0
C      1  0.5223550000000  0.4753020000000  0.5647430000000 1.0
C      1  0.5677360000000  0.4879630000000  0.5538980000000 1.0
C      1  0.5865990000000  0.4832220000000  0.5128840000000 1.0
C      1  0.5747660000000  0.4797060000000  0.4681710000000 1.0
C      1  0.5455310000000  0.4873650000000  0.4335750000000 1.0
C      1  0.4023000000000  0.4979140000000  0.5492140000000 1.0
C      1  0.4317610000000  0.4941150000000  0.5861040000000 1.0
C      1  0.5062510000000  0.4976520000000  0.6094100000000 1.0
C      1  0.5516530000000  0.4929480000000  0.5997470000000 1.0
C      1  0.6064150000000  0.5084910000000  0.5334650000000 1.0
C      1  0.6074440000000  0.5053150000000  0.4817570000000 1.0
C      1  0.5872620000000  0.5021270000000  0.4319610000000 1.0
C      1  0.5261730000000  0.4985780000000  0.3933520000000 1.0
C      1  0.4748140000000  0.4975580000000  0.3917570000000 1.0
C      1  0.4137580000000  0.4976650000000  0.4314650000000 1.0
C      1  0.3919110000000  0.4971280000000  0.4774710000000 1.0
C      1  0.4887210000000  0.4430890000000  0.5526200000000 1.0
C      1  0.5176890000000  0.4483950000000  0.5505460000000 1.0
C      1  0.5237150000000  0.4483420000000  0.5230290000000 1.0
C      1  0.5285360000000  0.4286380000000  0.5043090000000 1.0
C      1  0.5408930000000  0.4398690000000  0.4806270000000 1.0
C      1  0.5227800000000  0.4484390000000  0.4608010000000 1.0
C      1  0.4980190000000  0.4359350000000  0.4607510000000 1.0
C      1  0.4766310000000  0.4539770000000  0.4614960000000 1.0
C      1  0.4611520000000  0.4461810000000  0.4830170000000 1.0
C      1  0.4751730000000  0.4457780000000  0.5065280000000 1.0
C      1  0.4790510000000  0.4301170000000  0.5284000000000 1.0
END
