TITL C-3577082-504-52 -2.38221893084163e-06 125000 -788.800704329356 0 0 125 (C1) n - 1
REM
REM in /home/bkarasulu/work/CARBON/AIRSS/Generating-Clusters/EDIP-Nigel-Params/with-SteepDescent/Higher-Symm/SD-CG/HFTN-CG
REM
REM
REM
REM
REM
REM ./C.cell (12c818d87b63d06a65506943cc24bca4)
REM
REM compiler GCC version 9.2.1 20190827 (Red Hat 9.2.1-1)
REM options -cpp -mtune=generic -march=x86-64 -g -O0 -fpre-include=/usr/include/finclude/math-vector-fortran.h
REM seed -832105275 -1167975389 -1284396847 731204337 -1277893743 628336141 2104043074 799157098 -85221491 783964789 691294549 2081300036 -345589059 125139186 -1450422850 1766617954 -2004337413 1599079978 192021897 -1695831680 455066364 1327155956 2082706891 1024187252 683052889 -1005106752 101661404 -1846759425 376205418 419668133 -2076503782 1984122854 -1973879171
REM
CELL 1.54180   50.00000   50.00000   50.00000   90.00000   90.00000   90.00000
LATT -1
SFAC C  
C      1  0.5792960000000  0.5143380000000  0.5511430000000 1.0
C      1  0.4742010000000  0.4330110000000  0.5490200000000 1.0
C      1  0.4475460000000  0.5633740000000  0.5521860000000 1.0
C      1  0.5788950000000  0.5157260000000  0.4482860000000 1.0
C      1  0.4733920000000  0.4255470000000  0.4445820000000 1.0
C      1  0.4472630000000  0.5611950000000  0.4472160000000 1.0
C      1  0.5276500000000  0.5155990000000  0.4719030000000 1.0
C      1  0.5043170000000  0.4690820000000  0.4756250000000 1.0
C      1  0.4711220000000  0.5060300000000  0.4743910000000 1.0
C      1  0.5210280000000  0.5180240000000  0.5238420000000 1.0
C      1  0.5041850000000  0.4703770000000  0.5261780000000 1.0
C      1  0.4696030000000  0.5182170000000  0.5279570000000 1.0
C      1  0.5264160000000  0.4879280000000  0.4845910000000 1.0
C      1  0.4772070000000  0.4784960000000  0.4868230000000 1.0
C      1  0.4918880000000  0.5269120000000  0.4839400000000 1.0
C      1  0.5255030000000  0.4892700000000  0.5141500000000 1.0
C      1  0.4773690000000  0.4805660000000  0.5166080000000 1.0
C      1  0.4940070000000  0.5288230000000  0.5136040000000 1.0
C      1  0.5442080000000  0.4332160000000  0.5521820000000 1.0
C      1  0.4207800000000  0.4954850000000  0.5563800000000 1.0
C      1  0.5338290000000  0.5719240000000  0.5507730000000 1.0
C      1  0.5449840000000  0.4345740000000  0.4465040000000 1.0
C      1  0.4209210000000  0.4924780000000  0.4446420000000 1.0
C      1  0.5342520000000  0.5720950000000  0.4459230000000 1.0
C      1  0.5482840000000  0.4811940000000  0.5725480000000 1.0
C      1  0.4633470000000  0.4734680000000  0.5756440000000 1.0
C      1  0.4920130000000  0.5525440000000  0.5718080000000 1.0
C      1  0.5457340000000  0.4830710000000  0.4322760000000 1.0
C      1  0.4611270000000  0.4693610000000  0.4228650000000 1.0
C      1  0.4919600000000  0.5502600000000  0.4274810000000 1.0
C      1  0.4183190000000  0.5549990000000  0.4859790000000 1.0
C      1  0.5870810000000  0.5409620000000  0.4839380000000 1.0
C      1  0.4892050000000  0.4056180000000  0.4810850000000 1.0
C      1  0.4222040000000  0.5534890000000  0.5144150000000 1.0
C      1  0.5867800000000  0.5406600000000  0.5126420000000 1.0
C      1  0.4877910000000  0.4079890000000  0.5098630000000 1.0
C      1  0.4993250000000  0.4268880000000  0.4316780000000 1.0
C      1  0.4388460000000  0.5353600000000  0.4379090000000 1.0
C      1  0.5645410000000  0.5370050000000  0.4335840000000 1.0
C      1  0.4980340000000  0.4271860000000  0.5659700000000 1.0
C      1  0.4366740000000  0.5396370000000  0.5659310000000 1.0
C      1  0.5633490000000  0.5358850000000  0.5626100000000 1.0
C      1  0.4875410000000  0.4728120000000  0.4085170000000 1.0
C      1  0.4814330000000  0.5246050000000  0.4143280000000 1.0
C      1  0.5278410000000  0.5054220000000  0.4205050000000 1.0
C      1  0.4928170000000  0.4748290000000  0.5830610000000 1.0
C      1  0.4819310000000  0.5253950000000  0.5821220000000 1.0
C      1  0.5317720000000  0.5042430000000  0.5861360000000 1.0
C      1  0.5082000000000  0.4810530000000  0.5549640000000 1.0
C      1  0.4803690000000  0.5082620000000  0.5548850000000 1.0
C      1  0.5128930000000  0.5125500000000  0.5525900000000 1.0
C      1  0.5045630000000  0.4774620000000  0.4468690000000 1.0
C      1  0.4813360000000  0.5004640000000  0.4456230000000 1.0
C      1  0.5114660000000  0.5155720000000  0.4457110000000 1.0
C      1  0.5528480000000  0.4732780000000  0.5174090000000 1.0
C      1  0.4522280000000  0.4672720000000  0.5280000000000 1.0
C      1  0.4966850000000  0.5594640000000  0.5149180000000 1.0
C      1  0.5525770000000  0.4719000000000  0.4829830000000 1.0
C      1  0.4535270000000  0.4597280000000  0.4802990000000 1.0
C      1  0.4963980000000  0.5589110000000  0.4809330000000 1.0
C      1  0.4290690000000  0.4454980000000  0.4528170000000 1.0
C      1  0.4828170000000  0.5902220000000  0.4623430000000 1.0
C      1  0.5866700000000  0.4705830000000  0.4645940000000 1.0
C      1  0.4475770000000  0.4446550000000  0.5079400000000 1.0
C      1  0.4844050000000  0.5905880000000  0.5349130000000 1.0
C      1  0.5859930000000  0.4682060000000  0.5373710000000 1.0
C      1  0.4406950000000  0.5091870000000  0.4844480000000 1.0
C      1  0.5430290000000  0.5410180000000  0.4836810000000 1.0
C      1  0.5151430000000  0.4409200000000  0.4850860000000 1.0
C      1  0.4404810000000  0.5132320000000  0.5151070000000 1.0
C      1  0.5424990000000  0.5409330000000  0.5142460000000 1.0
C      1  0.5156890000000  0.4415760000000  0.5158160000000 1.0
C      1  0.5962090000000  0.5208090000000  0.5298280000000 1.0
C      1  0.4665290000000  0.4227280000000  0.5224030000000 1.0
C      1  0.4325460000000  0.5735780000000  0.5307820000000 1.0
C      1  0.5988510000000  0.5223350000000  0.4668380000000 1.0
C      1  0.4676150000000  0.4056100000000  0.4632690000000 1.0
C      1  0.4327590000000  0.5715270000000  0.4687010000000 1.0
C      1  0.4096620000000  0.5300570000000  0.4753180000000 1.0
C      1  0.5731460000000  0.5628280000000  0.4727630000000 1.0
C      1  0.5156570000000  0.4047320000000  0.4711710000000 1.0
C      1  0.4089520000000  0.5318610000000  0.5267770000000 1.0
C      1  0.5731940000000  0.5626450000000  0.5238290000000 1.0
C      1  0.5122180000000  0.4042000000000  0.5248500000000 1.0
C      1  0.4519020000000  0.5229010000000  0.5849500000000 1.0
C      1  0.5402180000000  0.5326300000000  0.5797360000000 1.0
C      1  0.5093610000000  0.4483830000000  0.5842510000000 1.0
C      1  0.4524450000000  0.5189190000000  0.4188570000000 1.0
C      1  0.5402660000000  0.5327680000000  0.4172480000000 1.0
C      1  0.5086500000000  0.4514620000000  0.4182320000000 1.0
C      1  0.5622420000000  0.5624420000000  0.5500930000000 1.0
C      1  0.5202580000000  0.4145460000000  0.5509570000000 1.0
C      1  0.4141150000000  0.5244400000000  0.5540570000000 1.0
C      1  0.5630780000000  0.5638550000000  0.4459700000000 1.0
C      1  0.5225940000000  0.4145000000000  0.4451270000000 1.0
C      1  0.4167180000000  0.5210150000000  0.4493330000000 1.0
C      1  0.5372750000000  0.4535260000000  0.5733990000000 1.0
C      1  0.4437320000000  0.4956640000000  0.5761800000000 1.0
C      1  0.5209020000000  0.5526970000000  0.5690790000000 1.0
C      1  0.5373360000000  0.4560370000000  0.4271960000000 1.0
C      1  0.4431490000000  0.4919280000000  0.4253020000000 1.0
C      1  0.5210600000000  0.5541420000000  0.4262450000000 1.0
C      1  0.5905070000000  0.4503530000000  0.5145520000000 1.0
C      1  0.4174680000000  0.4442010000000  0.5023500000000 1.0
C      1  0.4987880000000  0.6034540000000  0.5127860000000 1.0
C      1  0.5906170000000  0.4497690000000  0.4851950000000 1.0
C      1  0.4158620000000  0.4362030000000  0.4754910000000 1.0
C      1  0.4988510000000  0.6029430000000  0.4834500000000 1.0
C      1  0.5262230000000  0.5657040000000  0.4751160000000 1.0
C      1  0.5446640000000  0.4428440000000  0.4765560000000 1.0
C      1  0.4290840000000  0.4807460000000  0.4794700000000 1.0
C      1  0.5263440000000  0.5665560000000  0.5212850000000 1.0
C      1  0.5454720000000  0.4434860000000  0.5230750000000 1.0
C      1  0.4290060000000  0.4868710000000  0.5270900000000 1.0
C      1  0.4749030000000  0.5684000000000  0.4440100000000 1.0
C      1  0.5710210000000  0.4882410000000  0.4466080000000 1.0
C      1  0.4540460000000  0.4457890000000  0.4386880000000 1.0
C      1  0.4759090000000  0.5685980000000  0.5526550000000 1.0
C      1  0.5713510000000  0.4869570000000  0.5547550000000 1.0
C      1  0.4565220000000  0.4548010000000  0.5548660000000 1.0
C      1  0.4118100000000  0.4737070000000  0.5048190000000 1.0
C      1  0.5624240000000  0.4292110000000  0.4993760000000 1.0
C      1  0.5303720000000  0.5880140000000  0.4977830000000 1.0
C      1  0.4998920000000  0.5007550000000  0.4055860000000 1.0
C      1  0.5018070000000  0.5022170000000  0.5948510000000 1.0
END
