TITL C-3578200-9634-333 -3.68300298588397e-06 125000 -611.485330009683 0 0 97 (C1) n - 1
REM
REM in /home/bkarasulu/work/CARBON/AIRSS/Generating-Clusters/EDIP-Nigel-Params/with-SteepDescent/Higher-Symm/SD-CG/HFTN-CG
REM
REM
REM
REM
REM
REM ./C.cell (12c818d87b63d06a65506943cc24bca4)
REM
REM compiler GCC version 9.2.1 20190827 (Red Hat 9.2.1-1)
REM options -cpp -mtune=generic -march=x86-64 -g -O0 -fpre-include=/usr/include/finclude/math-vector-fortran.h
REM seed -763524357 1057450132 911305080 -1568911631 -135045467 -465810267 -1839937918 -1291969610 -1604907584 -486692914 -607124286 -922914049 2043975934 1778229604 -372827598 1759350495 -1863865970 1723750425 -979829370 1952874914 -511640051 -901558240 -1958254387 1137198319 396091134 -1346439190 -1259223084 1027743969 1150995255 -47779475 -1826514463 333003304 -251841155
REM
CELL 1.54180   50.00000   50.00000   50.00000   90.00000   90.00000   90.00000
LATT -1
SFAC C  
C      1  0.5561720000000  0.4827970000000  0.5306840000000 1.0
C      1  0.5586830000000  0.4829330000000  0.4797900000000 1.0
C      1  0.5199340000000  0.4793960000000  0.4489650000000 1.0
C      1  0.4642950000000  0.4793510000000  0.4534730000000 1.0
C      1  0.4341520000000  0.4831230000000  0.4953740000000 1.0
C      1  0.4566300000000  0.4823560000000  0.5395960000000 1.0
C      1  0.5115640000000  0.4802370000000  0.5561310000000 1.0
C      1  0.4637390000000  0.5204100000000  0.5904460000000 1.0
C      1  0.5516020000000  0.5199080000000  0.5894850000000 1.0
C      1  0.6005200000000  0.5275330000000  0.5148730000000 1.0
C      1  0.5721650000000  0.5253250000000  0.4351210000000 1.0
C      1  0.4922170000000  0.5160330000000  0.4011550000000 1.0
C      1  0.4148350000000  0.5248350000000  0.4430570000000 1.0
C      1  0.4055520000000  0.5298640000000  0.5299730000000 1.0
C      1  0.4828680000000  0.5461600000000  0.4362720000000 1.0
C      1  0.4415590000000  0.5516880000000  0.4703010000000 1.0
C      1  0.4469040000000  0.5528120000000  0.5252460000000 1.0
C      1  0.4886050000000  0.5499730000000  0.5632950000000 1.0
C      1  0.5421680000000  0.5497300000000  0.5550640000000 1.0
C      1  0.5636710000000  0.5540650000000  0.5038060000000 1.0
C      1  0.5358760000000  0.5502980000000  0.4501840000000 1.0
C      1  0.4324410000000  0.5299830000000  0.4883220000000 1.0
C      1  0.4515430000000  0.5299770000000  0.5437880000000 1.0
C      1  0.5058000000000  0.5263090000000  0.5681460000000 1.0
C      1  0.5578570000000  0.5284680000000  0.5418100000000 1.0
C      1  0.5635420000000  0.5316530000000  0.4833220000000 1.0
C      1  0.5240510000000  0.5260860000000  0.4387240000000 1.0
C      1  0.4648770000000  0.5238210000000  0.4404450000000 1.0
C      1  0.5892660000000  0.5170560000000  0.4909940000000 1.0
C      1  0.5480960000000  0.5122070000000  0.4275890000000 1.0
C      1  0.4700700000000  0.5060890000000  0.4158300000000 1.0
C      1  0.4125670000000  0.5154170000000  0.4698530000000 1.0
C      1  0.4245100000000  0.5166180000000  0.5462930000000 1.0
C      1  0.4894250000000  0.5090660000000  0.5869610000000 1.0
C      1  0.5657900000000  0.5117600000000  0.5662020000000 1.0
C      1  0.5521780000000  0.4317170000000  0.5291670000000 1.0
C      1  0.5578630000000  0.4311000000000  0.4835180000000 1.0
C      1  0.5203370000000  0.4290800000000  0.4563870000000 1.0
C      1  0.4683230000000  0.4280760000000  0.4587550000000 1.0
C      1  0.4384020000000  0.4289300000000  0.4951940000000 1.0
C      1  0.4624310000000  0.4328150000000  0.5325350000000 1.0
C      1  0.5098370000000  0.4315430000000  0.5430770000000 1.0
C      1  0.5168010000000  0.5643410000000  0.4669900000000 1.0
C      1  0.4894570000000  0.5582820000000  0.4616330000000 1.0
C      1  0.4666340000000  0.5645890000000  0.4788240000000 1.0
C      1  0.4701430000000  0.5656480000000  0.5098070000000 1.0
C      1  0.4952850000000  0.5665510000000  0.5396930000000 1.0
C      1  0.5251960000000  0.5644630000000  0.5366510000000 1.0
C      1  0.5384880000000  0.5674390000000  0.5110890000000 1.0
C      1  0.5332110000000  0.4164940000000  0.5429400000000 1.0
C      1  0.5653710000000  0.4195050000000  0.5077780000000 1.0
C      1  0.5429680000000  0.4154470000000  0.4655170000000 1.0
C      1  0.4944010000000  0.4180130000000  0.4545850000000 1.0
C      1  0.4485180000000  0.4144290000000  0.4732010000000 1.0
C      1  0.4426470000000  0.4174580000000  0.5202590000000 1.0
C      1  0.4847840000000  0.4205100000000  0.5426990000000 1.0
C      1  0.4889080000000  0.4816590000000  0.5758410000000 1.0
C      1  0.5586500000000  0.4841640000000  0.5599530000000 1.0
C      1  0.5834270000000  0.4887940000000  0.4944540000000 1.0
C      1  0.5466000000000  0.4846730000000  0.4369230000000 1.0
C      1  0.4757280000000  0.4791030000000  0.4263200000000 1.0
C      1  0.4196200000000  0.4871990000000  0.4703450000000 1.0
C      1  0.4276660000000  0.4884550000000  0.5392480000000 1.0
C      1  0.4701610000000  0.5089530000000  0.5302010000000 1.0
C      1  0.5086570000000  0.5081200000000  0.5420570000000 1.0
C      1  0.5378320000000  0.5092730000000  0.5233340000000 1.0
C      1  0.5390330000000  0.5095360000000  0.4876930000000 1.0
C      1  0.5126640000000  0.5070890000000  0.4626580000000 1.0
C      1  0.4757670000000  0.5063520000000  0.4671460000000 1.0
C      1  0.4570870000000  0.5088890000000  0.4961270000000 1.0
C      1  0.4701900000000  0.4547190000000  0.4716730000000 1.0
C      1  0.4500290000000  0.4565700000000  0.4947230000000 1.0
C      1  0.4656340000000  0.4598600000000  0.5204010000000 1.0
C      1  0.5132340000000  0.4588590000000  0.5327020000000 1.0
C      1  0.5411420000000  0.4579800000000  0.5205470000000 1.0
C      1  0.5442240000000  0.4571330000000  0.4888770000000 1.0
C      1  0.5200090000000  0.4554120000000  0.4697920000000 1.0
C      1  0.5035670000000  0.5349260000000  0.4189000000000 1.0
C      1  0.4392850000000  0.5390650000000  0.4436810000000 1.0
C      1  0.4217940000000  0.5446000000000  0.5121230000000 1.0
C      1  0.4622240000000  0.5396560000000  0.5697430000000 1.0
C      1  0.5317040000000  0.5370960000000  0.5791600000000 1.0
C      1  0.5792380000000  0.5424870000000  0.5258330000000 1.0
C      1  0.5636920000000  0.5430150000000  0.4555760000000 1.0
C      1  0.4142580000000  0.4815820000000  0.5162130000000 1.0
C      1  0.4640380000000  0.4750600000000  0.5661040000000 1.0
C      1  0.5351020000000  0.4772290000000  0.5722740000000 1.0
C      1  0.5831540000000  0.4816440000000  0.5209160000000 1.0
C      1  0.5679720000000  0.4784700000000  0.4528390000000 1.0
C      1  0.5025060000000  0.4732430000000  0.4272510000000 1.0
C      1  0.4359040000000  0.4802880000000  0.4492290000000 1.0
C      1  0.5225890000000  0.5782500000000  0.4905700000000 1.0
C      1  0.4984970000000  0.5511130000000  0.5046100000000 1.0
C      1  0.4959120000000  0.4541950000000  0.4854180000000 1.0
C      1  0.4996560000000  0.4949250000000  0.5024930000000 1.0
C      1  0.4939750000000  0.4675290000000  0.5107880000000 1.0
C      1  0.4991050000000  0.5221380000000  0.5018730000000 1.0
END
