TITL C-3578206-1180-424 -4.88731797625009e-07 125000 -901.727634050254 0 0 146 (C1) n - 1
REM
REM in /home/bkarasulu/work/CARBON/AIRSS/Generating-Clusters/EDIP-Nigel-Params/with-SteepDescent/Higher-Symm/SD-CG/HFTN-CG
REM
REM
REM
REM
REM
REM ./C.cell (12c818d87b63d06a65506943cc24bca4)
REM
REM compiler GCC version 9.2.1 20190827 (Red Hat 9.2.1-1)
REM options -cpp -mtune=generic -march=x86-64 -g -O0 -fpre-include=/usr/include/finclude/math-vector-fortran.h
REM seed -1162888381 -1803832146 -150553950 -172210653 451573651 1303920909 2029591001 -1184054399 21484849 -1636161019 -162742615 2087152707 -740142430 1178031248 192528237 -1660091252 1901984380 -287193850 1058076409 -1892283589 1161063067 311564255 815531016 2094507902 -1894636868 -468983613 -1927123737 -2110872129 143820408 -1726762993 161299796 -1372378297 -1974959381
REM
CELL 1.54180   50.00000   50.00000   50.00000   90.00000   90.00000   90.00000
LATT -1
SFAC C  
C      1  0.4823400000000  0.4829210000000  0.3936950000000 1.0
C      1  0.4828180000000  0.4156990000000  0.5698300000000 1.0
C      1  0.4809780000000  0.5998800000000  0.5380650000000 1.0
C      1  0.5520830000000  0.5437260000000  0.4210070000000 1.0
C      1  0.5541150000000  0.4077300000000  0.5025430000000 1.0
C      1  0.5529650000000  0.5475000000000  0.5777830000000 1.0
C      1  0.5845630000000  0.5636230000000  0.4919330000000 1.0
C      1  0.5847010000000  0.4624390000000  0.4498990000000 1.0
C      1  0.5849170000000  0.4761710000000  0.5592440000000 1.0
C      1  0.5992620000000  0.4676900000000  0.4981440000000 1.0
C      1  0.5987570000000  0.5144320000000  0.5296970000000 1.0
C      1  0.5978940000000  0.5187400000000  0.4733350000000 1.0
C      1  0.5485580000000  0.4931400000000  0.5276420000000 1.0
C      1  0.5502700000000  0.5259030000000  0.4929310000000 1.0
C      1  0.5486620000000  0.4788960000000  0.4817670000000 1.0
C      1  0.5332950000000  0.4452650000000  0.5135840000000 1.0
C      1  0.5312620000000  0.5368360000000  0.5386910000000 1.0
C      1  0.5286380000000  0.5174920000000  0.4526880000000 1.0
C      1  0.5230400000000  0.4636450000000  0.4250110000000 1.0
C      1  0.5235030000000  0.4512670000000  0.5708850000000 1.0
C      1  0.5235420000000  0.5858810000000  0.5061790000000 1.0
C      1  0.4482130000000  0.4147360000000  0.5275980000000 1.0
C      1  0.4493730000000  0.5672090000000  0.5603520000000 1.0
C      1  0.4479280000000  0.5196190000000  0.4108550000000 1.0
C      1  0.5004960000000  0.4728990000000  0.5052850000000 1.0
C      1  0.5034660000000  0.5164330000000  0.5109630000000 1.0
C      1  0.5017320000000  0.4966760000000  0.4904700000000 1.0
C      1  0.5709550000000  0.5578250000000  0.5155690000000 1.0
C      1  0.5700780000000  0.4854730000000  0.4437170000000 1.0
C      1  0.5713210000000  0.4582070000000  0.5427640000000 1.0
C      1  0.4617940000000  0.5744220000000  0.5069670000000 1.0
C      1  0.4620350000000  0.4687020000000  0.4305590000000 1.0
C      1  0.4611580000000  0.4575450000000  0.5617460000000 1.0
C      1  0.4139800000000  0.5588100000000  0.5135810000000 1.0
C      1  0.4139740000000  0.4829620000000  0.4426070000000 1.0
C      1  0.4137990000000  0.4594830000000  0.5434420000000 1.0
C      1  0.4853850000000  0.4288160000000  0.4447310000000 1.0
C      1  0.4858950000000  0.4879820000000  0.5884220000000 1.0
C      1  0.4853570000000  0.5830180000000  0.4653060000000 1.0
C      1  0.5904830000000  0.5486020000000  0.4690660000000 1.0
C      1  0.5918180000000  0.4495180000000  0.4738230000000 1.0
C      1  0.5913100000000  0.5034040000000  0.5577550000000 1.0
C      1  0.4321610000000  0.5827010000000  0.5153800000000 1.0
C      1  0.4316220000000  0.4726130000000  0.4203810000000 1.0
C      1  0.4316360000000  0.4457720000000  0.5636220000000 1.0
C      1  0.5156760000000  0.4385410000000  0.4825350000000 1.0
C      1  0.5165040000000  0.5149490000000  0.5606740000000 1.0
C      1  0.5158560000000  0.5464450000000  0.4549330000000 1.0
C      1  0.4823780000000  0.4021340000000  0.4952300000000 1.0
C      1  0.4829630000000  0.5440520000000  0.5869350000000 1.0
C      1  0.4819660000000  0.5550450000000  0.4166680000000 1.0
C      1  0.5567050000000  0.5224270000000  0.5381720000000 1.0
C      1  0.5555080000000  0.5225190000000  0.4631060000000 1.0
C      1  0.5575940000000  0.4548140000000  0.5008760000000 1.0
C      1  0.4093160000000  0.5536510000000  0.4832440000000 1.0
C      1  0.4090370000000  0.4591880000000  0.4623240000000 1.0
C      1  0.4094190000000  0.4886280000000  0.5539700000000 1.0
C      1  0.4954600000000  0.6029960000000  0.5115290000000 1.0
C      1  0.4969290000000  0.4587990000000  0.4048650000000 1.0
C      1  0.4966630000000  0.4376900000000  0.5848880000000 1.0
C      1  0.5301970000000  0.5656490000000  0.4151980000000 1.0
C      1  0.5301720000000  0.3951220000000  0.4876520000000 1.0
C      1  0.5301100000000  0.5409160000000  0.5973580000000 1.0
C      1  0.5086020000000  0.4126480000000  0.4968370000000 1.0
C      1  0.5092010000000  0.5396820000000  0.5769630000000 1.0
C      1  0.5082940000000  0.5487690000000  0.4255320000000 1.0
C      1  0.5332420000000  0.4362070000000  0.4345290000000 1.0
C      1  0.5332860000000  0.4744160000000  0.5887570000000 1.0
C      1  0.5330470000000  0.5907510000000  0.4771310000000 1.0
C      1  0.5228580000000  0.4716870000000  0.5253030000000 1.0
C      1  0.5244290000000  0.5357610000000  0.5088670000000 1.0
C      1  0.5220470000000  0.4914910000000  0.4688620000000 1.0
C      1  0.4755910000000  0.5954440000000  0.4908230000000 1.0
C      1  0.4763140000000  0.4443250000000  0.4205970000000 1.0
C      1  0.4761940000000  0.4594000000000  0.5874250000000 1.0
C      1  0.4483320000000  0.5509090000000  0.4529030000000 1.0
C      1  0.4478140000000  0.4335870000000  0.4785950000000 1.0
C      1  0.4496640000000  0.5155350000000  0.5659940000000 1.0
C      1  0.5648150000000  0.5185420000000  0.5680550000000 1.0
C      1  0.5641030000000  0.5501150000000  0.4505320000000 1.0
C      1  0.5656830000000  0.4315070000000  0.4817420000000 1.0
C      1  0.4051480000000  0.5106810000000  0.5345680000000 1.0
C      1  0.4047000000000  0.5260600000000  0.4737340000000 1.0
C      1  0.4043000000000  0.4647670000000  0.4911840000000 1.0
C      1  0.4358330000000  0.5415030000000  0.5573930000000 1.0
C      1  0.4336050000000  0.5308730000000  0.4342790000000 1.0
C      1  0.4345340000000  0.4292670000000  0.5062070000000 1.0
C      1  0.4693270000000  0.5054600000000  0.5435850000000 1.0
C      1  0.4682700000000  0.5354270000000  0.4716190000000 1.0
C      1  0.4667410000000  0.4578180000000  0.4808930000000 1.0
C      1  0.4781350000000  0.5277800000000  0.5218230000000 1.0
C      1  0.4715680000000  0.5066710000000  0.4600110000000 1.0
C      1  0.4739980000000  0.4627550000000  0.5137160000000 1.0
C      1  0.4749570000000  0.5673710000000  0.5734170000000 1.0
C      1  0.4738810000000  0.5306750000000  0.4044760000000 1.0
C      1  0.4738070000000  0.4026630000000  0.5221980000000 1.0
C      1  0.5441560000000  0.5680190000000  0.5557200000000 1.0
C      1  0.5361080000000  0.5142530000000  0.4233200000000 1.0
C      1  0.5471300000000  0.4158630000000  0.5324850000000 1.0
C      1  0.5403120000000  0.5639650000000  0.4647160000000 1.0
C      1  0.5405960000000  0.4392750000000  0.4634210000000 1.0
C      1  0.5408410000000  0.4978520000000  0.5710630000000 1.0
C      1  0.5064830000000  0.4664700000000  0.5496770000000 1.0
C      1  0.5072520000000  0.5598950000000  0.5023140000000 1.0
C      1  0.5062970000000  0.4740770000000  0.4490040000000 1.0
C      1  0.5128710000000  0.4144060000000  0.4393530000000 1.0
C      1  0.5127820000000  0.4898640000000  0.6044780000000 1.0
C      1  0.5119890000000  0.5968970000000  0.4560500000000 1.0
C      1  0.4941220000000  0.4938860000000  0.5594440000000 1.0
C      1  0.4938240000000  0.5548300000000  0.4738620000000 1.0
C      1  0.4929710000000  0.4504920000000  0.4648680000000 1.0
C      1  0.4141850000000  0.4489120000000  0.5138360000000 1.0
C      1  0.4147600000000  0.5383940000000  0.5372800000000 1.0
C      1  0.4138280000000  0.5139960000000  0.4483370000000 1.0
C      1  0.5876570000000  0.5077250000000  0.4480270000000 1.0
C      1  0.5898430000000  0.4516720000000  0.5213610000000 1.0
C      1  0.5890240000000  0.5423580000000  0.5319850000000 1.0
C      1  0.4497360000000  0.5896250000000  0.5405340000000 1.0
C      1  0.4493060000000  0.4909810000000  0.4017710000000 1.0
C      1  0.4490390000000  0.4209520000000  0.5567110000000 1.0
C      1  0.4310920000000  0.5201670000000  0.5010480000000 1.0
C      1  0.4297910000000  0.4919590000000  0.4828610000000 1.0
C      1  0.4307460000000  0.4893660000000  0.5158300000000 1.0
C      1  0.5502660000000  0.4386570000000  0.5529430000000 1.0
C      1  0.5488020000000  0.5751030000000  0.5266440000000 1.0
C      1  0.5474880000000  0.4861030000000  0.4234670000000 1.0
C      1  0.4290020000000  0.5677380000000  0.4670080000000 1.0
C      1  0.4278300000000  0.4371890000000  0.4579710000000 1.0
C      1  0.4294500000000  0.4956460000000  0.5740490000000 1.0
C      1  0.4608500000000  0.5779390000000  0.4476990000000 1.0
C      1  0.4604980000000  0.4161860000000  0.4577580000000 1.0
C      1  0.4615540000000  0.5061290000000  0.5924820000000 1.0
C      1  0.5256530000000  0.3976850000000  0.4590300000000 1.0
C      1  0.5260180000000  0.5148890000000  0.6093660000000 1.0
C      1  0.5250700000000  0.5891580000000  0.4315810000000 1.0
C      1  0.4844790000000  0.5586670000000  0.5232490000000 1.0
C      1  0.4836610000000  0.4913010000000  0.4372940000000 1.0
C      1  0.4826880000000  0.4489360000000  0.5403650000000 1.0
C      1  0.4903020000000  0.4184550000000  0.5413480000000 1.0
C      1  0.4930060000000  0.5782720000000  0.5536840000000 1.0
C      1  0.4905090000000  0.5064760000000  0.4098570000000 1.0
C      1  0.4581680000000  0.5317250000000  0.4993110000000 1.0
C      1  0.4554340000000  0.4841010000000  0.4710770000000 1.0
C      1  0.4574270000000  0.4841230000000  0.5267710000000 1.0
C      1  0.5912670000000  0.4996530000000  0.5005630000000 1.0
C      1  0.5602430000000  0.4991180000000  0.5006650000000 1.0
END
