TITL C-3578194-7807-432 -1.2887140423989e-06 125000 -860.140661166661 0 0 139 (C1) n - 1
REM
REM in /home/bkarasulu/work/CARBON/AIRSS/Generating-Clusters/EDIP-Nigel-Params/with-SteepDescent/Higher-Symm/SD-CG/HFTN-CG
REM
REM
REM
REM
REM
REM ./C.cell (12c818d87b63d06a65506943cc24bca4)
REM
REM compiler GCC version 9.2.1 20190827 (Red Hat 9.2.1-1)
REM options -cpp -mtune=generic -march=x86-64 -g -O0 -fpre-include=/usr/include/finclude/math-vector-fortran.h
REM seed -2100595313 892725710 -726180422 1777479899 1482140364 -1876070934 -1594330888 -1758769068 -2082267224 1808804102 -1187940415 -582984300 675511482 -429742695 -1027419145 -922451592 -1424748161 -281334127 -1957746344 1341860441 549641007 424878267 233822985 564860697 -1452972691 -897718851 -1220587163 -1085200053 -882830289 -1046987193 346385397 731424547 954154694
REM
CELL 1.54180   50.00000   50.00000   50.00000   90.00000   90.00000   90.00000
LATT -1
SFAC C  
C      1  0.4720420000000  0.4757080000000  0.5277730000000 1.0
C      1  0.5305000000000  0.5250660000000  0.5300250000000 1.0
C      1  0.4668110000000  0.4724650000000  0.4635180000000 1.0
C      1  0.5220320000000  0.5245690000000  0.4701500000000 1.0
C      1  0.4720960000000  0.5231020000000  0.5279500000000 1.0
C      1  0.5317130000000  0.4746550000000  0.5309230000000 1.0
C      1  0.4678900000000  0.5265880000000  0.4635990000000 1.0
C      1  0.5214790000000  0.4747110000000  0.4718870000000 1.0
C      1  0.4697450000000  0.4749890000000  0.4119340000000 1.0
C      1  0.5298820000000  0.5231730000000  0.4191580000000 1.0
C      1  0.4713320000000  0.4762580000000  0.5826740000000 1.0
C      1  0.5332420000000  0.5292550000000  0.5803150000000 1.0
C      1  0.4702810000000  0.5271140000000  0.4126310000000 1.0
C      1  0.5307670000000  0.4713050000000  0.4196350000000 1.0
C      1  0.4721070000000  0.5220950000000  0.5833930000000 1.0
C      1  0.5316120000000  0.4746110000000  0.5838750000000 1.0
C      1  0.5272330000000  0.5494880000000  0.4099410000000 1.0
C      1  0.4724670000000  0.4479770000000  0.4048950000000 1.0
C      1  0.5381130000000  0.5584670000000  0.5755710000000 1.0
C      1  0.4700360000000  0.4477670000000  0.5870860000000 1.0
C      1  0.5265930000000  0.4467650000000  0.4063860000000 1.0
C      1  0.4701250000000  0.5560040000000  0.4107080000000 1.0
C      1  0.5309470000000  0.4462750000000  0.5912610000000 1.0
C      1  0.4714620000000  0.5506660000000  0.5882330000000 1.0
C      1  0.4396520000000  0.5282450000000  0.5314480000000 1.0
C      1  0.5629930000000  0.4700750000000  0.5335110000000 1.0
C      1  0.4391180000000  0.5168640000000  0.4601660000000 1.0
C      1  0.5508630000000  0.4697940000000  0.4700230000000 1.0
C      1  0.4397050000000  0.4712550000000  0.5295560000000 1.0
C      1  0.5611540000000  0.5326250000000  0.5331380000000 1.0
C      1  0.4381770000000  0.4839730000000  0.4596440000000 1.0
C      1  0.5525420000000  0.5277490000000  0.4627370000000 1.0
C      1  0.5576150000000  0.4832760000000  0.4190070000000 1.0
C      1  0.4428910000000  0.5159140000000  0.4094920000000 1.0
C      1  0.5592090000000  0.4858250000000  0.5843870000000 1.0
C      1  0.4445010000000  0.5129360000000  0.5847370000000 1.0
C      1  0.5568340000000  0.5122100000000  0.4227440000000 1.0
C      1  0.4422590000000  0.4862560000000  0.4088340000000 1.0
C      1  0.5600280000000  0.5156260000000  0.5821340000000 1.0
C      1  0.4439240000000  0.4849380000000  0.5838080000000 1.0
C      1  0.4236400000000  0.5283320000000  0.4828950000000 1.0
C      1  0.5721650000000  0.4857210000000  0.4802000000000 1.0
C      1  0.4268950000000  0.5148820000000  0.5085630000000 1.0
C      1  0.5809010000000  0.4875210000000  0.5173100000000 1.0
C      1  0.4223090000000  0.4760400000000  0.4822970000000 1.0
C      1  0.5679850000000  0.5137900000000  0.4840440000000 1.0
C      1  0.4273240000000  0.4867700000000  0.5074330000000 1.0
C      1  0.5761390000000  0.5162020000000  0.5121470000000 1.0
C      1  0.4276510000000  0.5187970000000  0.5599560000000 1.0
C      1  0.5798860000000  0.4719420000000  0.5683160000000 1.0
C      1  0.4260170000000  0.5258890000000  0.4321260000000 1.0
C      1  0.5805050000000  0.4675260000000  0.4236330000000 1.0
C      1  0.4275140000000  0.4795960000000  0.5586090000000 1.0
C      1  0.5780130000000  0.5251560000000  0.5602660000000 1.0
C      1  0.4243490000000  0.4762220000000  0.4308400000000 1.0
C      1  0.5784660000000  0.5280850000000  0.4335520000000 1.0
C      1  0.5592650000000  0.5646580000000  0.5546780000000 1.0
C      1  0.4449250000000  0.4359780000000  0.5770090000000 1.0
C      1  0.5580780000000  0.5576920000000  0.4598090000000 1.0
C      1  0.4399890000000  0.4404600000000  0.4503340000000 1.0
C      1  0.5498480000000  0.4443040000000  0.5582960000000 1.0
C      1  0.4453020000000  0.5619740000000  0.5798420000000 1.0
C      1  0.5582450000000  0.4438010000000  0.4580270000000 1.0
C      1  0.4471610000000  0.5577060000000  0.4413080000000 1.0
C      1  0.4691690000000  0.5791660000000  0.5548110000000 1.0
C      1  0.5286790000000  0.4126290000000  0.5562730000000 1.0
C      1  0.4718390000000  0.5871240000000  0.4471710000000 1.0
C      1  0.5294420000000  0.4216320000000  0.4454490000000 1.0
C      1  0.4709510000000  0.4181330000000  0.5546410000000 1.0
C      1  0.5183960000000  0.5933190000000  0.5505520000000 1.0
C      1  0.4649310000000  0.4227200000000  0.4445260000000 1.0
C      1  0.5337640000000  0.5744140000000  0.4488030000000 1.0
C      1  0.4203890000000  0.5640620000000  0.4758830000000 1.0
C      1  0.5842710000000  0.4254740000000  0.4868350000000 1.0
C      1  0.4253000000000  0.5555710000000  0.5263690000000 1.0
C      1  0.5747080000000  0.4321120000000  0.5143380000000 1.0
C      1  0.4203890000000  0.4269370000000  0.4713630000000 1.0
C      1  0.5840310000000  0.5782760000000  0.4871720000000 1.0
C      1  0.4265580000000  0.4427870000000  0.5242350000000 1.0
C      1  0.5759340000000  0.5685320000000  0.5141220000000 1.0
C      1  0.5126930000000  0.4823980000000  0.4424870000000 1.0
C      1  0.4812900000000  0.5160140000000  0.4390000000000 1.0
C      1  0.5182470000000  0.4840800000000  0.5578580000000 1.0
C      1  0.4854700000000  0.5151850000000  0.5564250000000 1.0
C      1  0.5124170000000  0.5146670000000  0.4421080000000 1.0
C      1  0.4807860000000  0.4833560000000  0.4389660000000 1.0
C      1  0.5181120000000  0.5166310000000  0.5569640000000 1.0
C      1  0.4852490000000  0.4838590000000  0.5563420000000 1.0
C      1  0.5890070000000  0.4349460000000  0.5382190000000 1.0
C      1  0.4091040000000  0.5619340000000  0.5488620000000 1.0
C      1  0.5961240000000  0.4407230000000  0.4654420000000 1.0
C      1  0.4102460000000  0.5703400000000  0.4503080000000 1.0
C      1  0.5940940000000  0.5656230000000  0.5364060000000 1.0
C      1  0.4090440000000  0.4370570000000  0.5459040000000 1.0
C      1  0.5959590000000  0.5654120000000  0.4643050000000 1.0
C      1  0.4032630000000  0.4294940000000  0.4463340000000 1.0
C      1  0.4886810000000  0.4355180000000  0.5688960000000 1.0
C      1  0.5141690000000  0.5748940000000  0.5710760000000 1.0
C      1  0.4843230000000  0.4359840000000  0.4271380000000 1.0
C      1  0.5147220000000  0.5631220000000  0.4306530000000 1.0
C      1  0.4883710000000  0.5628160000000  0.5682240000000 1.0
C      1  0.5144310000000  0.4262970000000  0.5776250000000 1.0
C      1  0.4869290000000  0.5719790000000  0.4277000000000 1.0
C      1  0.5127740000000  0.4309110000000  0.4245760000000 1.0
C      1  0.4421190000000  0.5781920000000  0.5163200000000 1.0
C      1  0.5514300000000  0.4138770000000  0.5139700000000 1.0
C      1  0.4414530000000  0.5816820000000  0.4866500000000 1.0
C      1  0.5479980000000  0.4121120000000  0.4852860000000 1.0
C      1  0.4436100000000  0.4194080000000  0.5157730000000 1.0
C      1  0.5516680000000  0.5856970000000  0.5164770000000 1.0
C      1  0.4438950000000  0.4146970000000  0.4863330000000 1.0
C      1  0.5474120000000  0.5900100000000  0.4880530000000 1.0
C      1  0.5235780000000  0.4216530000000  0.4730420000000 1.0
C      1  0.4683800000000  0.5779290000000  0.4742470000000 1.0
C      1  0.5271950000000  0.4216910000000  0.5284690000000 1.0
C      1  0.4692780000000  0.5747680000000  0.5266800000000 1.0
C      1  0.5233340000000  0.5798510000000  0.4750020000000 1.0
C      1  0.4709860000000  0.4199120000000  0.4737340000000 1.0
C      1  0.5262290000000  0.5771520000000  0.5283840000000 1.0
C      1  0.4705440000000  0.4233040000000  0.5266950000000 1.0
C      1  0.5814020000000  0.5560700000000  0.4405420000000 1.0
C      1  0.4189010000000  0.4465480000000  0.4270510000000 1.0
C      1  0.5867800000000  0.5538110000000  0.5620130000000 1.0
C      1  0.4214230000000  0.4505430000000  0.5673190000000 1.0
C      1  0.5825520000000  0.4448250000000  0.4397140000000 1.0
C      1  0.4177100000000  0.5554980000000  0.4274870000000 1.0
C      1  0.5797510000000  0.4427320000000  0.5633580000000 1.0
C      1  0.4217330000000  0.5477350000000  0.5696330000000 1.0
C      1  0.5149080000000  0.5506050000000  0.5168010000000 1.0
C      1  0.4830620000000  0.4491830000000  0.5168340000000 1.0
C      1  0.5118670000000  0.5519760000000  0.4830430000000 1.0
C      1  0.4796000000000  0.4482060000000  0.4817120000000 1.0
C      1  0.5159590000000  0.4485530000000  0.5180310000000 1.0
C      1  0.4825820000000  0.5494850000000  0.5161820000000 1.0
C      1  0.5114740000000  0.4478310000000  0.4830980000000 1.0
C      1  0.4793980000000  0.5505630000000  0.4812200000000 1.0
C      1  0.5289750000000  0.4995960000000  0.5144910000000 1.0
C      1  0.4809070000000  0.4992810000000  0.5086940000000 1.0
C      1  0.5104750000000  0.4992390000000  0.4921520000000 1.0
END
