TITL C-3577081-279-93 -1.40408648830968e-06 125000 -166.903562974604 0 0 29 (C1) n - 1
REM
REM in /home/bkarasulu/work/CARBON/AIRSS/Generating-Clusters/EDIP-Nigel-Params/with-SteepDescent/Higher-Symm/SD-CG/HFTN-CG
REM
REM
REM
REM
REM
REM ./C.cell (12c818d87b63d06a65506943cc24bca4)
REM
REM compiler GCC version 9.2.1 20190827 (Red Hat 9.2.1-1)
REM options -cpp -mtune=generic -march=x86-64 -g -O0 -fpre-include=/usr/include/finclude/math-vector-fortran.h
REM seed -864757532 -1712165230 -137561393 -1634341875 -1281670032 1046123362 1204186828 52420156 576378053 1268234955 -2060114118 -1371876342 740710193 -678305100 1932401898 -2102732566 -1298863667 1788125673 -1206960610 1224999494 2068811163 275402970 1137840899 -1995521088 -2112733680 -1282695900 -624186290 -1127726994 485450137 2091058503 1995093639 -1088500963 1666750055
REM
CELL 1.54180   50.00000   50.00000   50.00000   90.00000   90.00000   90.00000
LATT -1
SFAC C  
C      1  0.4755160000000  0.4737510000000  0.4890540000000 1.0
C      1  0.4905290000000  0.4667510000000  0.5130260000000 1.0
C      1  0.5194320000000  0.4613210000000  0.5064930000000 1.0
C      1  0.5248730000000  0.4634330000000  0.4785980000000 1.0
C      1  0.4827570000000  0.5293590000000  0.4928960000000 1.0
C      1  0.4913050000000  0.5449240000000  0.5165070000000 1.0
C      1  0.5205350000000  0.5476440000000  0.5076330000000 1.0
C      1  0.5235850000000  0.5428990000000  0.4793480000000 1.0
C      1  0.5229770000000  0.5253170000000  0.4567600000000 1.0
C      1  0.4544200000000  0.5268050000000  0.4857090000000 1.0
C      1  0.4880130000000  0.5277300000000  0.5404660000000 1.0
C      1  0.5371250000000  0.5283710000000  0.5220050000000 1.0
C      1  0.5236510000000  0.4809120000000  0.4563380000000 1.0
C      1  0.4486450000000  0.4832840000000  0.4827920000000 1.0
C      1  0.4860430000000  0.4829730000000  0.5381170000000 1.0
C      1  0.5365820000000  0.4796780000000  0.5214970000000 1.0
C      1  0.5060550000000  0.5043310000000  0.5418840000000 1.0
C      1  0.5312640000000  0.5042970000000  0.5050350000000 1.0
C      1  0.5021400000000  0.5027050000000  0.4618770000000 1.0
C      1  0.4359880000000  0.4988180000000  0.5041200000000 1.0
C      1  0.4377430000000  0.4907320000000  0.5304500000000 1.0
C      1  0.4762470000000  0.5033100000000  0.4484660000000 1.0
C      1  0.5218670000000  0.5027310000000  0.5663920000000 1.0
C      1  0.5510770000000  0.5043510000000  0.4839560000000 1.0
C      1  0.4620830000000  0.4996930000000  0.5398090000000 1.0
C      1  0.5459320000000  0.5033910000000  0.4564240000000 1.0
C      1  0.4522920000000  0.5063140000000  0.4635180000000 1.0
C      1  0.5449410000000  0.5036200000000  0.5496240000000 1.0
C      1  0.4991480000000  0.5038600000000  0.4917500000000 1.0
END
