TITL C-3577081-279-700 -2.00017306938409e-06 125000 -1021.74002840006 0 0 163 (C1) n - 1
REM
REM in /home/bkarasulu/work/CARBON/AIRSS/Generating-Clusters/EDIP-Nigel-Params/with-SteepDescent/Higher-Symm/SD-CG/HFTN-CG
REM
REM
REM
REM
REM
REM ./C.cell (12c818d87b63d06a65506943cc24bca4)
REM
REM compiler GCC version 9.2.1 20190827 (Red Hat 9.2.1-1)
REM options -cpp -mtune=generic -march=x86-64 -g -O0 -fpre-include=/usr/include/finclude/math-vector-fortran.h
REM seed 1325083112 440783289 -1332942857 -1283917739 409115017 983087803 258874079 -616399204 208440080 1107144019 1830190193 1930882370 1700747513 309099800 1703375594 -1994573035 1960728503 1171762087 1780690306 -386179564 -1206725751 1591020152 -1265829150 1410772978 943413906 -2097337004 -700995640 -865679637 1222260206 1733303197 -335798357 1932648935 13826245
REM
CELL 1.54180   50.00000   50.00000   50.00000   90.00000   90.00000   90.00000
LATT -1
SFAC C  
C      1  0.5059920000000  0.4912710000000  0.4571250000000 1.0
C      1  0.5035650000000  0.5087790000000  0.5582130000000 1.0
C      1  0.5681730000000  0.4270830000000  0.4493710000000 1.0
C      1  0.4317660000000  0.5719040000000  0.5499410000000 1.0
C      1  0.4761750000000  0.5993220000000  0.4815560000000 1.0
C      1  0.5235130000000  0.4039490000000  0.5204010000000 1.0
C      1  0.5578370000000  0.5761900000000  0.5110130000000 1.0
C      1  0.4418060000000  0.4247790000000  0.4881970000000 1.0
C      1  0.5508580000000  0.5149970000000  0.5795730000000 1.0
C      1  0.4476200000000  0.4734910000000  0.4168870000000 1.0
C      1  0.5148900000000  0.5526890000000  0.4073350000000 1.0
C      1  0.4765360000000  0.4471940000000  0.5947080000000 1.0
C      1  0.5208200000000  0.5560560000000  0.5808640000000 1.0
C      1  0.4803930000000  0.4379800000000  0.4146480000000 1.0
C      1  0.5653800000000  0.5648800000000  0.5617430000000 1.0
C      1  0.4322660000000  0.4325390000000  0.4392420000000 1.0
C      1  0.4097220000000  0.4959530000000  0.5541260000000 1.0
C      1  0.5906980000000  0.5045270000000  0.4438230000000 1.0
C      1  0.5038700000000  0.5779730000000  0.5386150000000 1.0
C      1  0.4961390000000  0.4228570000000  0.4605500000000 1.0
C      1  0.5904060000000  0.4592560000000  0.4828410000000 1.0
C      1  0.4094550000000  0.5397350000000  0.5153390000000 1.0
C      1  0.4412890000000  0.4879510000000  0.5872500000000 1.0
C      1  0.5587800000000  0.5087250000000  0.4099690000000 1.0
C      1  0.5042360000000  0.5043360000000  0.4848520000000 1.0
C      1  0.4927950000000  0.5051770000000  0.5323230000000 1.0
C      1  0.5354680000000  0.4084720000000  0.4939910000000 1.0
C      1  0.4634330000000  0.5942330000000  0.5072070000000 1.0
C      1  0.5643060000000  0.5353510000000  0.4158910000000 1.0
C      1  0.4335280000000  0.4619140000000  0.5791120000000 1.0
C      1  0.4671300000000  0.4000300000000  0.4539870000000 1.0
C      1  0.5328980000000  0.6011040000000  0.5462740000000 1.0
C      1  0.4178820000000  0.5019250000000  0.4571050000000 1.0
C      1  0.5891940000000  0.4977240000000  0.5409510000000 1.0
C      1  0.6068110000000  0.4888730000000  0.5183640000000 1.0
C      1  0.3998060000000  0.5093830000000  0.4791330000000 1.0
C      1  0.4965060000000  0.4861500000000  0.5768280000000 1.0
C      1  0.5194170000000  0.5135240000000  0.4422930000000 1.0
C      1  0.4856660000000  0.4606560000000  0.3980450000000 1.0
C      1  0.5134470000000  0.5354910000000  0.5993740000000 1.0
C      1  0.4442950000000  0.4747900000000  0.5239180000000 1.0
C      1  0.5520050000000  0.5245190000000  0.4751140000000 1.0
C      1  0.4828680000000  0.5097700000000  0.4178420000000 1.0
C      1  0.5183650000000  0.4667560000000  0.5869630000000 1.0
C      1  0.5654650000000  0.5073230000000  0.5263780000000 1.0
C      1  0.4429550000000  0.4925100000000  0.4740260000000 1.0
C      1  0.5318080000000  0.5163910000000  0.5554550000000 1.0
C      1  0.4807870000000  0.4904360000000  0.4424480000000 1.0
C      1  0.4244560000000  0.5087960000000  0.5772520000000 1.0
C      1  0.5770670000000  0.4897980000000  0.4207170000000 1.0
C      1  0.5002040000000  0.4626470000000  0.5301920000000 1.0
C      1  0.4942610000000  0.5325070000000  0.4762350000000 1.0
C      1  0.5162910000000  0.5024650000000  0.3996500000000 1.0
C      1  0.4786960000000  0.4989490000000  0.6088990000000 1.0
C      1  0.4085500000000  0.4740480000000  0.4462220000000 1.0
C      1  0.5964040000000  0.5246810000000  0.5537660000000 1.0
C      1  0.4976560000000  0.5554720000000  0.4320540000000 1.0
C      1  0.5033420000000  0.4414100000000  0.5837510000000 1.0
C      1  0.5827200000000  0.4724640000000  0.5564120000000 1.0
C      1  0.4234300000000  0.5301850000000  0.4407570000000 1.0
C      1  0.4881360000000  0.5487290000000  0.4999720000000 1.0
C      1  0.5094430000000  0.4538180000000  0.5010200000000 1.0
C      1  0.4953960000000  0.3960510000000  0.5236380000000 1.0
C      1  0.5040920000000  0.6074470000000  0.4775510000000 1.0
C      1  0.4424000000000  0.4148310000000  0.4593130000000 1.0
C      1  0.5557240000000  0.5838610000000  0.5405030000000 1.0
C      1  0.4454810000000  0.5252220000000  0.5168410000000 1.0
C      1  0.5512330000000  0.4787500000000  0.4843330000000 1.0
C      1  0.5091080000000  0.5585340000000  0.5163960000000 1.0
C      1  0.4904880000000  0.4429630000000  0.4816530000000 1.0
C      1  0.4787530000000  0.3958910000000  0.4999010000000 1.0
C      1  0.5220900000000  0.6066100000000  0.5000290000000 1.0
C      1  0.5357070000000  0.5451400000000  0.5474520000000 1.0
C      1  0.4659400000000  0.4639120000000  0.4392200000000 1.0
C      1  0.4624450000000  0.4479280000000  0.4890150000000 1.0
C      1  0.5361810000000  0.5535530000000  0.5049300000000 1.0
C      1  0.5054800000000  0.5284710000000  0.3939170000000 1.0
C      1  0.4748110000000  0.4709280000000  0.6105530000000 1.0
C      1  0.4564120000000  0.4451070000000  0.5744500000000 1.0
C      1  0.5427160000000  0.5526450000000  0.4120450000000 1.0
C      1  0.4371550000000  0.5832290000000  0.5042400000000 1.0
C      1  0.5614030000000  0.4198870000000  0.4960470000000 1.0
C      1  0.4787280000000  0.4706440000000  0.5575250000000 1.0
C      1  0.5129820000000  0.5405990000000  0.4548410000000 1.0
C      1  0.4688470000000  0.5324240000000  0.4600440000000 1.0
C      1  0.5320270000000  0.4696330000000  0.5409660000000 1.0
C      1  0.4828240000000  0.4116640000000  0.5457880000000 1.0
C      1  0.5151610000000  0.5952110000000  0.4540050000000 1.0
C      1  0.5486600000000  0.4795880000000  0.4543080000000 1.0
C      1  0.4536900000000  0.5203060000000  0.5455180000000 1.0
C      1  0.6019950000000  0.5062620000000  0.4950740000000 1.0
C      1  0.4033550000000  0.4927270000000  0.5025390000000 1.0
C      1  0.4777690000000  0.5957260000000  0.5338440000000 1.0
C      1  0.5217970000000  0.4052170000000  0.4668030000000 1.0
C      1  0.4534290000000  0.4890080000000  0.5508090000000 1.0
C      1  0.5473610000000  0.5088120000000  0.4469360000000 1.0
C      1  0.4997920000000  0.5644100000000  0.5642610000000 1.0
C      1  0.4999200000000  0.4358990000000  0.4345080000000 1.0
C      1  0.4718570000000  0.5365380000000  0.4296670000000 1.0
C      1  0.5406430000000  0.4653950000000  0.5692740000000 1.0
C      1  0.5656320000000  0.4735040000000  0.5785870000000 1.0
C      1  0.4434710000000  0.5386070000000  0.4221990000000 1.0
C      1  0.4227080000000  0.5484880000000  0.4640770000000 1.0
C      1  0.5780650000000  0.4524090000000  0.5345910000000 1.0
C      1  0.5353200000000  0.5042760000000  0.4944330000000 1.0
C      1  0.4534290000000  0.4974550000000  0.5041800000000 1.0
C      1  0.4555800000000  0.4237930000000  0.5326200000000 1.0
C      1  0.5487440000000  0.5806360000000  0.4651820000000 1.0
C      1  0.5773880000000  0.5502210000000  0.4894150000000 1.0
C      1  0.4227320000000  0.4450700000000  0.5095190000000 1.0
C      1  0.4635490000000  0.5425270000000  0.5878500000000 1.0
C      1  0.5357960000000  0.4574320000000  0.4124890000000 1.0
C      1  0.4914280000000  0.5822250000000  0.4427780000000 1.0
C      1  0.5053590000000  0.4282600000000  0.5565480000000 1.0
C      1  0.4738460000000  0.5678370000000  0.5756810000000 1.0
C      1  0.5262030000000  0.4318070000000  0.4239660000000 1.0
C      1  0.4206210000000  0.5545110000000  0.5681670000000 1.0
C      1  0.5793570000000  0.4435710000000  0.4302180000000 1.0
C      1  0.4647560000000  0.4521250000000  0.5200960000000 1.0
C      1  0.5361310000000  0.5516710000000  0.4728410000000 1.0
C      1  0.5478800000000  0.4474930000000  0.5283000000000 1.0
C      1  0.4515000000000  0.5547980000000  0.4717420000000 1.0
C      1  0.5995940000000  0.5356100000000  0.5028080000000 1.0
C      1  0.4039140000000  0.4636550000000  0.4958330000000 1.0
C      1  0.5481690000000  0.5966030000000  0.4918020000000 1.0
C      1  0.4531100000000  0.4059330000000  0.5076420000000 1.0
C      1  0.5632940000000  0.5370690000000  0.5278410000000 1.0
C      1  0.4470500000000  0.4635310000000  0.4660200000000 1.0
C      1  0.5875080000000  0.4901520000000  0.4728770000000 1.0
C      1  0.4057500000000  0.5094600000000  0.5272020000000 1.0
C      1  0.6012410000000  0.5430400000000  0.5313540000000 1.0
C      1  0.4092480000000  0.4561880000000  0.4685320000000 1.0
C      1  0.5385610000000  0.4983220000000  0.5317940000000 1.0
C      1  0.4634300000000  0.5047810000000  0.4599980000000 1.0
C      1  0.5736320000000  0.4355260000000  0.4760750000000 1.0
C      1  0.4230570000000  0.5672120000000  0.5230500000000 1.0
C      1  0.5821780000000  0.5339960000000  0.4386750000000 1.0
C      1  0.4159450000000  0.4668640000000  0.5567220000000 1.0
C      1  0.4583920000000  0.5508840000000  0.5027140000000 1.0
C      1  0.5395670000000  0.4520430000000  0.4981730000000 1.0
C      1  0.4242670000000  0.4575660000000  0.4266900000000 1.0
C      1  0.5734420000000  0.5365130000000  0.5707730000000 1.0
C      1  0.4824470000000  0.3836230000000  0.4734060000000 1.0
C      1  0.5176920000000  0.6174440000000  0.5271890000000 1.0
C      1  0.5119850000000  0.4740760000000  0.4041210000000 1.0
C      1  0.4858740000000  0.5241990000000  0.5958390000000 1.0
C      1  0.4010360000000  0.4443620000000  0.5490440000000 1.0
C      1  0.5941920000000  0.5582300000000  0.4456210000000 1.0
C      1  0.5314930000000  0.4228800000000  0.5415300000000 1.0
C      1  0.4665510000000  0.5823210000000  0.4599710000000 1.0
C      1  0.5094830000000  0.3786490000000  0.4653740000000 1.0
C      1  0.4906500000000  0.6220390000000  0.5356870000000 1.0
C      1  0.4401950000000  0.5331370000000  0.5700200000000 1.0
C      1  0.5607450000000  0.4659680000000  0.4291830000000 1.0
C      1  0.5360650000000  0.5193440000000  0.6036680000000 1.0
C      1  0.4608810000000  0.4730230000000  0.3915790000000 1.0
C      1  0.4047010000000  0.5374200000000  0.4854630000000 1.0
C      1  0.5968960000000  0.4612490000000  0.5120340000000 1.0
C      1  0.5787340000000  0.5688260000000  0.4661690000000 1.0
C      1  0.4188170000000  0.4290710000000  0.5341470000000 1.0
C      1  0.5412620000000  0.4160260000000  0.4442200000000 1.0
C      1  0.4583930000000  0.5834830000000  0.5556770000000 1.0
C      1  0.4842910000000  0.4962190000000  0.5069120000000 1.0
END
