TITL C-3577082-504-332 -1.77572502067614e-07 125000 -115.054272656137 0 0 20 (C3) n - 1
REM
REM in /home/bkarasulu/work/CARBON/AIRSS/Generating-Clusters/EDIP-Nigel-Params/with-SteepDescent/Higher-Symm/SD-CG/HFTN-CG
REM
REM
REM
REM
REM
REM ./C.cell (12c818d87b63d06a65506943cc24bca4)
REM
REM compiler GCC version 9.2.1 20190827 (Red Hat 9.2.1-1)
REM options -cpp -mtune=generic -march=x86-64 -g -O0 -fpre-include=/usr/include/finclude/math-vector-fortran.h
REM seed -679084338 -1094801055 -1202338171 -1020294933 -1970846992 543372453 1918357242 -306572008 1052081652 1966462375 1078092295 1822959695 80688463 1327465437 1661658159 -7749848 -1849290521 1797043010 -480922350 -524534444 1703281961 -391788349 509081672 -1362603797 602787086 1098630372 1262488652 1500521405 983882059 1699207643 541579197 -198481231 -941508735
REM
CELL 1.54180   50.00000   50.00000   50.00000   90.00000   90.00000   90.00000
LATT -1
SFAC C  
C      1  0.4820370000000  0.5352240000000  0.5070170000000 1.0
C      1  0.4823410000000  0.4765140000000  0.5257950000000 1.0
C      1  0.4823730000000  0.4896070000000  0.4655610000000 1.0
C      1  0.5256870000000  0.5387520000000  0.5001400000000 1.0
C      1  0.5259610000000  0.4811490000000  0.5321890000000 1.0
C      1  0.5260730000000  0.4821970000000  0.4662780000000 1.0
C      1  0.4555450000000  0.5261390000000  0.5032860000000 1.0
C      1  0.4557570000000  0.4840180000000  0.5198530000000 1.0
C      1  0.4557990000000  0.4907310000000  0.4750920000000 1.0
C      1  0.5498750000000  0.5269630000000  0.4943870000000 1.0
C      1  0.5500200000000  0.4922710000000  0.5248000000000 1.0
C      1  0.5501520000000  0.4832790000000  0.4795490000000 1.0
C      1  0.5018830000000  0.4651410000000  0.5064740000000 1.0
C      1  0.5015070000000  0.5243150000000  0.5266760000000 1.0
C      1  0.5016860000000  0.5122240000000  0.4653280000000 1.0
C      1  0.5014950000000  0.5352820000000  0.4837850000000 1.0
C      1  0.5018840000000  0.4695960000000  0.4772760000000 1.0
C      1  0.5016210000000  0.4968020000000  0.5374170000000 1.0
C      1  0.5576640000000  0.5008820000000  0.4995930000000 1.0
C      1  0.4466710000000  0.5002440000000  0.4993940000000 1.0
END
