TITL C-3578195-8548-782 -1.5512655741041e-06 125000 -266.809785845776 0 0 44 (C1) n - 1
REM
REM in /home/bkarasulu/work/CARBON/AIRSS/Generating-Clusters/EDIP-Nigel-Params/with-SteepDescent/Higher-Symm/SD-CG/HFTN-CG
REM
REM
REM
REM
REM
REM ./C.cell (12c818d87b63d06a65506943cc24bca4)
REM
REM compiler GCC version 9.2.1 20190827 (Red Hat 9.2.1-1)
REM options -cpp -mtune=generic -march=x86-64 -g -O0 -fpre-include=/usr/include/finclude/math-vector-fortran.h
REM seed -1407300442 290439426 289640508 898276209 -1909025524 -1790644039 -537736361 1096685748 1367303706 741221001 488692414 -196804296 497365504 -355848714 1738595443 72421882 2091329506 -703006683 -19727563 -1243929527 -931555393 -1553844419 1145361755 -365673595 -1271992593 -1487578482 -2136465497 1345342939 1351204149 -1384199043 -556998309 1373993170 918472424
REM
CELL 1.54180   50.00000   50.00000   50.00000   90.00000   90.00000   90.00000
LATT -1
SFAC C  
C      1  0.4958620000000  0.4564260000000  0.5175870000000 1.0
C      1  0.4960440000000  0.5439140000000  0.5173150000000 1.0
C      1  0.5070350000000  0.5289930000000  0.5564350000000 1.0
C      1  0.5066590000000  0.4710560000000  0.5568560000000 1.0
C      1  0.5163000000000  0.5263900000000  0.4396270000000 1.0
C      1  0.5176500000000  0.4720280000000  0.4409630000000 1.0
C      1  0.4562520000000  0.5574740000000  0.4949330000000 1.0
C      1  0.4561200000000  0.4425360000000  0.4950850000000 1.0
C      1  0.4838980000000  0.5147530000000  0.5482390000000 1.0
C      1  0.4836620000000  0.4854440000000  0.5485930000000 1.0
C      1  0.5304050000000  0.4605980000000  0.5445310000000 1.0
C      1  0.5307410000000  0.5395750000000  0.5440330000000 1.0
C      1  0.4855170000000  0.4334830000000  0.4984260000000 1.0
C      1  0.4857840000000  0.5664830000000  0.4978180000000 1.0
C      1  0.5302570000000  0.5249020000000  0.4888880000000 1.0
C      1  0.5304750000000  0.4744780000000  0.4893940000000 1.0
C      1  0.5495440000000  0.5194900000000  0.5351510000000 1.0
C      1  0.5490720000000  0.4808160000000  0.5355620000000 1.0
C      1  0.4930360000000  0.5388620000000  0.4566180000000 1.0
C      1  0.4947170000000  0.4603060000000  0.4567770000000 1.0
C      1  0.5332450000000  0.5139510000000  0.4610500000000 1.0
C      1  0.5343950000000  0.4849150000000  0.4616140000000 1.0
C      1  0.5101080000000  0.4921450000000  0.4214370000000 1.0
C      1  0.4922220000000  0.5125820000000  0.4274730000000 1.0
C      1  0.4491610000000  0.4854310000000  0.5128090000000 1.0
C      1  0.4485330000000  0.5147670000000  0.5130290000000 1.0
C      1  0.4547360000000  0.4712030000000  0.4870210000000 1.0
C      1  0.4543970000000  0.5286640000000  0.4873350000000 1.0
C      1  0.5520290000000  0.5143170000000  0.5067410000000 1.0
C      1  0.5519920000000  0.4853030000000  0.5071630000000 1.0
C      1  0.4601940000000  0.5566790000000  0.5262230000000 1.0
C      1  0.4599810000000  0.4436100000000  0.5265440000000 1.0
C      1  0.5021560000000  0.4818820000000  0.4996980000000 1.0
C      1  0.5020700000000  0.5180100000000  0.5000060000000 1.0
C      1  0.4817790000000  0.4813950000000  0.4759070000000 1.0
C      1  0.4812480000000  0.5181550000000  0.4767150000000 1.0
C      1  0.5294380000000  0.5547380000000  0.4901560000000 1.0
C      1  0.5296640000000  0.4447110000000  0.4912030000000 1.0
C      1  0.5228440000000  0.5588710000000  0.5211780000000 1.0
C      1  0.5224510000000  0.4411130000000  0.5219330000000 1.0
C      1  0.5045490000000  0.4376140000000  0.4745510000000 1.0
C      1  0.5043290000000  0.5616230000000  0.4739470000000 1.0
C      1  0.4598230000000  0.5285500000000  0.5366470000000 1.0
C      1  0.4596220000000  0.4717650000000  0.5367920000000 1.0
END
