TITL C-3578195-8548-639 -3.79272935832755e-06 125000 -798.989595749416 0 0 128 (C1) n - 1
REM
REM in /home/bkarasulu/work/CARBON/AIRSS/Generating-Clusters/EDIP-Nigel-Params/with-SteepDescent/Higher-Symm/SD-CG/HFTN-CG
REM
REM
REM
REM
REM
REM ./C.cell (12c818d87b63d06a65506943cc24bca4)
REM
REM compiler GCC version 9.2.1 20190827 (Red Hat 9.2.1-1)
REM options -cpp -mtune=generic -march=x86-64 -g -O0 -fpre-include=/usr/include/finclude/math-vector-fortran.h
REM seed -1365309747 -1665495754 1713223024 755455469 -967168018 -459582772 1857662183 -255719376 -1640649376 -133764072 -378799703 -435885173 700392991 -787202936 -1781142362 768113832 1654857798 697941896 -365225531 287196002 -1052937744 -1101841770 -1469345160 1519655695 1859501969 -474646625 1199918890 1236257654 -583730059 11160563 -1317538605 678017340 561859350
REM
CELL 1.54180   50.00000   50.00000   50.00000   90.00000   90.00000   90.00000
LATT -1
SFAC C  
C      1  0.4760090000000  0.4675170000000  0.5301800000000 1.0
C      1  0.4789830000000  0.5279370000000  0.5299480000000 1.0
C      1  0.5339530000000  0.5031590000000  0.5273930000000 1.0
C      1  0.4974150000000  0.4594740000000  0.4724000000000 1.0
C      1  0.4804070000000  0.5303170000000  0.4684610000000 1.0
C      1  0.5432870000000  0.5163740000000  0.4710110000000 1.0
C      1  0.5677220000000  0.5573140000000  0.5275250000000 1.0
C      1  0.5171540000000  0.4037960000000  0.5304910000000 1.0
C      1  0.4160100000000  0.5269680000000  0.5248950000000 1.0
C      1  0.5713340000000  0.5605820000000  0.4751690000000 1.0
C      1  0.5187150000000  0.4103140000000  0.4741070000000 1.0
C      1  0.4152990000000  0.5258100000000  0.4755620000000 1.0
C      1  0.5378510000000  0.4974070000000  0.4425110000000 1.0
C      1  0.4823610000000  0.4751050000000  0.4473380000000 1.0
C      1  0.4794470000000  0.5407190000000  0.4389480000000 1.0
C      1  0.5387570000000  0.4981120000000  0.5582610000000 1.0
C      1  0.4727620000000  0.4658610000000  0.5605090000000 1.0
C      1  0.4819440000000  0.5389140000000  0.5596590000000 1.0
C      1  0.5813210000000  0.5083160000000  0.5564690000000 1.0
C      1  0.4704630000000  0.4219620000000  0.5574190000000 1.0
C      1  0.4470780000000  0.5647590000000  0.5547800000000 1.0
C      1  0.5801450000000  0.5105760000000  0.4465400000000 1.0
C      1  0.4687670000000  0.4238340000000  0.4475840000000 1.0
C      1  0.4468840000000  0.5619310000000  0.4428570000000 1.0
C      1  0.5559340000000  0.4630840000000  0.4322540000000 1.0
C      1  0.4425080000000  0.4687220000000  0.4393820000000 1.0
C      1  0.5082140000000  0.5726800000000  0.4310530000000 1.0
C      1  0.5547550000000  0.4616650000000  0.5657020000000 1.0
C      1  0.4349460000000  0.4698920000000  0.5722380000000 1.0
C      1  0.5050760000000  0.5699220000000  0.5703510000000 1.0
C      1  0.5540860000000  0.4357700000000  0.5235740000000 1.0
C      1  0.4183450000000  0.4828330000000  0.5272700000000 1.0
C      1  0.5270980000000  0.5807470000000  0.5272940000000 1.0
C      1  0.5581110000000  0.4332150000000  0.4718010000000 1.0
C      1  0.4141110000000  0.4813360000000  0.4764990000000 1.0
C      1  0.5288870000000  0.5823840000000  0.4744310000000 1.0
C      1  0.5599510000000  0.5104290000000  0.5145850000000 1.0
C      1  0.4868890000000  0.4440030000000  0.5167270000000 1.0
C      1  0.4633770000000  0.5463700000000  0.5133980000000 1.0
C      1  0.5635380000000  0.5052440000000  0.4873200000000 1.0
C      1  0.4774590000000  0.4458780000000  0.4888910000000 1.0
C      1  0.4610680000000  0.5432800000000  0.4849770000000 1.0
C      1  0.4813410000000  0.5799490000000  0.4425720000000 1.0
C      1  0.5781420000000  0.4802390000000  0.4448060000000 1.0
C      1  0.4421030000000  0.4392740000000  0.4463740000000 1.0
C      1  0.4761100000000  0.5777260000000  0.5564890000000 1.0
C      1  0.5778140000000  0.4781030000000  0.5547770000000 1.0
C      1  0.4438270000000  0.4397180000000  0.5594610000000 1.0
C      1  0.4942860000000  0.4543370000000  0.4163980000000 1.0
C      1  0.4553390000000  0.5268760000000  0.4116860000000 1.0
C      1  0.5437010000000  0.5230350000000  0.4144050000000 1.0
C      1  0.4963430000000  0.4507420000000  0.5870560000000 1.0
C      1  0.4576960000000  0.5287460000000  0.5875760000000 1.0
C      1  0.5422310000000  0.5202070000000  0.5895170000000 1.0
C      1  0.5241200000000  0.4464570000000  0.4844170000000 1.0
C      1  0.4440290000000  0.5027340000000  0.4864690000000 1.0
C      1  0.5376860000000  0.5463540000000  0.4845730000000 1.0
C      1  0.5198230000000  0.4508320000000  0.5139560000000 1.0
C      1  0.4471070000000  0.5063220000000  0.5173880000000 1.0
C      1  0.5336410000000  0.5451920000000  0.5148780000000 1.0
C      1  0.5434690000000  0.4396870000000  0.5491070000000 1.0
C      1  0.4261380000000  0.4907510000000  0.5528980000000 1.0
C      1  0.5287200000000  0.5673770000000  0.5522980000000 1.0
C      1  0.5455510000000  0.4388130000000  0.4468640000000 1.0
C      1  0.4232120000000  0.4877980000000  0.4504140000000 1.0
C      1  0.5317360000000  0.5705960000000  0.4487840000000 1.0
C      1  0.5101470000000  0.4749840000000  0.5826870000000 1.0
C      1  0.4700900000000  0.5033340000000  0.5837080000000 1.0
C      1  0.5143840000000  0.5231550000000  0.5849060000000 1.0
C      1  0.5110210000000  0.4772870000000  0.4142840000000 1.0
C      1  0.4709910000000  0.5038560000000  0.4162310000000 1.0
C      1  0.5153640000000  0.5257790000000  0.4172410000000 1.0
C      1  0.6050710000000  0.4911680000000  0.5158850000000 1.0
C      1  0.4451650000000  0.4141010000000  0.5175480000000 1.0
C      1  0.4531190000000  0.5919280000000  0.5140820000000 1.0
C      1  0.6061050000000  0.4915780000000  0.4850250000000 1.0
C      1  0.4435310000000  0.4122350000000  0.4875430000000 1.0
C      1  0.4541660000000  0.5906290000000  0.4833230000000 1.0
C      1  0.5065360000000  0.5270550000000  0.5147110000000 1.0
C      1  0.5162140000000  0.4838850000000  0.5086020000000 1.0
C      1  0.4835010000000  0.4898780000000  0.5119850000000 1.0
C      1  0.5018270000000  0.5205740000000  0.4854250000000 1.0
C      1  0.5181680000000  0.4972650000000  0.4767770000000 1.0
C      1  0.4726220000000  0.4887890000000  0.4806490000000 1.0
C      1  0.4301690000000  0.4347310000000  0.5326050000000 1.0
C      1  0.4790650000000  0.5933160000000  0.5300160000000 1.0
C      1  0.5912140000000  0.4681470000000  0.5297490000000 1.0
C      1  0.4271830000000  0.4327320000000  0.4721910000000 1.0
C      1  0.4808080000000  0.5929670000000  0.4695310000000 1.0
C      1  0.5928520000000  0.4688580000000  0.4688110000000 1.0
C      1  0.4736800000000  0.4172740000000  0.5277200000000 1.0
C      1  0.4430780000000  0.5649880000000  0.5247590000000 1.0
C      1  0.5867770000000  0.5139460000000  0.5271310000000 1.0
C      1  0.4711450000000  0.4188090000000  0.4773700000000 1.0
C      1  0.4431120000000  0.5635980000000  0.4732030000000 1.0
C      1  0.5887310000000  0.5146970000000  0.4756650000000 1.0
C      1  0.5614500000000  0.5282710000000  0.5688160000000 1.0
C      1  0.4965910000000  0.4295730000000  0.5678200000000 1.0
C      1  0.4390280000000  0.5392410000000  0.5681050000000 1.0
C      1  0.5628980000000  0.5317730000000  0.4343420000000 1.0
C      1  0.4943820000000  0.4343130000000  0.4366050000000 1.0
C      1  0.4365700000000  0.5366560000000  0.4307620000000 1.0
C      1  0.5191280000000  0.4243590000000  0.5497070000000 1.0
C      1  0.4239480000000  0.5197850000000  0.5518010000000 1.0
C      1  0.5542200000000  0.5526620000000  0.5526940000000 1.0
C      1  0.5197790000000  0.4235270000000  0.4474470000000 1.0
C      1  0.4254830000000  0.5170550000000  0.4500140000000 1.0
C      1  0.5588420000000  0.5576920000000  0.4482010000000 1.0
C      1  0.4540540000000  0.4811570000000  0.5908970000000 1.0
C      1  0.5035980000000  0.5487310000000  0.5902930000000 1.0
C      1  0.5380890000000  0.4725060000000  0.5870030000000 1.0
C      1  0.4577750000000  0.4786690000000  0.4172070000000 1.0
C      1  0.5053870000000  0.5516750000000  0.4121450000000 1.0
C      1  0.5391490000000  0.4743830000000  0.4112370000000 1.0
C      1  0.5757980000000  0.4502300000000  0.5129100000000 1.0
C      1  0.4204630000000  0.4567800000000  0.5166860000000 1.0
C      1  0.5032560000000  0.5892270000000  0.5146330000000 1.0
C      1  0.5783650000000  0.4486760000000  0.4843930000000 1.0
C      1  0.4193390000000  0.4560180000000  0.4882200000000 1.0
C      1  0.5041530000000  0.5896480000000  0.4861200000000 1.0
C      1  0.4936590000000  0.3976120000000  0.5164830000000 1.0
C      1  0.4166170000000  0.5541840000000  0.5145120000000 1.0
C      1  0.5908100000000  0.5425740000000  0.5174000000000 1.0
C      1  0.4939340000000  0.4005820000000  0.4862940000000 1.0
C      1  0.4165930000000  0.5535330000000  0.4842890000000 1.0
C      1  0.5922610000000  0.5433220000000  0.4867800000000 1.0
C      1  0.4979850000000  0.5002180000000  0.5891840000000 1.0
C      1  0.4990740000000  0.5031520000000  0.4103050000000 1.0
END
