TITL C-3578205-846-726 -5.13646955808212e-07 125000 -209.239912249799 0 0 37 (C1) n - 1
REM
REM in /home/bkarasulu/work/CARBON/AIRSS/Generating-Clusters/EDIP-Nigel-Params/with-SteepDescent/Higher-Symm/SD-CG/HFTN-CG
REM
REM
REM
REM
REM
REM ./C.cell (12c818d87b63d06a65506943cc24bca4)
REM
REM compiler GCC version 9.2.1 20190827 (Red Hat 9.2.1-1)
REM options -cpp -mtune=generic -march=x86-64 -g -O0 -fpre-include=/usr/include/finclude/math-vector-fortran.h
REM seed 456646156 -418650159 582726105 -385229953 -1601453604 -372038953 307617389 -196402290 -460390048 -407623117 -1347538684 2042531321 -396929172 1262299132 -770693950 839009148 1551161261 -1366901414 -1693598757 -1995112359 1548671034 -1670333169 -621519752 -903289376 1508651008 -701559986 -1218767961 1084643517 -1404643372 -474226074 1941642999 -271812071 2059957923
REM
CELL 1.54180   50.00000   50.00000   50.00000   90.00000   90.00000   90.00000
LATT -1
SFAC C  
C      1  0.5058190000000  0.4612090000000  0.4517300000000 1.0
C      1  0.4627980000000  0.4883380000000  0.4541310000000 1.0
C      1  0.4904510000000  0.5487070000000  0.4677220000000 1.0
C      1  0.5251990000000  0.5080510000000  0.4599700000000 1.0
C      1  0.5603720000000  0.4737860000000  0.4771580000000 1.0
C      1  0.4684280000000  0.4403690000000  0.4850100000000 1.0
C      1  0.4492270000000  0.5277890000000  0.4829920000000 1.0
C      1  0.5348290000000  0.5610110000000  0.4895390000000 1.0
C      1  0.5113510000000  0.5662720000000  0.4727860000000 1.0
C      1  0.5511870000000  0.4950070000000  0.4589820000000 1.0
C      1  0.4887750000000  0.4392720000000  0.4628950000000 1.0
C      1  0.4444370000000  0.5090740000000  0.4614620000000 1.0
C      1  0.5264680000000  0.5310750000000  0.4815070000000 1.0
C      1  0.5294010000000  0.4653250000000  0.4711010000000 1.0
C      1  0.4711260000000  0.4704000000000  0.4777160000000 1.0
C      1  0.4786640000000  0.5231730000000  0.4747450000000 1.0
C      1  0.5404080000000  0.4860200000000  0.5638210000000 1.0
C      1  0.4879020000000  0.4687050000000  0.5702130000000 1.0
C      1  0.4640500000000  0.5143340000000  0.5679970000000 1.0
C      1  0.5034110000000  0.5500190000000  0.5720460000000 1.0
C      1  0.5246060000000  0.4809880000000  0.5432220000000 1.0
C      1  0.4942610000000  0.4812780000000  0.5469040000000 1.0
C      1  0.4824610000000  0.5122180000000  0.5480390000000 1.0
C      1  0.5034960000000  0.5339660000000  0.5510140000000 1.0
C      1  0.4887000000000  0.5108580000000  0.5007960000000 1.0
C      1  0.5147860000000  0.5219550000000  0.5064630000000 1.0
C      1  0.5173040000000  0.4702000000000  0.4970240000000 1.0
C      1  0.4897930000000  0.4806520000000  0.4992770000000 1.0
C      1  0.4693790000000  0.5176890000000  0.5213090000000 1.0
C      1  0.5159720000000  0.5423630000000  0.5261730000000 1.0
C      1  0.5362410000000  0.4765020000000  0.5169470000000 1.0
C      1  0.4800940000000  0.4668740000000  0.5233620000000 1.0
C      1  0.4734090000000  0.4405840000000  0.5134470000000 1.0
C      1  0.4439100000000  0.5217640000000  0.5101950000000 1.0
C      1  0.5329700000000  0.5633810000000  0.5179210000000 1.0
C      1  0.5620730000000  0.4777180000000  0.5054340000000 1.0
C      1  0.5000350000000  0.4914080000000  0.4537210000000 1.0
END
