TITL C-3577090-796-64 -1.2640459006557e-05 125000 -674.407706281093 0 0 107 (C1) n - 1
REM
REM in /home/bkarasulu/work/CARBON/AIRSS/Generating-Clusters/EDIP-Nigel-Params/with-SteepDescent/Higher-Symm/SD-CG/HFTN-CG
REM
REM
REM
REM
REM
REM ./C.cell (12c818d87b63d06a65506943cc24bca4)
REM
REM compiler GCC version 9.2.1 20190827 (Red Hat 9.2.1-1)
REM options -cpp -mtune=generic -march=x86-64 -g -O0 -fpre-include=/usr/include/finclude/math-vector-fortran.h
REM seed 862681369 2063613727 346529921 1721549188 -108102181 -2087861437 1886217490 -331622516 1437025442 286024195 1572395081 -734479907 -815940738 2049032840 -1685924518 208026467 -901520233 1438749899 700500039 493052171 790137550 1541348050 1875664430 -2111472247 -1714658102 471628660 -632132529 -571504957 -337514900 -1281333970 -492348141 -729435985 -119819170
REM
CELL 1.54180   50.00000   50.00000   50.00000   90.00000   90.00000   90.00000
LATT -1
SFAC C  
C      1  0.4661630000000  0.4536350000000  0.5683540000000 1.0
C      1  0.5806990000000  0.4535270000000  0.4890740000000 1.0
C      1  0.4533730000000  0.4405930000000  0.4406440000000 1.0
C      1  0.5537360000000  0.5476450000000  0.4467950000000 1.0
C      1  0.4305900000000  0.5428630000000  0.4852570000000 1.0
C      1  0.5216930000000  0.5425040000000  0.5675580000000 1.0
C      1  0.5922830000000  0.4749280000000  0.5061490000000 1.0
C      1  0.4598540000000  0.4646500000000  0.4233530000000 1.0
C      1  0.4460440000000  0.4768270000000  0.5732600000000 1.0
C      1  0.5715840000000  0.5264950000000  0.5232790000000 1.0
C      1  0.4870260000000  0.5052540000000  0.4526090000000 1.0
C      1  0.4484610000000  0.5208510000000  0.5463730000000 1.0
C      1  0.4512540000000  0.4353490000000  0.5490620000000 1.0
C      1  0.5637100000000  0.4351620000000  0.5082660000000 1.0
C      1  0.4798820000000  0.4247840000000  0.4438380000000 1.0
C      1  0.4738610000000  0.5322870000000  0.5000280000000 1.0
C      1  0.5205520000000  0.5287020000000  0.5204030000000 1.0
C      1  0.5158050000000  0.5331220000000  0.4709090000000 1.0
C      1  0.5803590000000  0.5709300000000  0.5056620000000 1.0
C      1  0.4714540000000  0.5531310000000  0.4436950000000 1.0
C      1  0.4617480000000  0.5649210000000  0.5681900000000 1.0
C      1  0.5704160000000  0.4430030000000  0.5364320000000 1.0
C      1  0.5017340000000  0.4434830000000  0.4306880000000 1.0
C      1  0.4205720000000  0.4433180000000  0.5454730000000 1.0
C      1  0.4925050000000  0.4761620000000  0.5221330000000 1.0
C      1  0.5494520000000  0.5017830000000  0.4922500000000 1.0
C      1  0.4611010000000  0.4644420000000  0.4770530000000 1.0
C      1  0.4189540000000  0.5198220000000  0.5332630000000 1.0
C      1  0.5684960000000  0.5197200000000  0.5529490000000 1.0
C      1  0.5097370000000  0.5248590000000  0.4281570000000 1.0
C      1  0.4279910000000  0.4353080000000  0.4923750000000 1.0
C      1  0.5171710000000  0.4417730000000  0.5509960000000 1.0
C      1  0.5556730000000  0.4436830000000  0.4455820000000 1.0
C      1  0.5301530000000  0.4154780000000  0.5064170000000 1.0
C      1  0.4881580000000  0.4187820000000  0.4723880000000 1.0
C      1  0.4634620000000  0.4331370000000  0.5223350000000 1.0
C      1  0.5463900000000  0.4493500000000  0.5537850000000 1.0
C      1  0.5321440000000  0.4524620000000  0.4303420000000 1.0
C      1  0.4144520000000  0.4489580000000  0.5155480000000 1.0
C      1  0.5386420000000  0.4528650000000  0.5017950000000 1.0
C      1  0.5061970000000  0.4600670000000  0.4654460000000 1.0
C      1  0.4466900000000  0.4719670000000  0.5346190000000 1.0
C      1  0.4456320000000  0.5449170000000  0.4383250000000 1.0
C      1  0.4795180000000  0.5569460000000  0.5879370000000 1.0
C      1  0.5860390000000  0.5573820000000  0.4820870000000 1.0
C      1  0.5224100000000  0.5539710000000  0.5398550000000 1.0
C      1  0.5291410000000  0.5586450000000  0.4616720000000 1.0
C      1  0.4552940000000  0.5569530000000  0.4987360000000 1.0
C      1  0.5868180000000  0.4683410000000  0.5350790000000 1.0
C      1  0.4878990000000  0.4640470000000  0.4146030000000 1.0
C      1  0.4169210000000  0.4714490000000  0.5604540000000 1.0
C      1  0.5112110000000  0.5719200000000  0.4417850000000 1.0
C      1  0.4482860000000  0.5677970000000  0.5260210000000 1.0
C      1  0.5479380000000  0.5697780000000  0.5358560000000 1.0
C      1  0.5299470000000  0.4446230000000  0.4737400000000 1.0
C      1  0.4850560000000  0.4474580000000  0.4828660000000 1.0
C      1  0.4890450000000  0.4466120000000  0.5137560000000 1.0
C      1  0.4183720000000  0.5217010000000  0.5019630000000 1.0
C      1  0.5398840000000  0.5193520000000  0.5659670000000 1.0
C      1  0.5415960000000  0.5267780000000  0.4292740000000 1.0
C      1  0.5060180000000  0.4892250000000  0.4689230000000 1.0
C      1  0.4667440000000  0.4892060000000  0.5187210000000 1.0
C      1  0.5383350000000  0.4818940000000  0.5101460000000 1.0
C      1  0.5275580000000  0.4932420000000  0.5594100000000 1.0
C      1  0.5453270000000  0.5001430000000  0.4416870000000 1.0
C      1  0.4234560000000  0.4929820000000  0.4920680000000 1.0
C      1  0.5718120000000  0.4898330000000  0.4517760000000 1.0
C      1  0.4186370000000  0.4796220000000  0.4647870000000 1.0
C      1  0.5035830000000  0.4855360000000  0.5745300000000 1.0
C      1  0.4399300000000  0.5267350000000  0.4604730000000 1.0
C      1  0.4945420000000  0.5360930000000  0.5772370000000 1.0
C      1  0.5769340000000  0.5387220000000  0.4636230000000 1.0
C      1  0.5300770000000  0.5057920000000  0.4682850000000 1.0
C      1  0.4552830000000  0.4897430000000  0.4907310000000 1.0
C      1  0.5179240000000  0.4936300000000  0.5284180000000 1.0
C      1  0.4484160000000  0.4192290000000  0.5029780000000 1.0
C      1  0.5107440000000  0.4291590000000  0.5250800000000 1.0
C      1  0.5186220000000  0.4158300000000  0.4773750000000 1.0
C      1  0.4311640000000  0.4996710000000  0.4469520000000 1.0
C      1  0.4847550000000  0.5081540000000  0.5787160000000 1.0
C      1  0.5846710000000  0.5101800000000  0.4686290000000 1.0
C      1  0.4956000000000  0.5510480000000  0.4271260000000 1.0
C      1  0.4381450000000  0.5499200000000  0.5497500000000 1.0
C      1  0.5753560000000  0.5544610000000  0.5337390000000 1.0
C      1  0.5467530000000  0.5257330000000  0.5080240000000 1.0
C      1  0.4656150000000  0.5146360000000  0.4750200000000 1.0
C      1  0.4692620000000  0.5171330000000  0.5256180000000 1.0
C      1  0.5034090000000  0.4891480000000  0.4163930000000 1.0
C      1  0.4079980000000  0.4915540000000  0.5387020000000 1.0
C      1  0.5749380000000  0.4886030000000  0.5550340000000 1.0
C      1  0.5288190000000  0.5749850000000  0.4884030000000 1.0
C      1  0.4742960000000  0.5779000000000  0.4859600000000 1.0
C      1  0.4989510000000  0.5712060000000  0.5302710000000 1.0
C      1  0.5514170000000  0.5808800000000  0.5078190000000 1.0
C      1  0.4776080000000  0.5777640000000  0.4573880000000 1.0
C      1  0.4722820000000  0.5763760000000  0.5422680000000 1.0
C      1  0.5305130000000  0.4809270000000  0.4242270000000 1.0
C      1  0.4090880000000  0.4773330000000  0.5129610000000 1.0
C      1  0.5504720000000  0.4754710000000  0.5654510000000 1.0
C      1  0.4567170000000  0.4904640000000  0.4360250000000 1.0
C      1  0.4559130000000  0.5049670000000  0.5722840000000 1.0
C      1  0.5879640000000  0.5031970000000  0.4978780000000 1.0
C      1  0.5689420000000  0.4625440000000  0.4630380000000 1.0
C      1  0.4359270000000  0.4527090000000  0.4675010000000 1.0
C      1  0.4948330000000  0.4598880000000  0.5632470000000 1.0
C      1  0.5034200000000  0.5397900000000  0.4975680000000 1.0
C      1  0.5009170000000  0.5780300000000  0.5011790000000 1.0
END
