TITL C-3578208-4450-590 -3.75677227686228e-06 125000 -441.877574054638 0 0 72 (C1) n - 1
REM
REM in /home/bkarasulu/work/CARBON/AIRSS/Generating-Clusters/EDIP-Nigel-Params/with-SteepDescent/Higher-Symm/SD-CG/HFTN-CG
REM
REM
REM
REM
REM
REM ./C.cell (12c818d87b63d06a65506943cc24bca4)
REM
REM compiler GCC version 9.2.1 20190827 (Red Hat 9.2.1-1)
REM options -cpp -mtune=generic -march=x86-64 -g -O0 -fpre-include=/usr/include/finclude/math-vector-fortran.h
REM seed 1352547377 -1632259286 -1584082600 -868505362 1746861421 -189976248 961105154 2090735887 -1420481888 -599407868 777582982 -1785091728 226018845 -1554808147 -488503837 351167235 -295167441 346801615 1327540222 -341602468 -341457276 -1613923709 -1946596320 1261842771 -1417520334 -1268992608 969811973 -1714318581 -445419940 -1393085257 -867496254 -2071800746 1565558490
REM
CELL 1.54180   50.00000   50.00000   50.00000   90.00000   90.00000   90.00000
LATT -1
SFAC C  
C      1  0.4386960000000  0.4962900000000  0.5569760000000 1.0
C      1  0.5753910000000  0.4979310000000  0.4636380000000 1.0
C      1  0.5324690000000  0.5542500000000  0.4495260000000 1.0
C      1  0.4831500000000  0.4250550000000  0.5011850000000 1.0
C      1  0.5696150000000  0.5341990000000  0.4766440000000 1.0
C      1  0.5178400000000  0.4849100000000  0.4213940000000 1.0
C      1  0.5340850000000  0.5247980000000  0.5419860000000 1.0
C      1  0.4898240000000  0.4483060000000  0.4440410000000 1.0
C      1  0.4829550000000  0.5125330000000  0.4382250000000 1.0
C      1  0.5595000000000  0.4854900000000  0.5366770000000 1.0
C      1  0.5585260000000  0.5131810000000  0.4461110000000 1.0
C      1  0.4680390000000  0.4890680000000  0.4281260000000 1.0
C      1  0.5081820000000  0.4553410000000  0.5698640000000 1.0
C      1  0.5016020000000  0.4655850000000  0.5009190000000 1.0
C      1  0.5340230000000  0.4287740000000  0.5013310000000 1.0
C      1  0.4402210000000  0.5469490000000  0.5039640000000 1.0
C      1  0.4838870000000  0.5473020000000  0.5222560000000 1.0
C      1  0.5507040000000  0.5569180000000  0.4728120000000 1.0
C      1  0.5660540000000  0.5241590000000  0.5047550000000 1.0
C      1  0.5411160000000  0.5635580000000  0.5203980000000 1.0
C      1  0.5343090000000  0.4426450000000  0.5272960000000 1.0
C      1  0.4555420000000  0.5191100000000  0.5503760000000 1.0
C      1  0.5092090000000  0.4969220000000  0.4697320000000 1.0
C      1  0.4394400000000  0.5094100000000  0.4808480000000 1.0
C      1  0.5332790000000  0.4704140000000  0.5131190000000 1.0
C      1  0.4803740000000  0.4615450000000  0.5829690000000 1.0
C      1  0.5295400000000  0.5540140000000  0.4942060000000 1.0
C      1  0.5289040000000  0.4704050000000  0.4619350000000 1.0
C      1  0.4398510000000  0.4512510000000  0.4987880000000 1.0
C      1  0.4733370000000  0.5343410000000  0.4567570000000 1.0
C      1  0.4213690000000  0.4645150000000  0.4819270000000 1.0
C      1  0.4646120000000  0.5068740000000  0.4980800000000 1.0
C      1  0.4710800000000  0.4592990000000  0.4643810000000 1.0
C      1  0.4862330000000  0.5252320000000  0.4840340000000 1.0
C      1  0.5135840000000  0.4446910000000  0.4600320000000 1.0
C      1  0.4553360000000  0.5654100000000  0.4881730000000 1.0
C      1  0.4966520000000  0.4913410000000  0.5366020000000 1.0
C      1  0.4717190000000  0.4977780000000  0.5903790000000 1.0
C      1  0.4505610000000  0.4733450000000  0.4475310000000 1.0
C      1  0.4337390000000  0.4803780000000  0.5352430000000 1.0
C      1  0.4815840000000  0.4662720000000  0.5242140000000 1.0
C      1  0.4608910000000  0.4371990000000  0.4836480000000 1.0
C      1  0.5168030000000  0.5216470000000  0.4942240000000 1.0
C      1  0.5102850000000  0.4363880000000  0.5455910000000 1.0
C      1  0.4817550000000  0.5660360000000  0.5001600000000 1.0
C      1  0.4488770000000  0.4830650000000  0.5807070000000 1.0
C      1  0.4519630000000  0.4696580000000  0.5174420000000 1.0
C      1  0.5038410000000  0.4862180000000  0.5645490000000 1.0
C      1  0.4839470000000  0.4367510000000  0.5302260000000 1.0
C      1  0.5069070000000  0.5714840000000  0.4856860000000 1.0
C      1  0.5559220000000  0.5399890000000  0.5271420000000 1.0
C      1  0.5260350000000  0.5045600000000  0.5748830000000 1.0
C      1  0.4595040000000  0.5300920000000  0.5211140000000 1.0
C      1  0.5163210000000  0.5096020000000  0.5225170000000 1.0
C      1  0.4293350000000  0.4859200000000  0.4647550000000 1.0
C      1  0.4857600000000  0.4812700000000  0.4814730000000 1.0
C      1  0.4757740000000  0.5198340000000  0.5717380000000 1.0
C      1  0.5511710000000  0.5042590000000  0.5572520000000 1.0
C      1  0.4433880000000  0.5359010000000  0.4672500000000 1.0
C      1  0.5712790000000  0.4804190000000  0.4867630000000 1.0
C      1  0.5228330000000  0.5677780000000  0.5409740000000 1.0
C      1  0.5407510000000  0.4739720000000  0.4351920000000 1.0
C      1  0.4826030000000  0.5595300000000  0.4463990000000 1.0
C      1  0.5012280000000  0.5330370000000  0.5675540000000 1.0
C      1  0.4914690000000  0.4695350000000  0.4220040000000 1.0
C      1  0.5068490000000  0.5693090000000  0.4562790000000 1.0
C      1  0.5001410000000  0.5526440000000  0.5460470000000 1.0
C      1  0.5082840000000  0.4375520000000  0.4890870000000 1.0
C      1  0.5110430000000  0.5125110000000  0.4291880000000 1.0
C      1  0.5320270000000  0.5251790000000  0.4452790000000 1.0
C      1  0.5695500000000  0.4961910000000  0.5113550000000 1.0
C      1  0.5473330000000  0.4626810000000  0.4860730000000 1.0
END
