TITL C-3578198-8939-418 -4.95447487824549e-05 125000 -453.248436490746 0 0 78 (C1) n - 1
REM
REM in /home/bkarasulu/work/CARBON/AIRSS/Generating-Clusters/EDIP-Nigel-Params/with-SteepDescent/Higher-Symm/SD-CG/HFTN-CG
REM
REM
REM
REM
REM
REM ./C.cell (12c818d87b63d06a65506943cc24bca4)
REM
REM compiler GCC version 9.2.1 20190827 (Red Hat 9.2.1-1)
REM options -cpp -mtune=generic -march=x86-64 -g -O0 -fpre-include=/usr/include/finclude/math-vector-fortran.h
REM seed 2114159569 2032529068 1486866504 -1849335781 -1303748099 -6732521 1445821278 -1763590242 1018673644 486432901 1151286764 -1318038477 491891389 552229757 2088075510 -2003420945 -828716008 -960766759 -209362310 -977658656 -1753026695 -840180175 -1250777924 372171164 1681611245 1798301736 -35211002 -1875842741 1414516072 -500142549 185306051 -1163138163 1804321313
REM
CELL 1.54180   50.00000   50.00000   50.00000   90.00000   90.00000   90.00000
LATT -1
SFAC C  
C      1  0.3967680000000  0.5256700000000  0.4864750000000 1.0
C      1  0.4203750000000  0.5353200000000  0.5628860000000 1.0
C      1  0.4977470000000  0.5216930000000  0.6047120000000 1.0
C      1  0.5857490000000  0.5297540000000  0.5489770000000 1.0
C      1  0.6011520000000  0.5247290000000  0.4770040000000 1.0
C      1  0.5428260000000  0.5240370000000  0.4055990000000 1.0
C      1  0.4558600000000  0.5319530000000  0.4077670000000 1.0
C      1  0.5876340000000  0.5014810000000  0.4868630000000 1.0
C      1  0.5346250000000  0.5053920000000  0.4245460000000 1.0
C      1  0.4449480000000  0.5120630000000  0.4254420000000 1.0
C      1  0.4163690000000  0.5055860000000  0.4860330000000 1.0
C      1  0.4254190000000  0.5067070000000  0.5636320000000 1.0
C      1  0.4924060000000  0.4979000000000  0.5897120000000 1.0
C      1  0.5708330000000  0.5071330000000  0.5417720000000 1.0
C      1  0.5262710000000  0.4499180000000  0.5534940000000 1.0
C      1  0.5601380000000  0.4477770000000  0.5170200000000 1.0
C      1  0.5500730000000  0.4481640000000  0.4630480000000 1.0
C      1  0.5017760000000  0.4492820000000  0.4438210000000 1.0
C      1  0.4540730000000  0.4553000000000  0.4631920000000 1.0
C      1  0.4469920000000  0.4530340000000  0.5126570000000 1.0
C      1  0.4760830000000  0.4532470000000  0.5545790000000 1.0
C      1  0.4533410000000  0.5427830000000  0.4836560000000 1.0
C      1  0.4675700000000  0.5323450000000  0.5414460000000 1.0
C      1  0.4974790000000  0.5292790000000  0.5480640000000 1.0
C      1  0.5425390000000  0.5362110000000  0.5089890000000 1.0
C      1  0.5514610000000  0.5392440000000  0.4787700000000 1.0
C      1  0.5275720000000  0.5390820000000  0.4590920000000 1.0
C      1  0.4603250000000  0.5529390000000  0.4556330000000 1.0
C      1  0.5382860000000  0.4671650000000  0.5086090000000 1.0
C      1  0.5281900000000  0.4572680000000  0.4806950000000 1.0
C      1  0.5038060000000  0.4696440000000  0.4658230000000 1.0
C      1  0.4762730000000  0.4701560000000  0.4788750000000 1.0
C      1  0.4693100000000  0.4747560000000  0.5087140000000 1.0
C      1  0.4896890000000  0.4641980000000  0.5286640000000 1.0
C      1  0.5195030000000  0.4723880000000  0.5329830000000 1.0
C      1  0.5056040000000  0.5563520000000  0.5381260000000 1.0
C      1  0.5233400000000  0.5589090000000  0.5154220000000 1.0
C      1  0.5135820000000  0.5749320000000  0.4933420000000 1.0
C      1  0.5096650000000  0.5628090000000  0.4672010000000 1.0
C      1  0.4820300000000  0.5729330000000  0.4610610000000 1.0
C      1  0.4606570000000  0.5652960000000  0.5028510000000 1.0
C      1  0.4685210000000  0.5597960000000  0.5302260000000 1.0
C      1  0.4709520000000  0.4316220000000  0.4770950000000 1.0
C      1  0.4649240000000  0.4289150000000  0.5072230000000 1.0
C      1  0.4873760000000  0.4322380000000  0.5291840000000 1.0
C      1  0.5174450000000  0.4268100000000  0.5360580000000 1.0
C      1  0.5366280000000  0.4266330000000  0.5130170000000 1.0
C      1  0.5241040000000  0.4273820000000  0.4823660000000 1.0
C      1  0.4985660000000  0.4258030000000  0.4640130000000 1.0
C      1  0.5733160000000  0.5218990000000  0.4688300000000 1.0
C      1  0.5362490000000  0.5378540000000  0.4297500000000 1.0
C      1  0.4656800000000  0.5325530000000  0.4349450000000 1.0
C      1  0.4238250000000  0.5355260000000  0.4856510000000 1.0
C      1  0.4477480000000  0.5273590000000  0.5633610000000 1.0
C      1  0.5051130000000  0.5219760000000  0.5766350000000 1.0
C      1  0.5657540000000  0.5351030000000  0.5289080000000 1.0
C      1  0.4525130000000  0.4618580000000  0.4361610000000 1.0
C      1  0.4245720000000  0.4565530000000  0.4963810000000 1.0
C      1  0.4502870000000  0.4607940000000  0.5607200000000 1.0
C      1  0.5135810000000  0.4528790000000  0.5782270000000 1.0
C      1  0.5720980000000  0.4555070000000  0.5411890000000 1.0
C      1  0.5758900000000  0.4562970000000  0.4672690000000 1.0
C      1  0.5242720000000  0.4533250000000  0.4271310000000 1.0
C      1  0.4703210000000  0.5186440000000  0.4879890000000 1.0
C      1  0.4727340000000  0.5050430000000  0.5139610000000 1.0
C      1  0.5023120000000  0.5068980000000  0.5277200000000 1.0
C      1  0.5277290000000  0.5101260000000  0.5113100000000 1.0
C      1  0.5270160000000  0.5013660000000  0.4852190000000 1.0
C      1  0.5143130000000  0.5124350000000  0.4633920000000 1.0
C      1  0.4867080000000  0.5102760000000  0.4670200000000 1.0
C      1  0.5042080000000  0.4729630000000  0.5933180000000 1.0
C      1  0.5767020000000  0.4808020000000  0.5490790000000 1.0
C      1  0.5913400000000  0.4757960000000  0.4769090000000 1.0
C      1  0.5338320000000  0.4776770000000  0.4198520000000 1.0
C      1  0.4497820000000  0.4848060000000  0.4227160000000 1.0
C      1  0.4111170000000  0.4783860000000  0.4886260000000 1.0
C      1  0.4332010000000  0.4802060000000  0.5667460000000 1.0
C      1  0.4769890000000  0.5842450000000  0.4881800000000 1.0
END
