TITL C-3578199-7832-385 1.13263012253228e-08 125000 -389.595602765057 0 0 65 (C4) n - 1
REM
REM in /home/bkarasulu/work/CARBON/AIRSS/Generating-Clusters/EDIP-Nigel-Params/with-SteepDescent/Higher-Symm/SD-CG/HFTN-CG
REM
REM
REM
REM
REM
REM ./C.cell (12c818d87b63d06a65506943cc24bca4)
REM
REM compiler GCC version 9.2.1 20190827 (Red Hat 9.2.1-1)
REM options -cpp -mtune=generic -march=x86-64 -g -O0 -fpre-include=/usr/include/finclude/math-vector-fortran.h
REM seed -1303873306 1181750419 -1371627050 -1272570130 -152544479 1106109031 717141913 907390275 1717521519 -233011008 -1551474937 1548015098 -866123831 -1844186304 1205935783 -763124851 1050291731 1355823636 804100615 1241625984 1426896984 748168740 1222769418 -13178235 661241643 321445773 -1772140660 -2044925206 -447832000 -1992688069 2103456081 -929140448 -502178862
REM
CELL 1.54180   50.00000   50.00000   50.00000   90.00000   90.00000   90.00000
LATT -1
SFAC C  
C      1  0.5391320000000  0.5576750000000  0.4973030000000 1.0
C      1  0.4979380000000  0.5573260000000  0.4606530000000 1.0
C      1  0.4612860000000  0.5574180000000  0.5018480000000 1.0
C      1  0.5024810000000  0.5577670000000  0.5384980000000 1.0
C      1  0.5346680000000  0.4480220000000  0.5042380000000 1.0
C      1  0.4965420000000  0.4480470000000  0.5342340000000 1.0
C      1  0.4665470000000  0.4477300000000  0.4961090000000 1.0
C      1  0.5046730000000  0.4477050000000  0.4661130000000 1.0
C      1  0.4572250000000  0.5127770000000  0.5702350000000 1.0
C      1  0.5707860000000  0.5130410000000  0.5429670000000 1.0
C      1  0.5435200000000  0.5123220000000  0.4294080000000 1.0
C      1  0.4299600000000  0.5120590000000  0.4566760000000 1.0
C      1  0.4583000000000  0.4866540000000  0.4264390000000 1.0
C      1  0.5739860000000  0.4872450000000  0.4577930000000 1.0
C      1  0.5426300000000  0.4877620000000  0.5734790000000 1.0
C      1  0.4269430000000  0.4871710000000  0.5421250000000 1.0
C      1  0.4453690000000  0.5106090000000  0.5088260000000 1.0
C      1  0.5093730000000  0.5110920000000  0.5548410000000 1.0
C      1  0.5553900000000  0.5109100000000  0.4908360000000 1.0
C      1  0.4913860000000  0.5104270000000  0.4448210000000 1.0
C      1  0.4417690000000  0.4852840000000  0.4901040000000 1.0
C      1  0.5103370000000  0.4852670000000  0.4412670000000 1.0
C      1  0.5591730000000  0.4858180000000  0.5098330000000 1.0
C      1  0.4906050000000  0.4858350000000  0.5586700000000 1.0
C      1  0.4715580000000  0.5101310000000  0.4234240000000 1.0
C      1  0.4239710000000  0.5105320000000  0.5286550000000 1.0
C      1  0.5292020000000  0.5111730000000  0.5762390000000 1.0
C      1  0.5767880000000  0.5107720000000  0.4710080000000 1.0
C      1  0.4708680000000  0.4908680000000  0.5797490000000 1.0
C      1  0.4206450000000  0.4900890000000  0.4703580000000 1.0
C      1  0.5300380000000  0.4902120000000  0.4201330000000 1.0
C      1  0.5802610000000  0.4909910000000  0.5295240000000 1.0
C      1  0.4776900000000  0.5090430000000  0.4721320000000 1.0
C      1  0.4726770000000  0.5093000000000  0.5225340000000 1.0
C      1  0.5230800000000  0.5095100000000  0.5275460000000 1.0
C      1  0.5280930000000  0.5092530000000  0.4771440000000 1.0
C      1  0.4751360000000  0.4801780000000  0.5323240000000 1.0
C      1  0.4681650000000  0.4798390000000  0.4746440000000 1.0
C      1  0.5258450000000  0.4800100000000  0.4676720000000 1.0
C      1  0.5328170000000  0.4803500000000  0.5253520000000 1.0
C      1  0.4987380000000  0.5797090000000  0.4774340000000 1.0
C      1  0.4781080000000  0.5797620000000  0.5008450000000 1.0
C      1  0.5015190000000  0.5799590000000  0.5214740000000 1.0
C      1  0.5221490000000  0.5799060000000  0.4980630000000 1.0
C      1  0.4986760000000  0.4217770000000  0.5222340000000 1.0
C      1  0.4787850000000  0.4215740000000  0.4982900000000 1.0
C      1  0.5027300000000  0.4215530000000  0.4784000000000 1.0
C      1  0.5226200000000  0.4217550000000  0.5023430000000 1.0
C      1  0.4426090000000  0.4599350000000  0.5068080000000 1.0
C      1  0.5072630000000  0.4604490000000  0.5580600000000 1.0
C      1  0.5585170000000  0.4602820000000  0.4934060000000 1.0
C      1  0.4938630000000  0.4597680000000  0.4421540000000 1.0
C      1  0.4451500000000  0.5365190000000  0.4934040000000 1.0
C      1  0.5065710000000  0.5364760000000  0.4445540000000 1.0
C      1  0.5554200000000  0.5369880000000  0.5059740000000 1.0
C      1  0.4939990000000  0.5370310000000  0.5548240000000 1.0
C      1  0.4521680000000  0.5259580000000  0.4676090000000 1.0
C      1  0.4681850000000  0.5264540000000  0.5479010000000 1.0
C      1  0.5484770000000  0.5266580000000  0.5318830000000 1.0
C      1  0.5324610000000  0.5261620000000  0.4515910000000 1.0
C      1  0.4468680000000  0.4689760000000  0.5344120000000 1.0
C      1  0.4661790000000  0.4685660000000  0.4463970000000 1.0
C      1  0.5541940000000  0.4689910000000  0.4657060000000 1.0
C      1  0.5348830000000  0.4694010000000  0.5537200000000 1.0
C      1  0.5003610000000  0.5156950000000  0.4998040000000 1.0
END
