TITL C-3577082-504-335 -4.28482124289098e-07 125000 -315.265022821176 0 0 54 (C1) n - 1
REM
REM in /home/bkarasulu/work/CARBON/AIRSS/Generating-Clusters/EDIP-Nigel-Params/with-SteepDescent/Higher-Symm/SD-CG/HFTN-CG
REM
REM
REM
REM
REM
REM ./C.cell (12c818d87b63d06a65506943cc24bca4)
REM
REM compiler GCC version 9.2.1 20190827 (Red Hat 9.2.1-1)
REM options -cpp -mtune=generic -march=x86-64 -g -O0 -fpre-include=/usr/include/finclude/math-vector-fortran.h
REM seed 878027969 1305505443 16360004 1615907495 1682197953 1880184967 187552876 -617097078 950517471 -35234001 -1254504661 1080916282 207077629 1465961996 2002244804 -636554539 2064656940 -1723932906 -1069080842 1461332685 772774641 -683471645 -597145236 -1706054710 1375248518 534548387 809922842 1802340461 -613230199 535223693 2072785972 -1879821095 -1026505420
REM
CELL 1.54180   50.00000   50.00000   50.00000   90.00000   90.00000   90.00000
LATT -1
SFAC C  
C      1  0.5142470000000  0.4803830000000  0.4245420000000 1.0
C      1  0.5153210000000  0.5492420000000  0.4544540000000 1.0
C      1  0.5161540000000  0.5326420000000  0.5435580000000 1.0
C      1  0.5150070000000  0.4884640000000  0.5402500000000 1.0
C      1  0.5137810000000  0.4502300000000  0.5076440000000 1.0
C      1  0.4904250000000  0.4688350000000  0.4336440000000 1.0
C      1  0.4925930000000  0.5353100000000  0.4663600000000 1.0
C      1  0.4932500000000  0.5498620000000  0.5370720000000 1.0
C      1  0.4925910000000  0.4849670000000  0.5582920000000 1.0
C      1  0.4903460000000  0.4375750000000  0.4968710000000 1.0
C      1  0.5599110000000  0.5303630000000  0.4431910000000 1.0
C      1  0.5473450000000  0.5534080000000  0.5114120000000 1.0
C      1  0.5474730000000  0.4918260000000  0.5775150000000 1.0
C      1  0.5605870000000  0.4583860000000  0.5109730000000 1.0
C      1  0.5549830000000  0.4615180000000  0.4482480000000 1.0
C      1  0.4462550000000  0.5238820000000  0.4534950000000 1.0
C      1  0.4473220000000  0.5524650000000  0.5107830000000 1.0
C      1  0.4511840000000  0.5105780000000  0.5674770000000 1.0
C      1  0.4499090000000  0.4484500000000  0.5239600000000 1.0
C      1  0.4478050000000  0.4626250000000  0.4550750000000 1.0
C      1  0.5495610000000  0.4609020000000  0.5369250000000 1.0
C      1  0.5388380000000  0.4467650000000  0.4658170000000 1.0
C      1  0.5466980000000  0.5097860000000  0.4297340000000 1.0
C      1  0.5451520000000  0.5604720000000  0.4846990000000 1.0
C      1  0.5302970000000  0.5112040000000  0.5850900000000 1.0
C      1  0.4574750000000  0.4607240000000  0.5476650000000 1.0
C      1  0.4537350000000  0.4423110000000  0.4728020000000 1.0
C      1  0.4630660000000  0.5072390000000  0.4378690000000 1.0
C      1  0.4643520000000  0.5596540000000  0.4897350000000 1.0
C      1  0.4565320000000  0.5365830000000  0.5579070000000 1.0
C      1  0.4635720000000  0.4480470000000  0.4998380000000 1.0
C      1  0.4664270000000  0.4792070000000  0.4430920000000 1.0
C      1  0.4640860000000  0.5437980000000  0.4629470000000 1.0
C      1  0.4648500000000  0.5363850000000  0.5277830000000 1.0
C      1  0.4642870000000  0.4932850000000  0.5478860000000 1.0
C      1  0.5391460000000  0.4506760000000  0.4946120000000 1.0
C      1  0.5390630000000  0.4830610000000  0.4399940000000 1.0
C      1  0.5422640000000  0.5389530000000  0.4628810000000 1.0
C      1  0.5429570000000  0.5359590000000  0.5323390000000 1.0
C      1  0.5448570000000  0.4896820000000  0.5485470000000 1.0
C      1  0.4900740000000  0.4316530000000  0.4684730000000 1.0
C      1  0.4860500000000  0.5181850000000  0.4257350000000 1.0
C      1  0.4944300000000  0.5544370000000  0.4931390000000 1.0
C      1  0.4822250000000  0.5493510000000  0.5663550000000 1.0
C      1  0.4858400000000  0.4556270000000  0.5566680000000 1.0
C      1  0.5146950000000  0.4361860000000  0.4564240000000 1.0
C      1  0.5111020000000  0.5085870000000  0.4172070000000 1.0
C      1  0.5161820000000  0.5704100000000  0.4792240000000 1.0
C      1  0.5132560000000  0.5288510000000  0.5722550000000 1.0
C      1  0.5177710000000  0.4567940000000  0.5358100000000 1.0
C      1  0.5585150000000  0.5119010000000  0.5336850000000 1.0
C      1  0.4655570000000  0.5071880000000  0.5210770000000 1.0
C      1  0.5844000000000  0.5116020000000  0.5280800000000 1.0
C      1  0.4498210000000  0.4988020000000  0.5015260000000 1.0
END
