TITL C-3578195-8548-557 -9.33768520067131e-07 125000 -40.6081884783888 0 0 8 (C1) n - 1
REM
REM in /home/bkarasulu/work/CARBON/AIRSS/Generating-Clusters/EDIP-Nigel-Params/with-SteepDescent/Higher-Symm/SD-CG/HFTN-CG
REM
REM
REM
REM
REM
REM ./C.cell (12c818d87b63d06a65506943cc24bca4)
REM
REM compiler GCC version 9.2.1 20190827 (Red Hat 9.2.1-1)
REM options -cpp -mtune=generic -march=x86-64 -g -O0 -fpre-include=/usr/include/finclude/math-vector-fortran.h
REM seed -640532567 -1380785175 1501742610 -1984127286 -1541657498 163656732 -1561358231 1879773339 441213052 -1957597846 -414484401 1523179860 -1395735468 -1924536761 -901858382 -732590672 -100923308 144547188 40543800 -1567290000 503865784 -1666293621 -317466237 -733341742 -919419043 607407891 748255135 1683303314 -2107752002 435540310 1561971263 -1686596886 -1762234439
REM
CELL 1.54180   50.00000   50.00000   50.00000   90.00000   90.00000   90.00000
LATT -1
SFAC C  
C      1  0.5245630000000  0.4960960000000  0.5065580000000 1.0
C      1  0.4926150000000  0.4999850000000  0.4737200000000 1.0
C      1  0.5197920000000  0.4964160000000  0.4781240000000 1.0
C      1  0.4813820000000  0.5012320000000  0.5001560000000 1.0
C      1  0.4853870000000  0.4763220000000  0.5137550000000 1.0
C      1  0.5079880000000  0.5417500000000  0.5020610000000 1.0
C      1  0.5126040000000  0.4727660000000  0.5181020000000 1.0
C      1  0.5036560000000  0.5179600000000  0.5135220000000 1.0
END
