TITL C-3578202-4305-229 6.87614797026594e-07 125000 -151.271846191393 0 0 26 (C3) n - 1
REM
REM in /home/bkarasulu/work/CARBON/AIRSS/Generating-Clusters/EDIP-Nigel-Params/with-SteepDescent/Higher-Symm/SD-CG/HFTN-CG
REM
REM
REM
REM
REM
REM ./C.cell (12c818d87b63d06a65506943cc24bca4)
REM
REM compiler GCC version 9.2.1 20190827 (Red Hat 9.2.1-1)
REM options -cpp -mtune=generic -march=x86-64 -g -O0 -fpre-include=/usr/include/finclude/math-vector-fortran.h
REM seed -667879872 -1292591466 1250072003 170904976 587229432 166232095 402140382 843253938 1372805741 1540941415 460913802 -644307223 -214292028 645627577 -1904198194 1511960651 -1956488978 -970910815 1946145799 -1392423006 -1494889665 691792625 -451230248 -1659124030 -1923463739 374172942 -1378844177 36270755 -51230190 154126240 1744548701 -1997606384 -201191602
REM
CELL 1.54180   50.00000   50.00000   50.00000   90.00000   90.00000   90.00000
LATT -1
SFAC C  
C      1  0.4652840000000  0.4891410000000  0.4962250000000 1.0
C      1  0.5059750000000  0.5350810000000  0.4959580000000 1.0
C      1  0.5254150000000  0.4768720000000  0.4962720000000 1.0
C      1  0.4524870000000  0.5339680000000  0.5134260000000 1.0
C      1  0.4930840000000  0.4435150000000  0.5139110000000 1.0
C      1  0.5511220000000  0.5238990000000  0.5134490000000 1.0
C      1  0.5166720000000  0.4739290000000  0.4687820000000 1.0
C      1  0.4672240000000  0.4979480000000  0.4686660000000 1.0
C      1  0.5127500000000  0.5287610000000  0.4684810000000 1.0
C      1  0.5244050000000  0.5329380000000  0.5185590000000 1.0
C      1  0.4580440000000  0.5063530000000  0.5187280000000 1.0
C      1  0.5142490000000  0.4621760000000  0.5189520000000 1.0
C      1  0.4716240000000  0.5011900000000  0.5427770000000 1.0
C      1  0.5130410000000  0.5239650000000  0.5426370000000 1.0
C      1  0.5120570000000  0.4767090000000  0.5428980000000 1.0
C      1  0.4836890000000  0.4797620000000  0.4525810000000 1.0
C      1  0.5241050000000  0.4971520000000  0.4524710000000 1.0
C      1  0.4888360000000  0.5234580000000  0.4523380000000 1.0
C      1  0.4576920000000  0.5473380000000  0.4896240000000 1.0
C      1  0.5601980000000  0.5125040000000  0.4897810000000 1.0
C      1  0.4787780000000  0.4411490000000  0.4902020000000 1.0
C      1  0.4617550000000  0.4610070000000  0.4998180000000 1.0
C      1  0.5515630000000  0.4879100000000  0.4996400000000 1.0
C      1  0.4833600000000  0.5522330000000  0.4993090000000 1.0
C      1  0.4988720000000  0.5000420000000  0.4376450000000 1.0
C      1  0.4989090000000  0.5006570000000  0.5492120000000 1.0
END
