TITL C-3578200-9634-139 -4.99447671551771e-06 125000 -908.722297453879 0 0 144 (C1) n - 1
REM
REM in /home/bkarasulu/work/CARBON/AIRSS/Generating-Clusters/EDIP-Nigel-Params/with-SteepDescent/Higher-Symm/SD-CG/HFTN-CG
REM
REM
REM
REM
REM
REM ./C.cell (12c818d87b63d06a65506943cc24bca4)
REM
REM compiler GCC version 9.2.1 20190827 (Red Hat 9.2.1-1)
REM options -cpp -mtune=generic -march=x86-64 -g -O0 -fpre-include=/usr/include/finclude/math-vector-fortran.h
REM seed 63534359 -1959919718 621952126 -945370014 900141377 1478517974 1320420722 -1307156862 -1480706170 -474223470 -1644297690 1567194520 1705088449 1159181859 -1706464901 851166320 -185264009 -1898552286 515152445 1013044459 -697018956 834368006 516506524 86537774 -708023927 -593404133 1256649426 920532366 1944814578 1805356744 564772458 720848857 835450380
REM
CELL 1.54180   50.00000   50.00000   50.00000   90.00000   90.00000   90.00000
LATT -1
SFAC C  
C      1  0.5030420000000  0.5935950000000  0.5306550000000 1.0
C      1  0.4976870000000  0.4667120000000  0.3901820000000 1.0
C      1  0.5966410000000  0.5174670000000  0.4827670000000 1.0
C      1  0.4916400000000  0.5388700000000  0.3970920000000 1.0
C      1  0.5260510000000  0.4939910000000  0.4645080000000 1.0
C      1  0.5789720000000  0.5029750000000  0.4379620000000 1.0
C      1  0.4855070000000  0.4382130000000  0.5696730000000 1.0
C      1  0.5986370000000  0.4720020000000  0.4733160000000 1.0
C      1  0.5969440000000  0.4982370000000  0.4612170000000 1.0
C      1  0.5706750000000  0.5529760000000  0.4562520000000 1.0
C      1  0.5440890000000  0.4241770000000  0.4777750000000 1.0
C      1  0.5170400000000  0.4580040000000  0.5797790000000 1.0
C      1  0.4409920000000  0.5869780000000  0.5328260000000 1.0
C      1  0.5696810000000  0.4523780000000  0.4368400000000 1.0
C      1  0.5391860000000  0.4294390000000  0.5259880000000 1.0
C      1  0.5280330000000  0.6012050000000  0.5208130000000 1.0
C      1  0.5287600000000  0.5238540000000  0.5991250000000 1.0
C      1  0.4446070000000  0.5086410000000  0.4771030000000 1.0
C      1  0.5743380000000  0.4289920000000  0.4802920000000 1.0
C      1  0.4356350000000  0.5554650000000  0.4425130000000 1.0
C      1  0.4847790000000  0.4958400000000  0.4323260000000 1.0
C      1  0.4904950000000  0.5531560000000  0.5954480000000 1.0
C      1  0.5046850000000  0.5496410000000  0.5111230000000 1.0
C      1  0.5627380000000  0.5757510000000  0.4985070000000 1.0
C      1  0.4891040000000  0.4763020000000  0.4983820000000 1.0
C      1  0.4955670000000  0.5854060000000  0.4812020000000 1.0
C      1  0.4882940000000  0.4982090000000  0.5647710000000 1.0
C      1  0.5772740000000  0.5329170000000  0.5740760000000 1.0
C      1  0.4644190000000  0.4835400000000  0.6048410000000 1.0
C      1  0.4353330000000  0.4365850000000  0.4498490000000 1.0
C      1  0.4751290000000  0.5802380000000  0.4595960000000 1.0
C      1  0.5535260000000  0.5059210000000  0.4677650000000 1.0
C      1  0.5988990000000  0.5067600000000  0.5110130000000 1.0
C      1  0.4369800000000  0.5231330000000  0.5440800000000 1.0
C      1  0.5008300000000  0.4915830000000  0.4053410000000 1.0
C      1  0.4699740000000  0.4870620000000  0.5217470000000 1.0
C      1  0.4569990000000  0.5691060000000  0.5140500000000 1.0
C      1  0.5038550000000  0.4042320000000  0.5001220000000 1.0
C      1  0.4078160000000  0.5166210000000  0.5324950000000 1.0
C      1  0.5180680000000  0.4669670000000  0.4542020000000 1.0
C      1  0.5327620000000  0.4101380000000  0.5023140000000 1.0
C      1  0.5210230000000  0.5456410000000  0.4861520000000 1.0
C      1  0.4456170000000  0.4290450000000  0.4996460000000 1.0
C      1  0.5084440000000  0.5830250000000  0.5565680000000 1.0
C      1  0.4877360000000  0.4700190000000  0.4489870000000 1.0
C      1  0.5079390000000  0.5022740000000  0.6109000000000 1.0
C      1  0.5350150000000  0.5091890000000  0.4003380000000 1.0
C      1  0.5392490000000  0.4152650000000  0.4506490000000 1.0
C      1  0.4032760000000  0.4845390000000  0.4695600000000 1.0
C      1  0.4573020000000  0.4052640000000  0.5151630000000 1.0
C      1  0.4857850000000  0.4041940000000  0.5237640000000 1.0
C      1  0.4890820000000  0.5757090000000  0.5099880000000 1.0
C      1  0.4639630000000  0.4562740000000  0.5631830000000 1.0
C      1  0.4072070000000  0.4595400000000  0.4844880000000 1.0
C      1  0.4048160000000  0.5019010000000  0.5069310000000 1.0
C      1  0.5272990000000  0.4508430000000  0.4816020000000 1.0
C      1  0.4823980000000  0.5036210000000  0.5946430000000 1.0
C      1  0.4624620000000  0.4261370000000  0.4415680000000 1.0
C      1  0.5685480000000  0.4786190000000  0.4236600000000 1.0
C      1  0.4375750000000  0.5153670000000  0.4174460000000 1.0
C      1  0.5093950000000  0.4976330000000  0.4901020000000 1.0
C      1  0.5231750000000  0.5050540000000  0.5184660000000 1.0
C      1  0.4737280000000  0.4693220000000  0.4748430000000 1.0
C      1  0.4707650000000  0.5313370000000  0.5971340000000 1.0
C      1  0.5267240000000  0.4572160000000  0.4251920000000 1.0
C      1  0.4515330000000  0.5645420000000  0.4641550000000 1.0
C      1  0.4399530000000  0.5658280000000  0.4897770000000 1.0
C      1  0.5270970000000  0.4797860000000  0.5989530000000 1.0
C      1  0.4341370000000  0.4488820000000  0.4776770000000 1.0
C      1  0.4779770000000  0.5128200000000  0.5399540000000 1.0
C      1  0.4463760000000  0.5463020000000  0.4172190000000 1.0
C      1  0.5427760000000  0.4804210000000  0.4107950000000 1.0
C      1  0.4235140000000  0.4639850000000  0.5346650000000 1.0
C      1  0.4467720000000  0.4776670000000  0.4758360000000 1.0
C      1  0.5493290000000  0.5610320000000  0.5449220000000 1.0
C      1  0.5122510000000  0.4438830000000  0.5305870000000 1.0
C      1  0.5522670000000  0.5744700000000  0.4707520000000 1.0
C      1  0.5504030000000  0.5342320000000  0.4896300000000 1.0
C      1  0.5975510000000  0.4757580000000  0.5029580000000 1.0
C      1  0.5419390000000  0.4211310000000  0.5547360000000 1.0
C      1  0.5429670000000  0.5021250000000  0.5844950000000 1.0
C      1  0.4277760000000  0.4590290000000  0.4310660000000 1.0
C      1  0.4555760000000  0.6014820000000  0.5526320000000 1.0
C      1  0.4111160000000  0.4745660000000  0.5572910000000 1.0
C      1  0.5703190000000  0.5056650000000  0.5766040000000 1.0
C      1  0.4544080000000  0.5374560000000  0.5204350000000 1.0
C      1  0.4586450000000  0.4940590000000  0.4184230000000 1.0
C      1  0.5808760000000  0.5547950000000  0.5016370000000 1.0
C      1  0.5402160000000  0.5306780000000  0.4201350000000 1.0
C      1  0.5517970000000  0.4701740000000  0.5462940000000 1.0
C      1  0.4928660000000  0.3979550000000  0.4753850000000 1.0
C      1  0.4418250000000  0.5598400000000  0.5681170000000 1.0
C      1  0.4115060000000  0.5059000000000  0.4251100000000 1.0
C      1  0.4121730000000  0.4829500000000  0.4414340000000 1.0
C      1  0.5451850000000  0.4679080000000  0.4986910000000 1.0
C      1  0.5461890000000  0.4349480000000  0.4313990000000 1.0
C      1  0.4115250000000  0.5459650000000  0.5251640000000 1.0
C      1  0.5651530000000  0.5307420000000  0.4355490000000 1.0
C      1  0.5632600000000  0.4900840000000  0.4927110000000 1.0
C      1  0.5739770000000  0.4913750000000  0.5513600000000 1.0
C      1  0.5055210000000  0.5159920000000  0.3884080000000 1.0
C      1  0.4805240000000  0.5783930000000  0.5882580000000 1.0
C      1  0.5040060000000  0.4737610000000  0.5557890000000 1.0
C      1  0.5162120000000  0.5396520000000  0.4330020000000 1.0
C      1  0.5865160000000  0.4505790000000  0.5172210000000 1.0
C      1  0.5211870000000  0.5716230000000  0.4692810000000 1.0
C      1  0.4649340000000  0.5175730000000  0.4976000000000 1.0
C      1  0.5148660000000  0.5668590000000  0.4404910000000 1.0
C      1  0.4506140000000  0.4721670000000  0.5834130000000 1.0
C      1  0.4163160000000  0.5182750000000  0.4842290000000 1.0
C      1  0.5823160000000  0.4504680000000  0.4626440000000 1.0
C      1  0.5036690000000  0.5257670000000  0.5282960000000 1.0
C      1  0.4573930000000  0.5829810000000  0.5737060000000 1.0
C      1  0.5011660000000  0.4478290000000  0.4103960000000 1.0
C      1  0.4872960000000  0.5730430000000  0.4337250000000 1.0
C      1  0.4247800000000  0.5655020000000  0.5450690000000 1.0
C      1  0.4444800000000  0.5364220000000  0.5849170000000 1.0
C      1  0.5019470000000  0.4484150000000  0.5021690000000 1.0
C      1  0.5468030000000  0.5802710000000  0.5221180000000 1.0
C      1  0.5571770000000  0.4539200000000  0.5213630000000 1.0
C      1  0.4759520000000  0.5504770000000  0.4175290000000 1.0
C      1  0.5908910000000  0.5453080000000  0.4771520000000 1.0
C      1  0.5188390000000  0.4065540000000  0.5612340000000 1.0
C      1  0.4544030000000  0.4627290000000  0.5351560000000 1.0
C      1  0.5162250000000  0.5456930000000  0.5843770000000 1.0
C      1  0.4762180000000  0.4498080000000  0.4283030000000 1.0
C      1  0.4307280000000  0.4886430000000  0.5710080000000 1.0
C      1  0.4660550000000  0.4426890000000  0.5162670000000 1.0
C      1  0.4546600000000  0.5228890000000  0.4514360000000 1.0
C      1  0.5760050000000  0.5146110000000  0.5311630000000 1.0
C      1  0.4980890000000  0.4220030000000  0.5474240000000 1.0
C      1  0.4919290000000  0.5207030000000  0.4808980000000 1.0
C      1  0.4526110000000  0.4656490000000  0.4161180000000 1.0
C      1  0.5262300000000  0.4839770000000  0.5395160000000 1.0
C      1  0.4758220000000  0.4072930000000  0.4570660000000 1.0
C      1  0.4260220000000  0.5150170000000  0.5805580000000 1.0
C      1  0.5286610000000  0.5653800000000  0.5660830000000 1.0
C      1  0.4185460000000  0.5469290000000  0.4961010000000 1.0
C      1  0.4864380000000  0.5220690000000  0.4496290000000 1.0
C      1  0.5436620000000  0.4483910000000  0.5677080000000 1.0
C      1  0.5896150000000  0.4264840000000  0.5037220000000 1.0
C      1  0.5725490000000  0.5416390000000  0.5477220000000 1.0
C      1  0.5521400000000  0.5127780000000  0.5115660000000 1.0
C      1  0.4045500000000  0.4640480000000  0.5127190000000 1.0
END
