TITL C-3578198-8939-410 -1.0223643823355e-06 125000 -736.500965568637 0 0 118 (C1) n - 1
REM
REM in /home/bkarasulu/work/CARBON/AIRSS/Generating-Clusters/EDIP-Nigel-Params/with-SteepDescent/Higher-Symm/SD-CG/HFTN-CG
REM
REM
REM
REM
REM
REM ./C.cell (12c818d87b63d06a65506943cc24bca4)
REM
REM compiler GCC version 9.2.1 20190827 (Red Hat 9.2.1-1)
REM options -cpp -mtune=generic -march=x86-64 -g -O0 -fpre-include=/usr/include/finclude/math-vector-fortran.h
REM seed 1094715568 -226692814 729500514 1678522984 -732387137 -591536671 1016737903 -2052978062 1270326003 1277283302 -1178465299 1026835203 -198688336 2020511381 1319259940 -7233597 -1697990810 2048353311 -2109713947 -1116981920 1336484152 -739008488 864116422 585068164 1412155701 2015448970 -689434715 282534190 -1356419994 -393617341 -2036694875 1586095345 -505749545
REM
CELL 1.54180   50.00000   50.00000   50.00000   90.00000   90.00000   90.00000
LATT -1
SFAC C  
C      1  0.5053100000000  0.5977500000000  0.4725380000000 1.0
C      1  0.5125370000000  0.3972280000000  0.4770690000000 1.0
C      1  0.4928830000000  0.4538090000000  0.4203440000000 1.0
C      1  0.4888190000000  0.5542690000000  0.4252170000000 1.0
C      1  0.5623050000000  0.5260660000000  0.5303760000000 1.0
C      1  0.5615720000000  0.4743850000000  0.5307160000000 1.0
C      1  0.5124870000000  0.4710880000000  0.5265230000000 1.0
C      1  0.5127190000000  0.5298880000000  0.5284570000000 1.0
C      1  0.4362680000000  0.4877380000000  0.4298970000000 1.0
C      1  0.4351350000000  0.5189590000000  0.4318660000000 1.0
C      1  0.4684970000000  0.6033960000000  0.4955550000000 1.0
C      1  0.4721580000000  0.3979940000000  0.4932160000000 1.0
C      1  0.4948890000000  0.4712860000000  0.4780080000000 1.0
C      1  0.4935470000000  0.5277590000000  0.4824100000000 1.0
C      1  0.5499050000000  0.4262330000000  0.5187470000000 1.0
C      1  0.5461800000000  0.5699940000000  0.5154940000000 1.0
C      1  0.5046560000000  0.4909240000000  0.3986500000000 1.0
C      1  0.5148960000000  0.5144840000000  0.4101290000000 1.0
C      1  0.4768610000000  0.5800870000000  0.5319480000000 1.0
C      1  0.4779430000000  0.4208740000000  0.5303890000000 1.0
C      1  0.4930850000000  0.5150090000000  0.5955470000000 1.0
C      1  0.4932180000000  0.4849700000000  0.5956030000000 1.0
C      1  0.4320260000000  0.4396060000000  0.5103660000000 1.0
C      1  0.4298670000000  0.5607200000000  0.5129200000000 1.0
C      1  0.5886470000000  0.4423080000000  0.4928460000000 1.0
C      1  0.5864860000000  0.5551500000000  0.4908850000000 1.0
C      1  0.4891280000000  0.5297260000000  0.4118550000000 1.0
C      1  0.4829220000000  0.4784100000000  0.4115330000000 1.0
C      1  0.4137090000000  0.4647240000000  0.5029960000000 1.0
C      1  0.4113670000000  0.5356790000000  0.5054550000000 1.0
C      1  0.5364810000000  0.4849360000000  0.5144330000000 1.0
C      1  0.5365600000000  0.5168480000000  0.5143640000000 1.0
C      1  0.5594180000000  0.5561130000000  0.5371830000000 1.0
C      1  0.5579030000000  0.4450310000000  0.5385320000000 1.0
C      1  0.4880170000000  0.4842670000000  0.5404870000000 1.0
C      1  0.4874700000000  0.5163590000000  0.5408210000000 1.0
C      1  0.5463030000000  0.4458330000000  0.4820120000000 1.0
C      1  0.5440190000000  0.5547740000000  0.4737020000000 1.0
C      1  0.4387800000000  0.5537410000000  0.5403620000000 1.0
C      1  0.4389260000000  0.4455500000000  0.5389240000000 1.0
C      1  0.5400310000000  0.4438120000000  0.5617700000000 1.0
C      1  0.5411060000000  0.5572830000000  0.5612480000000 1.0
C      1  0.4757820000000  0.4444070000000  0.5726720000000 1.0
C      1  0.4759720000000  0.5551580000000  0.5731700000000 1.0
C      1  0.5159930000000  0.5183520000000  0.4655440000000 1.0
C      1  0.5180770000000  0.4847110000000  0.4650360000000 1.0
C      1  0.5866500000000  0.5143420000000  0.5147670000000 1.0
C      1  0.5868070000000  0.4842990000000  0.5157470000000 1.0
C      1  0.4385170000000  0.5593760000000  0.4754030000000 1.0
C      1  0.4412280000000  0.4412980000000  0.4726990000000 1.0
C      1  0.4682340000000  0.4267150000000  0.5025760000000 1.0
C      1  0.4658310000000  0.5741180000000  0.5045700000000 1.0
C      1  0.5417800000000  0.4783780000000  0.4287180000000 1.0
C      1  0.5376720000000  0.5074760000000  0.4295540000000 1.0
C      1  0.4284230000000  0.4692720000000  0.4775160000000 1.0
C      1  0.4264470000000  0.5309160000000  0.4801140000000 1.0
C      1  0.5114970000000  0.5506450000000  0.4435750000000 1.0
C      1  0.5183800000000  0.4596430000000  0.4353070000000 1.0
C      1  0.4590070000000  0.5192570000000  0.5221260000000 1.0
C      1  0.4613370000000  0.4864920000000  0.5212580000000 1.0
C      1  0.4175460000000  0.4855370000000  0.5239510000000 1.0
C      1  0.4152740000000  0.5148420000000  0.5262970000000 1.0
C      1  0.4983740000000  0.4291090000000  0.5780070000000 1.0
C      1  0.4988750000000  0.5701130000000  0.5782980000000 1.0
C      1  0.5243600000000  0.4839250000000  0.5945850000000 1.0
C      1  0.5242150000000  0.5164420000000  0.5942900000000 1.0
C      1  0.4615050000000  0.5706290000000  0.4606690000000 1.0
C      1  0.4644780000000  0.4298750000000  0.4584520000000 1.0
C      1  0.5623230000000  0.5693930000000  0.4909670000000 1.0
C      1  0.5708180000000  0.4222240000000  0.4995810000000 1.0
C      1  0.4661940000000  0.5189920000000  0.4393640000000 1.0
C      1  0.4666930000000  0.4878770000000  0.4365160000000 1.0
C      1  0.4739890000000  0.5968520000000  0.4673090000000 1.0
C      1  0.4768540000000  0.4042720000000  0.4655420000000 1.0
C      1  0.4492260000000  0.4851140000000  0.5696910000000 1.0
C      1  0.4489880000000  0.5141200000000  0.5704380000000 1.0
C      1  0.5286760000000  0.4336010000000  0.4438660000000 1.0
C      1  0.5351550000000  0.5580770000000  0.4281570000000 1.0
C      1  0.5005680000000  0.3935350000000  0.5041580000000 1.0
C      1  0.4989440000000  0.6049540000000  0.5027260000000 1.0
C      1  0.4340980000000  0.4733600000000  0.5455350000000 1.0
C      1  0.4315190000000  0.5268690000000  0.5484600000000 1.0
C      1  0.5584880000000  0.5145430000000  0.5575100000000 1.0
C      1  0.5581500000000  0.4860710000000  0.5576560000000 1.0
C      1  0.5062750000000  0.5827300000000  0.5305990000000 1.0
C      1  0.5075990000000  0.4180670000000  0.5296750000000 1.0
C      1  0.5147520000000  0.5575590000000  0.5152870000000 1.0
C      1  0.5160100000000  0.4433960000000  0.5133080000000 1.0
C      1  0.4164590000000  0.4852890000000  0.4535070000000 1.0
C      1  0.4149730000000  0.5168880000000  0.4552220000000 1.0
C      1  0.4512330000000  0.5153730000000  0.4886700000000 1.0
C      1  0.4530450000000  0.4841060000000  0.4861570000000 1.0
C      1  0.4704950000000  0.4734510000000  0.4639260000000 1.0
C      1  0.4692530000000  0.5278760000000  0.4689710000000 1.0
C      1  0.5562490000000  0.4404440000000  0.4530200000000 1.0
C      1  0.5555160000000  0.5513130000000  0.4458680000000 1.0
C      1  0.5777080000000  0.5118660000000  0.4645300000000 1.0
C      1  0.5775390000000  0.4830240000000  0.4664430000000 1.0
C      1  0.5182730000000  0.5768900000000  0.5593860000000 1.0
C      1  0.5181480000000  0.4237220000000  0.5590940000000 1.0
C      1  0.5378410000000  0.5267850000000  0.4845830000000 1.0
C      1  0.5385540000000  0.4752300000000  0.4856310000000 1.0
C      1  0.4729300000000  0.4405300000000  0.4343740000000 1.0
C      1  0.4644960000000  0.5637170000000  0.4341300000000 1.0
C      1  0.4775920000000  0.4742500000000  0.5714160000000 1.0
C      1  0.4773410000000  0.5253560000000  0.5716150000000 1.0
C      1  0.4970220000000  0.4431280000000  0.4892340000000 1.0
C      1  0.4953240000000  0.5560350000000  0.4918460000000 1.0
C      1  0.4649550000000  0.5608980000000  0.5476670000000 1.0
C      1  0.4652370000000  0.4390670000000  0.5467530000000 1.0
C      1  0.5612820000000  0.5230500000000  0.4418950000000 1.0
C      1  0.5652560000000  0.4673190000000  0.4439040000000 1.0
C      1  0.5896640000000  0.5271670000000  0.4879870000000 1.0
C      1  0.5908680000000  0.4701150000000  0.4897710000000 1.0
C      1  0.5146610000000  0.4256640000000  0.4702860000000 1.0
C      1  0.5122200000000  0.5685520000000  0.4704620000000 1.0
C      1  0.5368890000000  0.5288460000000  0.5704350000000 1.0
C      1  0.5363620000000  0.4720580000000  0.5705790000000 1.0
END
