TITL C-3578206-1180-624 -9.22204916268214e-07 125000 -524.973066075896 0 0 83 (C1) n - 1
REM
REM in /home/bkarasulu/work/CARBON/AIRSS/Generating-Clusters/EDIP-Nigel-Params/with-SteepDescent/Higher-Symm/SD-CG/HFTN-CG
REM
REM
REM
REM
REM
REM ./C.cell (12c818d87b63d06a65506943cc24bca4)
REM
REM compiler GCC version 9.2.1 20190827 (Red Hat 9.2.1-1)
REM options -cpp -mtune=generic -march=x86-64 -g -O0 -fpre-include=/usr/include/finclude/math-vector-fortran.h
REM seed 1295971004 -1978555090 1123722013 -1862768789 -1505191015 1082044497 1178171382 -1246127332 1120633291 -1589572155 956399559 -1555708600 1321478671 -787491882 -2051139647 -92342380 123402386 1590321759 1618334833 -631190961 1875389926 -1599348970 1104685226 905666778 299052530 1948688126 -352978920 -984949152 1527830427 -1413575444 575362809 1692490262 -1606528258
REM
CELL 1.54180   50.00000   50.00000   50.00000   90.00000   90.00000   90.00000
LATT -1
SFAC C  
C      1  0.5898100000000  0.5044420000000  0.5294570000000 1.0
C      1  0.4548670000000  0.5777130000000  0.5258150000000 1.0
C      1  0.4580420000000  0.4263590000000  0.5215740000000 1.0
C      1  0.4821940000000  0.5735850000000  0.4702200000000 1.0
C      1  0.4459130000000  0.4484520000000  0.4693110000000 1.0
C      1  0.5698990000000  0.4782640000000  0.4726280000000 1.0
C      1  0.4726730000000  0.5510840000000  0.5601630000000 1.0
C      1  0.4697240000000  0.4467710000000  0.5627770000000 1.0
C      1  0.5532160000000  0.5028660000000  0.5584580000000 1.0
C      1  0.4349800000000  0.5079490000000  0.5051540000000 1.0
C      1  0.5309630000000  0.4339940000000  0.5063550000000 1.0
C      1  0.5395210000000  0.5528520000000  0.5074680000000 1.0
C      1  0.5314650000000  0.5705890000000  0.4844410000000 1.0
C      1  0.4225080000000  0.4920970000000  0.4824210000000 1.0
C      1  0.5467970000000  0.4369340000000  0.4818970000000 1.0
C      1  0.5339020000000  0.4637670000000  0.4411240000000 1.0
C      1  0.5150630000000  0.5455810000000  0.4444640000000 1.0
C      1  0.4531840000000  0.4897370000000  0.4428310000000 1.0
C      1  0.5250220000000  0.5015930000000  0.5667810000000 1.0
C      1  0.4939180000000  0.5386870000000  0.5727340000000 1.0
C      1  0.4720460000000  0.4708590000000  0.5774680000000 1.0
C      1  0.4885290000000  0.4202190000000  0.4791860000000 1.0
C      1  0.5736650000000  0.5274950000000  0.4838510000000 1.0
C      1  0.4378130000000  0.5521300000000  0.4798500000000 1.0
C      1  0.4474940000000  0.5084990000000  0.5521010000000 1.0
C      1  0.5195530000000  0.4509660000000  0.5533150000000 1.0
C      1  0.5360340000000  0.5474770000000  0.5546080000000 1.0
C      1  0.5612780000000  0.5315480000000  0.5550990000000 1.0
C      1  0.4587410000000  0.5339370000000  0.5404080000000 1.0
C      1  0.4946160000000  0.4342320000000  0.5522300000000 1.0
C      1  0.5228090000000  0.4768120000000  0.5036360000000 1.0
C      1  0.5050570000000  0.5187730000000  0.5262650000000 1.0
C      1  0.4735250000000  0.4804770000000  0.5193830000000 1.0
C      1  0.5085370000000  0.5216890000000  0.4748560000000 1.0
C      1  0.4815300000000  0.5007160000000  0.4744900000000 1.0
C      1  0.5185680000000  0.4908670000000  0.4726450000000 1.0
C      1  0.5467250000000  0.4989610000000  0.5044630000000 1.0
C      1  0.4779240000000  0.5268020000000  0.5183580000000 1.0
C      1  0.4743710000000  0.4549680000000  0.5017240000000 1.0
C      1  0.5806610000000  0.5321090000000  0.5322130000000 1.0
C      1  0.4396280000000  0.5531540000000  0.5283570000000 1.0
C      1  0.4867570000000  0.4215050000000  0.5271450000000 1.0
C      1  0.5083060000000  0.4792700000000  0.5556340000000 1.0
C      1  0.5141300000000  0.5275170000000  0.5559910000000 1.0
C      1  0.4709900000000  0.4905170000000  0.5569790000000 1.0
C      1  0.5383750000000  0.5562910000000  0.4600070000000 1.0
C      1  0.4324400000000  0.5046990000000  0.4577130000000 1.0
C      1  0.5309750000000  0.4389810000000  0.4569260000000 1.0
C      1  0.5707450000000  0.4518660000000  0.4818220000000 1.0
C      1  0.5054190000000  0.5817130000000  0.4835360000000 1.0
C      1  0.4259710000000  0.4640770000000  0.4814050000000 1.0
C      1  0.4776270000000  0.5752660000000  0.5435940000000 1.0
C      1  0.4475210000000  0.4440290000000  0.5431080000000 1.0
C      1  0.5629060000000  0.4913210000000  0.5316560000000 1.0
C      1  0.4934180000000  0.4693820000000  0.4799430000000 1.0
C      1  0.5252550000000  0.5248180000000  0.5033370000000 1.0
C      1  0.4660580000000  0.5048220000000  0.5025170000000 1.0
C      1  0.4583150000000  0.4250400000000  0.4830150000000 1.0
C      1  0.5813720000000  0.4999760000000  0.4866580000000 1.0
C      1  0.4561440000000  0.5738770000000  0.4807150000000 1.0
C      1  0.5306810000000  0.5661350000000  0.5329190000000 1.0
C      1  0.4300230000000  0.4952760000000  0.5326040000000 1.0
C      1  0.5395580000000  0.4468300000000  0.5314190000000 1.0
C      1  0.5040260000000  0.4228840000000  0.5041630000000 1.0
C      1  0.5693670000000  0.5448140000000  0.5073980000000 1.0
C      1  0.4289970000000  0.5389110000000  0.5045890000000 1.0
C      1  0.5552190000000  0.5325360000000  0.4624900000000 1.0
C      1  0.4419630000000  0.5327910000000  0.4583630000000 1.0
C      1  0.5019050000000  0.4331450000000  0.4566220000000 1.0
C      1  0.4872320000000  0.4524720000000  0.4400310000000 1.0
C      1  0.5466580000000  0.5114340000000  0.4447320000000 1.0
C      1  0.4657530000000  0.5355890000000  0.4416950000000 1.0
C      1  0.5213580000000  0.5190190000000  0.4326410000000 1.0
C      1  0.4728050000000  0.5084630000000  0.4322270000000 1.0
C      1  0.5074410000000  0.4718310000000  0.4301400000000 1.0
C      1  0.5543090000000  0.4836400000000  0.4488550000000 1.0
C      1  0.4872620000000  0.5519280000000  0.4522620000000 1.0
C      1  0.4618610000000  0.4630680000000  0.4503300000000 1.0
C      1  0.5043880000000  0.5765420000000  0.5343380000000 1.0
C      1  0.4343090000000  0.4676350000000  0.5353000000000 1.0
C      1  0.5630230000000  0.4624250000000  0.5331290000000 1.0
C      1  0.5030350000000  0.4879190000000  0.5262100000000 1.0
C      1  0.5003810000000  0.4996840000000  0.4331470000000 1.0
END
