TITL C-3578200-9634-505 -7.9050320104558e-07 125000 -514.800139222496 0 0 85 (C1) n - 1
REM
REM in /home/bkarasulu/work/CARBON/AIRSS/Generating-Clusters/EDIP-Nigel-Params/with-SteepDescent/Higher-Symm/SD-CG/HFTN-CG
REM
REM
REM
REM
REM
REM ./C.cell (12c818d87b63d06a65506943cc24bca4)
REM
REM compiler GCC version 9.2.1 20190827 (Red Hat 9.2.1-1)
REM options -cpp -mtune=generic -march=x86-64 -g -O0 -fpre-include=/usr/include/finclude/math-vector-fortran.h
REM seed -333257699 -2105121331 -1811122910 49493773 -301362086 -1128080173 26191741 924232829 -59423598 1336159488 1463056125 678608231 1544306673 673609584 640272739 699020682 286143768 -1370451341 -1666090719 -1528555374 813448494 230292747 -1993269028 794983483 -1358126838 1304081774 -293465158 1532477256 1727358651 1246789687 763832487 1553938883 1867434391
REM
CELL 1.54180   50.00000   50.00000   50.00000   90.00000   90.00000   90.00000
LATT -1
SFAC C  
C      1  0.4649880000000  0.5388300000000  0.5559140000000 1.0
C      1  0.4737240000000  0.4612740000000  0.5754050000000 1.0
C      1  0.4684280000000  0.4368280000000  0.4853070000000 1.0
C      1  0.4711910000000  0.4910290000000  0.4184810000000 1.0
C      1  0.4660380000000  0.5606920000000  0.4629090000000 1.0
C      1  0.4645030000000  0.5386400000000  0.4439610000000 1.0
C      1  0.4737640000000  0.4611500000000  0.4245120000000 1.0
C      1  0.4684430000000  0.4369440000000  0.5146150000000 1.0
C      1  0.4712810000000  0.4911680000000  0.5814610000000 1.0
C      1  0.4668510000000  0.5607150000000  0.5367920000000 1.0
C      1  0.5060400000000  0.4318230000000  0.4521050000000 1.0
C      1  0.5184970000000  0.5123160000000  0.4106170000000 1.0
C      1  0.5085100000000  0.5761610000000  0.4845400000000 1.0
C      1  0.5130280000000  0.5418070000000  0.5805850000000 1.0
C      1  0.5018170000000  0.4563850000000  0.5648850000000 1.0
C      1  0.5059160000000  0.4318220000000  0.5479090000000 1.0
C      1  0.5186500000000  0.5121440000000  0.5896350000000 1.0
C      1  0.5096580000000  0.5752630000000  0.5151690000000 1.0
C      1  0.5126460000000  0.5419150000000  0.4196840000000 1.0
C      1  0.5018610000000  0.4563730000000  0.4351260000000 1.0
C      1  0.4455880000000  0.4925450000000  0.5622210000000 1.0
C      1  0.4504940000000  0.4562630000000  0.5265990000000 1.0
C      1  0.4503840000000  0.4619860000000  0.4445230000000 1.0
C      1  0.4557700000000  0.5133610000000  0.4585010000000 1.0
C      1  0.4439250000000  0.5625240000000  0.5191420000000 1.0
C      1  0.4453630000000  0.4922490000000  0.4375610000000 1.0
C      1  0.4504330000000  0.4560480000000  0.4732170000000 1.0
C      1  0.4504430000000  0.4622720000000  0.5552790000000 1.0
C      1  0.4562350000000  0.5135840000000  0.5413270000000 1.0
C      1  0.4431470000000  0.5623550000000  0.4805960000000 1.0
C      1  0.4132740000000  0.4982680000000  0.5411000000000 1.0
C      1  0.4248140000000  0.4604640000000  0.5142220000000 1.0
C      1  0.4055000000000  0.4743910000000  0.4709170000000 1.0
C      1  0.4304410000000  0.5153310000000  0.4732130000000 1.0
C      1  0.4234590000000  0.5419220000000  0.5149910000000 1.0
C      1  0.4129400000000  0.4978850000000  0.4585500000000 1.0
C      1  0.4247550000000  0.4602660000000  0.4855860000000 1.0
C      1  0.4056440000000  0.4748160000000  0.5287660000000 1.0
C      1  0.4309590000000  0.5156130000000  0.5265400000000 1.0
C      1  0.4227730000000  0.5416500000000  0.4846920000000 1.0
C      1  0.5364970000000  0.4782390000000  0.5457080000000 1.0
C      1  0.5447840000000  0.4468580000000  0.4761940000000 1.0
C      1  0.5525230000000  0.5039040000000  0.4477500000000 1.0
C      1  0.5509430000000  0.5456770000000  0.4808480000000 1.0
C      1  0.5414480000000  0.5299880000000  0.5430950000000 1.0
C      1  0.5363200000000  0.4784060000000  0.4545380000000 1.0
C      1  0.5447570000000  0.4466650000000  0.5239770000000 1.0
C      1  0.5528760000000  0.5036120000000  0.5527200000000 1.0
C      1  0.5522340000000  0.5450450000000  0.5198420000000 1.0
C      1  0.5408660000000  0.5301760000000  0.4574420000000 1.0
C      1  0.5840800000000  0.4751380000000  0.4702310000000 1.0
C      1  0.5920270000000  0.5206820000000  0.4716920000000 1.0
C      1  0.5817770000000  0.5415530000000  0.5152250000000 1.0
C      1  0.5813120000000  0.4990770000000  0.5429120000000 1.0
C      1  0.5693870000000  0.4572240000000  0.5145210000000 1.0
C      1  0.5842470000000  0.4745560000000  0.5303010000000 1.0
C      1  0.5928610000000  0.5198730000000  0.5286640000000 1.0
C      1  0.5806300000000  0.5418010000000  0.4857780000000 1.0
C      1  0.5809120000000  0.4996070000000  0.4575600000000 1.0
C      1  0.5693960000000  0.4574100000000  0.4857480000000 1.0
C      1  0.5360550000000  0.4342130000000  0.5486420000000 1.0
C      1  0.5405520000000  0.4569710000000  0.4331800000000 1.0
C      1  0.5387450000000  0.5447570000000  0.4323150000000 1.0
C      1  0.5406120000000  0.5726540000000  0.5144030000000 1.0
C      1  0.5474060000000  0.5099140000000  0.5819930000000 1.0
C      1  0.5361740000000  0.4343870000000  0.4514850000000 1.0
C      1  0.5404990000000  0.4567200000000  0.5670120000000 1.0
C      1  0.5392380000000  0.5445340000000  0.5681890000000 1.0
C      1  0.5396100000000  0.5741530000000  0.4828770000000 1.0
C      1  0.5472150000000  0.5102760000000  0.4184880000000 1.0
C      1  0.4967070000000  0.5022630000000  0.5685550000000 1.0
C      1  0.4959280000000  0.4386970000000  0.5221740000000 1.0
C      1  0.5063440000000  0.4813020000000  0.4527030000000 1.0
C      1  0.4939010000000  0.5320130000000  0.4420500000000 1.0
C      1  0.4929660000000  0.5524340000000  0.5244230000000 1.0
C      1  0.4964930000000  0.5022520000000  0.4315380000000 1.0
C      1  0.4959240000000  0.4386340000000  0.4778050000000 1.0
C      1  0.5065090000000  0.4813280000000  0.5473600000000 1.0
C      1  0.4943440000000  0.5320220000000  0.5580850000000 1.0
C      1  0.4921940000000  0.5529660000000  0.4754000000000 1.0
C      1  0.4883360000000  0.4760120000000  0.5165970000000 1.0
C      1  0.4781810000000  0.5046520000000  0.4776050000000 1.0
C      1  0.4787120000000  0.5048640000000  0.5222560000000 1.0
C      1  0.4847650000000  0.5234830000000  0.4997190000000 1.0
C      1  0.4881740000000  0.4759400000000  0.4832450000000 1.0
END
