TITL C-3578201-9217-449 3.02562713613189e-06 125000 -1141.67555658668 0 0 181 (C1) n - 1
REM
REM in /home/bkarasulu/work/CARBON/AIRSS/Generating-Clusters/EDIP-Nigel-Params/with-SteepDescent/Higher-Symm/SD-CG/HFTN-CG
REM
REM
REM
REM
REM
REM ./C.cell (12c818d87b63d06a65506943cc24bca4)
REM
REM compiler GCC version 9.2.1 20190827 (Red Hat 9.2.1-1)
REM options -cpp -mtune=generic -march=x86-64 -g -O0 -fpre-include=/usr/include/finclude/math-vector-fortran.h
REM seed -1083138836 1966806763 -906430584 -2062615857 278440386 1030127771 -2037238321 -2047087133 -692707989 1468012384 -1943503525 1567940933 -770781201 1293795701 -1764338481 496716525 1737599179 1341191527 -395328808 -676597056 1523588291 285996155 -1544925884 -746450267 -1775695416 1772483736 1784118165 1456736016 497367188 -1035648211 -2003974630 -407586027 349923045
REM
CELL 1.54180   50.00000   50.00000   50.00000   90.00000   90.00000   90.00000
LATT -1
SFAC C  
C      1  0.5723240000000  0.5046010000000  0.5865430000000 1.0
C      1  0.4710730000000  0.3869130000000  0.5315170000000 1.0
C      1  0.5439440000000  0.4210900000000  0.4342600000000 1.0
C      1  0.4975990000000  0.5657670000000  0.5971660000000 1.0
C      1  0.5646550000000  0.5859960000000  0.5386090000000 1.0
C      1  0.4742600000000  0.6071460000000  0.4875220000000 1.0
C      1  0.4143760000000  0.5715550000000  0.4968060000000 1.0
C      1  0.5130630000000  0.4925620000000  0.3678260000000 1.0
C      1  0.4646290000000  0.4900760000000  0.5638600000000 1.0
C      1  0.4487000000000  0.5953120000000  0.5253140000000 1.0
C      1  0.5152400000000  0.5564460000000  0.3983610000000 1.0
C      1  0.3937240000000  0.4898130000000  0.4977450000000 1.0
C      1  0.5427520000000  0.5405780000000  0.5936840000000 1.0
C      1  0.4854040000000  0.5629790000000  0.4591800000000 1.0
C      1  0.5562930000000  0.4437390000000  0.5042480000000 1.0
C      1  0.4663290000000  0.4664640000000  0.3989920000000 1.0
C      1  0.5071320000000  0.5033320000000  0.6015640000000 1.0
C      1  0.4556640000000  0.4924790000000  0.3905690000000 1.0
C      1  0.4848900000000  0.5415990000000  0.5837310000000 1.0
C      1  0.4494230000000  0.4701600000000  0.5455940000000 1.0
C      1  0.5022850000000  0.5777010000000  0.4275590000000 1.0
C      1  0.4891910000000  0.5297010000000  0.5111280000000 1.0
C      1  0.5114800000000  0.4745230000000  0.6125370000000 1.0
C      1  0.5699540000000  0.5866960000000  0.4852470000000 1.0
C      1  0.4009220000000  0.5099370000000  0.5477270000000 1.0
C      1  0.4734560000000  0.5163450000000  0.3892700000000 1.0
C      1  0.5147620000000  0.4994610000000  0.5710890000000 1.0
C      1  0.4744770000000  0.5054250000000  0.6070710000000 1.0
C      1  0.4656870000000  0.4208550000000  0.5790160000000 1.0
C      1  0.4908930000000  0.4088010000000  0.5740010000000 1.0
C      1  0.5170120000000  0.4385350000000  0.5272590000000 1.0
C      1  0.5284800000000  0.5862400000000  0.4414110000000 1.0
C      1  0.4851750000000  0.5865450000000  0.5783770000000 1.0
C      1  0.5006060000000  0.5750860000000  0.5536740000000 1.0
C      1  0.5212830000000  0.5976410000000  0.4675820000000 1.0
C      1  0.4127120000000  0.5384300000000  0.4611560000000 1.0
C      1  0.6081370000000  0.4982620000000  0.5529090000000 1.0
C      1  0.4746050000000  0.6074730000000  0.5181710000000 1.0
C      1  0.4426900000000  0.5320830000000  0.5449810000000 1.0
C      1  0.6013690000000  0.5673970000000  0.5215350000000 1.0
C      1  0.5263380000000  0.3846270000000  0.5143370000000 1.0
C      1  0.5882020000000  0.4930120000000  0.5212140000000 1.0
C      1  0.5840010000000  0.5439520000000  0.4179090000000 1.0
C      1  0.5536300000000  0.3952370000000  0.5078020000000 1.0
C      1  0.5161330000000  0.4705740000000  0.3845710000000 1.0
C      1  0.4933100000000  0.3910590000000  0.5504980000000 1.0
C      1  0.4474950000000  0.4309930000000  0.4315440000000 1.0
C      1  0.5570820000000  0.4756690000000  0.4520770000000 1.0
C      1  0.5561010000000  0.5474290000000  0.4223800000000 1.0
C      1  0.4177350000000  0.5652690000000  0.4692500000000 1.0
C      1  0.4164650000000  0.5274850000000  0.4977960000000 1.0
C      1  0.4597240000000  0.5557590000000  0.5404260000000 1.0
C      1  0.5736360000000  0.5666150000000  0.5063250000000 1.0
C      1  0.3986030000000  0.4426890000000  0.4733880000000 1.0
C      1  0.4906060000000  0.4606660000000  0.5959120000000 1.0
C      1  0.4474900000000  0.4633520000000  0.4820240000000 1.0
C      1  0.4997880000000  0.5721510000000  0.5046600000000 1.0
C      1  0.4230810000000  0.4304080000000  0.4460160000000 1.0
C      1  0.5339660000000  0.5460300000000  0.4661170000000 1.0
C      1  0.4756480000000  0.3935060000000  0.5031140000000 1.0
C      1  0.4175690000000  0.4962410000000  0.5677580000000 1.0
C      1  0.5057480000000  0.4532410000000  0.5703680000000 1.0
C      1  0.5060630000000  0.5424970000000  0.4540590000000 1.0
C      1  0.5023890000000  0.5126550000000  0.3839500000000 1.0
C      1  0.4954820000000  0.4814020000000  0.5284430000000 1.0
C      1  0.3822040000000  0.5102710000000  0.5149370000000 1.0
C      1  0.4307470000000  0.4961920000000  0.4029590000000 1.0
C      1  0.4495730000000  0.5419730000000  0.4315510000000 1.0
C      1  0.5142470000000  0.4876850000000  0.4570480000000 1.0
C      1  0.4449860000000  0.3883590000000  0.5412510000000 1.0
C      1  0.5257710000000  0.5282110000000  0.5460730000000 1.0
C      1  0.4966770000000  0.5264800000000  0.5397620000000 1.0
C      1  0.4635870000000  0.4651970000000  0.4540000000000 1.0
C      1  0.5640520000000  0.5060280000000  0.3976880000000 1.0
C      1  0.5808240000000  0.4571100000000  0.5688640000000 1.0
C      1  0.5793380000000  0.4576620000000  0.4925810000000 1.0
C      1  0.4386450000000  0.5918740000000  0.5519670000000 1.0
C      1  0.4938580000000  0.4980990000000  0.4382720000000 1.0
C      1  0.4229850000000  0.5300080000000  0.4355750000000 1.0
C      1  0.3794080000000  0.5363290000000  0.5017380000000 1.0
C      1  0.4414650000000  0.4279290000000  0.5667320000000 1.0
C      1  0.5123560000000  0.4281560000000  0.4986490000000 1.0
C      1  0.4948370000000  0.5861340000000  0.4784530000000 1.0
C      1  0.5777500000000  0.4751280000000  0.4298540000000 1.0
C      1  0.5220270000000  0.4889410000000  0.5111380000000 1.0
C      1  0.4112790000000  0.4845220000000  0.4497840000000 1.0
C      1  0.4235800000000  0.4466690000000  0.5774710000000 1.0
C      1  0.4675140000000  0.4944650000000  0.4489890000000 1.0
C      1  0.5873230000000  0.5705690000000  0.5480920000000 1.0
C      1  0.5724920000000  0.4814790000000  0.4777390000000 1.0
C      1  0.5093380000000  0.4977680000000  0.4844650000000 1.0
C      1  0.5051350000000  0.4365430000000  0.4130550000000 1.0
C      1  0.5408040000000  0.5130220000000  0.5233970000000 1.0
C      1  0.4457400000000  0.6019240000000  0.4792710000000 1.0
C      1  0.4712890000000  0.4232200000000  0.4451400000000 1.0
C      1  0.4554750000000  0.4147390000000  0.4933560000000 1.0
C      1  0.4065310000000  0.4550890000000  0.4481860000000 1.0
C      1  0.5525130000000  0.5343840000000  0.5020960000000 1.0
C      1  0.5648410000000  0.4767400000000  0.4027870000000 1.0
C      1  0.5334070000000  0.4379090000000  0.4138540000000 1.0
C      1  0.5406330000000  0.5003710000000  0.4470810000000 1.0
C      1  0.5610610000000  0.4218160000000  0.5277790000000 1.0
C      1  0.4602880000000  0.5142130000000  0.4708860000000 1.0
C      1  0.4942740000000  0.4534740000000  0.5405340000000 1.0
C      1  0.4232010000000  0.4677680000000  0.5594280000000 1.0
C      1  0.5971500000000  0.4650950000000  0.5137840000000 1.0
C      1  0.5486090000000  0.4032050000000  0.4792040000000 1.0
C      1  0.4872330000000  0.5633850000000  0.4038650000000 1.0
C      1  0.4573490000000  0.5808160000000  0.5703420000000 1.0
C      1  0.4292500000000  0.4192880000000  0.5081250000000 1.0
C      1  0.4912620000000  0.4993430000000  0.5514680000000 1.0
C      1  0.4001170000000  0.5578050000000  0.5399390000000 1.0
C      1  0.4847270000000  0.5486890000000  0.5547550000000 1.0
C      1  0.4175200000000  0.4739070000000  0.5085820000000 1.0
C      1  0.5445110000000  0.5196140000000  0.4172070000000 1.0
C      1  0.4492400000000  0.4561400000000  0.4193330000000 1.0
C      1  0.4605420000000  0.5271220000000  0.5925700000000 1.0
C      1  0.4451900000000  0.5133020000000  0.5683830000000 1.0
C      1  0.5217530000000  0.3927170000000  0.4692960000000 1.0
C      1  0.5801470000000  0.5256200000000  0.4510650000000 1.0
C      1  0.5392700000000  0.4627040000000  0.4004250000000 1.0
C      1  0.5063000000000  0.3981470000000  0.4959610000000 1.0
C      1  0.5939110000000  0.5461340000000  0.4679170000000 1.0
C      1  0.5826710000000  0.4383480000000  0.5460270000000 1.0
C      1  0.5390200000000  0.4709140000000  0.6004500000000 1.0
C      1  0.5393710000000  0.5738410000000  0.5321510000000 1.0
C      1  0.5292790000000  0.5583180000000  0.5555820000000 1.0
C      1  0.4297090000000  0.5957400000000  0.5034070000000 1.0
C      1  0.5526170000000  0.5200860000000  0.4666750000000 1.0
C      1  0.5328460000000  0.4508980000000  0.4560330000000 1.0
C      1  0.5897580000000  0.5169140000000  0.4089080000000 1.0
C      1  0.4195350000000  0.4454820000000  0.4940810000000 1.0
C      1  0.4333600000000  0.5022890000000  0.4834560000000 1.0
C      1  0.4447440000000  0.4845730000000  0.5208140000000 1.0
C      1  0.5314250000000  0.4188580000000  0.5470850000000 1.0
C      1  0.5514890000000  0.4695810000000  0.5476400000000 1.0
C      1  0.4687010000000  0.4801550000000  0.5921240000000 1.0
C      1  0.5759540000000  0.5707340000000  0.4620110000000 1.0
C      1  0.4574870000000  0.5481260000000  0.4597410000000 1.0
C      1  0.3912560000000  0.5614410000000  0.5118250000000 1.0
C      1  0.5493060000000  0.5639080000000  0.4469130000000 1.0
C      1  0.5907860000000  0.4853540000000  0.5730510000000 1.0
C      1  0.4934540000000  0.4563900000000  0.3956170000000 1.0
C      1  0.4394540000000  0.5813910000000  0.4595430000000 1.0
C      1  0.4181120000000  0.5024520000000  0.4271720000000 1.0
C      1  0.4936480000000  0.4518710000000  0.4586260000000 1.0
C      1  0.4742080000000  0.5541270000000  0.5106680000000 1.0
C      1  0.5697120000000  0.5335100000000  0.5824810000000 1.0
C      1  0.5952790000000  0.5309250000000  0.4935710000000 1.0
C      1  0.4989390000000  0.5916820000000  0.5271380000000 1.0
C      1  0.4650630000000  0.4444880000000  0.5334820000000 1.0
C      1  0.5315000000000  0.5609500000000  0.5033270000000 1.0
C      1  0.4954100000000  0.4171510000000  0.4317610000000 1.0
C      1  0.5295140000000  0.4729900000000  0.5709300000000 1.0
C      1  0.5830920000000  0.5431450000000  0.5583470000000 1.0
C      1  0.4391580000000  0.4165660000000  0.5380090000000 1.0
C      1  0.5616300000000  0.4953420000000  0.5358180000000 1.0
C      1  0.4721870000000  0.4861320000000  0.5098420000000 1.0
C      1  0.5374350000000  0.4608010000000  0.5213490000000 1.0
C      1  0.4979770000000  0.5259830000000  0.4297900000000 1.0
C      1  0.4135510000000  0.5796810000000  0.5514060000000 1.0
C      1  0.5441760000000  0.5975650000000  0.4836840000000 1.0
C      1  0.4923460000000  0.4452590000000  0.4873430000000 1.0
C      1  0.5269830000000  0.5651580000000  0.5931410000000 1.0
C      1  0.4821710000000  0.5078890000000  0.4926550000000 1.0
C      1  0.5197560000000  0.4100410000000  0.4459320000000 1.0
C      1  0.5328500000000  0.5183610000000  0.6105430000000 1.0
C      1  0.5173040000000  0.5277210000000  0.4055350000000 1.0
C      1  0.5211990000000  0.3916470000000  0.5416820000000 1.0
C      1  0.5533440000000  0.4961550000000  0.6070600000000 1.0
C      1  0.5941140000000  0.5002180000000  0.4335450000000 1.0
C      1  0.4729490000000  0.5375070000000  0.4124410000000 1.0
C      1  0.4656860000000  0.4432550000000  0.4994470000000 1.0
C      1  0.4157360000000  0.5318220000000  0.5336480000000 1.0
C      1  0.5384950000000  0.4321530000000  0.4828400000000 1.0
C      1  0.5838960000000  0.5042630000000  0.4938690000000 1.0
C      1  0.6052060000000  0.4445340000000  0.5310570000000 1.0
C      1  0.6029960000000  0.5263250000000  0.5451530000000 1.0
C      1  0.3971600000000  0.4983220000000  0.4704970000000 1.0
C      1  0.5157510000000  0.4256170000000  0.5730940000000 1.0
C      1  0.6101760000000  0.5393130000000  0.5185530000000 1.0
END
