TITL C-3578196-9646-222 -8.48671674934662e-07 125000 -549.676686654113 0 0 92 (C1) n - 1
REM
REM in /home/bkarasulu/work/CARBON/AIRSS/Generating-Clusters/EDIP-Nigel-Params/with-SteepDescent/Higher-Symm/SD-CG/HFTN-CG
REM
REM
REM
REM
REM
REM ./C.cell (12c818d87b63d06a65506943cc24bca4)
REM
REM compiler GCC version 9.2.1 20190827 (Red Hat 9.2.1-1)
REM options -cpp -mtune=generic -march=x86-64 -g -O0 -fpre-include=/usr/include/finclude/math-vector-fortran.h
REM seed 400659170 1012815723 -1109275883 -1588883933 401881323 -998803664 495398213 -1436552760 -1625460603 -2083141910 474790372 1072788401 1953484269 -1689933199 497887766 350985082 1146381358 -1021870887 701006776 -861862603 801198011 1127296195 -851021126 -2138643300 2045359197 -434220588 1593806018 -83758290 1510487904 318144928 1269147231 1056015761 628176834
REM
CELL 1.54180   50.00000   50.00000   50.00000   90.00000   90.00000   90.00000
LATT -1
SFAC C  
C      1  0.4537520000000  0.5277110000000  0.4123090000000 1.0
C      1  0.5134180000000  0.5515000000000  0.4134290000000 1.0
C      1  0.5545330000000  0.5032810000000  0.4137920000000 1.0
C      1  0.5194020000000  0.4494040000000  0.4128130000000 1.0
C      1  0.4573840000000  0.4644320000000  0.4125360000000 1.0
C      1  0.5654700000000  0.5183110000000  0.4585150000000 1.0
C      1  0.5374490000000  0.4420940000000  0.4570270000000 1.0
C      1  0.4563480000000  0.4448780000000  0.4566580000000 1.0
C      1  0.4344560000000  0.5226530000000  0.4563670000000 1.0
C      1  0.5017430000000  0.5672910000000  0.4576240000000 1.0
C      1  0.4255370000000  0.5593560000000  0.5229290000000 1.0
C      1  0.5295080000000  0.5875540000000  0.5269600000000 1.0
C      1  0.5939230000000  0.4952590000000  0.5270010000000 1.0
C      1  0.5279970000000  0.4073380000000  0.5272260000000 1.0
C      1  0.4225460000000  0.4476720000000  0.5283670000000 1.0
C      1  0.4690770000000  0.5105260000000  0.5691100000000 1.0
C      1  0.4963110000000  0.5277720000000  0.5711000000000 1.0
C      1  0.5254050000000  0.5108860000000  0.5684040000000 1.0
C      1  0.5250540000000  0.4800970000000  0.5707450000000 1.0
C      1  0.4962800000000  0.4708640000000  0.5699870000000 1.0
C      1  0.5129480000000  0.4678790000000  0.5191480000000 1.0
C      1  0.4753940000000  0.4742880000000  0.5179580000000 1.0
C      1  0.4669170000000  0.5122130000000  0.5185150000000 1.0
C      1  0.4938330000000  0.5326240000000  0.5202870000000 1.0
C      1  0.5385830000000  0.5064480000000  0.5220560000000 1.0
C      1  0.5701670000000  0.4974640000000  0.5574130000000 1.0
C      1  0.5232120000000  0.4350940000000  0.5539040000000 1.0
C      1  0.4464250000000  0.4576390000000  0.5570980000000 1.0
C      1  0.4427690000000  0.5448680000000  0.5543240000000 1.0
C      1  0.5169970000000  0.5633620000000  0.5544120000000 1.0
C      1  0.4693950000000  0.4456040000000  0.4306620000000 1.0
C      1  0.4390350000000  0.5107260000000  0.4303070000000 1.0
C      1  0.4922110000000  0.5595030000000  0.4311890000000 1.0
C      1  0.5559850000000  0.5257140000000  0.4318730000000 1.0
C      1  0.5409160000000  0.4549080000000  0.4311260000000 1.0
C      1  0.5598520000000  0.5437350000000  0.5408110000000 1.0
C      1  0.5668930000000  0.4507040000000  0.5373350000000 1.0
C      1  0.4781230000000  0.4257630000000  0.5372520000000 1.0
C      1  0.4255800000000  0.5003650000000  0.5406770000000 1.0
C      1  0.4730810000000  0.5794580000000  0.5371910000000 1.0
C      1  0.4396000000000  0.4682430000000  0.4553760000000 1.0
C      1  0.4516020000000  0.5455680000000  0.4549550000000 1.0
C      1  0.5290620000000  0.5582800000000  0.4566290000000 1.0
C      1  0.5642110000000  0.4898330000000  0.4567170000000 1.0
C      1  0.5101830000000  0.4333600000000  0.4552020000000 1.0
C      1  0.5316530000000  0.4618750000000  0.5456860000000 1.0
C      1  0.4732580000000  0.4540880000000  0.5460690000000 1.0
C      1  0.4500690000000  0.5175240000000  0.5470260000000 1.0
C      1  0.4931080000000  0.5484450000000  0.5481910000000 1.0
C      1  0.5489040000000  0.5158670000000  0.5487590000000 1.0
C      1  0.4811660000000  0.5887260000000  0.5111200000000 1.0
C      1  0.5769760000000  0.5427260000000  0.5157190000000 1.0
C      1  0.5658920000000  0.4373830000000  0.5115190000000 1.0
C      1  0.4621870000000  0.4177260000000  0.5133280000000 1.0
C      1  0.4117470000000  0.5096020000000  0.5155390000000 1.0
C      1  0.4974520000000  0.4425650000000  0.4798410000000 1.0
C      1  0.4451000000000  0.4829600000000  0.4802620000000 1.0
C      1  0.4670960000000  0.5453510000000  0.4797070000000 1.0
C      1  0.5329940000000  0.5432660000000  0.4817920000000 1.0
C      1  0.5517580000000  0.4807550000000  0.4813120000000 1.0
C      1  0.4878220000000  0.5209250000000  0.4780730000000 1.0
C      1  0.5165210000000  0.5165070000000  0.4796580000000 1.0
C      1  0.5212210000000  0.4878090000000  0.4805420000000 1.0
C      1  0.4955520000000  0.4742640000000  0.4789450000000 1.0
C      1  0.4748850000000  0.4947850000000  0.4788320000000 1.0
C      1  0.4531090000000  0.5596020000000  0.5325940000000 1.0
C      1  0.5366040000000  0.5603610000000  0.5344820000000 1.0
C      1  0.5709970000000  0.4791650000000  0.5351540000000 1.0
C      1  0.5067240000000  0.4261110000000  0.5324270000000 1.0
C      1  0.4346210000000  0.4730710000000  0.5358170000000 1.0
C      1  0.4811080000000  0.4213540000000  0.4924190000000 1.0
C      1  0.4206400000000  0.4914980000000  0.4950690000000 1.0
C      1  0.4672180000000  0.5724620000000  0.4922650000000 1.0
C      1  0.5587230000000  0.5510770000000  0.4950150000000 1.0
C      1  0.5669110000000  0.4580080000000  0.4922480000000 1.0
C      1  0.4449460000000  0.4823380000000  0.4308890000000 1.0
C      1  0.4670530000000  0.5448450000000  0.4308210000000 1.0
C      1  0.5335160000000  0.5440060000000  0.4322080000000 1.0
C      1  0.5517860000000  0.4817910000000  0.4322550000000 1.0
C      1  0.4983800000000  0.4430850000000  0.4309840000000 1.0
C      1  0.4382970000000  0.4361530000000  0.5069070000000 1.0
C      1  0.4204900000000  0.5371850000000  0.5050640000000 1.0
C      1  0.5104830000000  0.5859860000000  0.5051250000000 1.0
C      1  0.5862070000000  0.5145030000000  0.5068540000000 1.0
C      1  0.5415170000000  0.4207190000000  0.5053330000000 1.0
C      1  0.5071920000000  0.5568590000000  0.4950070000000 1.0
C      1  0.5569410000000  0.5086830000000  0.4965060000000 1.0
C      1  0.5259630000000  0.4462720000000  0.4945850000000 1.0
C      1  0.4578300000000  0.4571760000000  0.4942710000000 1.0
C      1  0.4469500000000  0.5251730000000  0.4941320000000 1.0
C      1  0.5087220000000  0.5017860000000  0.5203690000000 1.0
C      1  0.4878090000000  0.4944110000000  0.5530990000000 1.0
END
