TITL C-3578194-7807-561 -1.38340517153408e-06 125000 -1056.80830903698 0 0 172 (S4) n - 1
REM
REM in /home/bkarasulu/work/CARBON/AIRSS/Generating-Clusters/EDIP-Nigel-Params/with-SteepDescent/Higher-Symm/SD-CG/HFTN-CG
REM
REM
REM
REM
REM
REM ./C.cell (12c818d87b63d06a65506943cc24bca4)
REM
REM compiler GCC version 9.2.1 20190827 (Red Hat 9.2.1-1)
REM options -cpp -mtune=generic -march=x86-64 -g -O0 -fpre-include=/usr/include/finclude/math-vector-fortran.h
REM seed 1690754525 -373776305 -219239801 -2079009636 -2058853929 -535168351 1069249627 -1178891362 1009661503 697745049 -1882277206 -249357898 -542170529 1094171084 -1100639324 -1550369952 1509032263 340363676 25591839 1559787978 -252737419 -1881749722 1671134748 19521544 1696467480 1182497069 -2032286882 -149099980 -157981124 1992271882 -1039664643 728619447 -1716174678
REM
CELL 1.54180   50.00000   50.00000   50.00000   90.00000   90.00000   90.00000
LATT -1
SFAC C  
C      1  0.4192860000000  0.4450990000000  0.5477240000000 1.0
C      1  0.4522670000000  0.5549110000000  0.4192980000000 1.0
C      1  0.5807120000000  0.4451140000000  0.4522550000000 1.0
C      1  0.5477350000000  0.5548770000000  0.5807230000000 1.0
C      1  0.5621120000000  0.5751580000000  0.5592880000000 1.0
C      1  0.4407250000000  0.4248180000000  0.5620950000000 1.0
C      1  0.4378920000000  0.5751840000000  0.4407410000000 1.0
C      1  0.5592720000000  0.4248400000000  0.4378750000000 1.0
C      1  0.5900550000000  0.5737250000000  0.4904120000000 1.0
C      1  0.5096010000000  0.4262570000000  0.5900390000000 1.0
C      1  0.4099490000000  0.5737250000000  0.5096170000000 1.0
C      1  0.4903960000000  0.4262930000000  0.4099330000000 1.0
C      1  0.5169330000000  0.5623020000000  0.5793590000000 1.0
C      1  0.4206520000000  0.4376800000000  0.5169190000000 1.0
C      1  0.4830700000000  0.5623340000000  0.4206650000000 1.0
C      1  0.5793460000000  0.4376840000000  0.4830560000000 1.0
C      1  0.4772930000000  0.5008930000000  0.5569480000000 1.0
C      1  0.4430520000000  0.4991020000000  0.4772920000000 1.0
C      1  0.5227080000000  0.5009140000000  0.4430520000000 1.0
C      1  0.5569480000000  0.4990910000000  0.5227070000000 1.0
C      1  0.4779250000000  0.4614310000000  0.4746110000000 1.0
C      1  0.5253820000000  0.5385780000000  0.4779340000000 1.0
C      1  0.5220730000000  0.4614200000000  0.5253740000000 1.0
C      1  0.4746190000000  0.5385710000000  0.5220810000000 1.0
C      1  0.5510960000000  0.5355430000000  0.4169300000000 1.0
C      1  0.5830760000000  0.4644600000000  0.5510890000000 1.0
C      1  0.4489050000000  0.5355130000000  0.5830840000000 1.0
C      1  0.4169230000000  0.4644830000000  0.4488970000000 1.0
C      1  0.5207580000000  0.5150160000000  0.5921040000000 1.0
C      1  0.4078980000000  0.4849640000000  0.5207550000000 1.0
C      1  0.4792430000000  0.5150520000000  0.4079020000000 1.0
C      1  0.5921010000000  0.4849680000000  0.4792400000000 1.0
C      1  0.5269480000000  0.4851420000000  0.5440150000000 1.0
C      1  0.4559830000000  0.5148440000000  0.5269510000000 1.0
C      1  0.4730510000000  0.4851600000000  0.4559800000000 1.0
C      1  0.5440180000000  0.5148530000000  0.4730540000000 1.0
C      1  0.3957040000000  0.5303650000000  0.4891650000000 1.0
C      1  0.5108400000000  0.4696600000000  0.3956970000000 1.0
C      1  0.6042980000000  0.5303560000000  0.5108470000000 1.0
C      1  0.4891590000000  0.4696200000000  0.6042910000000 1.0
C      1  0.4735050000000  0.4521860000000  0.5221350000000 1.0
C      1  0.4778570000000  0.5478160000000  0.4735150000000 1.0
C      1  0.5264930000000  0.4521940000000  0.4778470000000 1.0
C      1  0.5221450000000  0.5478050000000  0.5265030000000 1.0
C      1  0.4530610000000  0.5287290000000  0.3993120000000 1.0
C      1  0.6006930000000  0.4712990000000  0.4530550000000 1.0
C      1  0.5469400000000  0.5286870000000  0.6006990000000 1.0
C      1  0.3993050000000  0.4712850000000  0.5469340000000 1.0
C      1  0.4404590000000  0.4606770000000  0.4304520000000 1.0
C      1  0.5695410000000  0.5393480000000  0.4404670000000 1.0
C      1  0.5595390000000  0.4606470000000  0.5695320000000 1.0
C      1  0.4304610000000  0.5393280000000  0.5595480000000 1.0
C      1  0.6027440000000  0.5116120000000  0.5342910000000 1.0
C      1  0.4657110000000  0.4883600000000  0.6027410000000 1.0
C      1  0.3972570000000  0.5116300000000  0.4657140000000 1.0
C      1  0.5342880000000  0.4883980000000  0.3972540000000 1.0
C      1  0.5578020000000  0.4759510000000  0.4048300000000 1.0
C      1  0.5951660000000  0.5240530000000  0.5578070000000 1.0
C      1  0.4421970000000  0.4759160000000  0.5951610000000 1.0
C      1  0.4048350000000  0.5240800000000  0.4422020000000 1.0
C      1  0.5442460000000  0.4920380000000  0.4947880000000 1.0
C      1  0.5052110000000  0.5079540000000  0.5442480000000 1.0
C      1  0.4557530000000  0.4920380000000  0.5052090000000 1.0
C      1  0.4947890000000  0.5079710000000  0.4557550000000 1.0
C      1  0.4288600000000  0.5649640000000  0.5310480000000 1.0
C      1  0.4689630000000  0.4350460000000  0.4288460000000 1.0
C      1  0.5711430000000  0.5649730000000  0.4689770000000 1.0
C      1  0.5310340000000  0.4350170000000  0.5711290000000 1.0
C      1  0.5689340000000  0.5151270000000  0.5623080000000 1.0
C      1  0.4376940000000  0.4848470000000  0.5689310000000 1.0
C      1  0.4310670000000  0.5151550000000  0.4376970000000 1.0
C      1  0.5623050000000  0.4848710000000  0.4310640000000 1.0
C      1  0.5351100000000  0.5552110000000  0.5019190000000 1.0
C      1  0.4980900000000  0.4447810000000  0.5350980000000 1.0
C      1  0.4648930000000  0.5552130000000  0.4981020000000 1.0
C      1  0.5019070000000  0.4447950000000  0.4648810000000 1.0
C      1  0.5235890000000  0.4844940000000  0.5940630000000 1.0
C      1  0.4059340000000  0.5154850000000  0.5235920000000 1.0
C      1  0.4764100000000  0.4845310000000  0.4059310000000 1.0
C      1  0.5940660000000  0.5154900000000  0.4764140000000 1.0
C      1  0.4080620000000  0.4409640000000  0.4642280000000 1.0
C      1  0.5357620000000  0.5590620000000  0.4080750000000 1.0
C      1  0.5919360000000  0.4409470000000  0.5357500000000 1.0
C      1  0.4642400000000  0.5590270000000  0.5919480000000 1.0
C      1  0.5600160000000  0.4145680000000  0.4850880000000 1.0
C      1  0.5148970000000  0.5854220000000  0.5600350000000 1.0
C      1  0.4399800000000  0.4145650000000  0.5148790000000 1.0
C      1  0.4851060000000  0.5854460000000  0.4399980000000 1.0
C      1  0.4141390000000  0.4867860000000  0.4709570000000 1.0
C      1  0.5290400000000  0.5132380000000  0.4141420000000 1.0
C      1  0.5858600000000  0.4867710000000  0.5290370000000 1.0
C      1  0.4709600000000  0.5132050000000  0.5858630000000 1.0
C      1  0.5640970000000  0.4747880000000  0.4808820000000 1.0
C      1  0.5191140000000  0.5252020000000  0.5641020000000 1.0
C      1  0.4359020000000  0.4747830000000  0.5191090000000 1.0
C      1  0.4808870000000  0.5252280000000  0.4359070000000 1.0
C      1  0.5714120000000  0.5631240000000  0.5315540000000 1.0
C      1  0.4684570000000  0.4368550000000  0.5713980000000 1.0
C      1  0.4285910000000  0.5631390000000  0.4684700000000 1.0
C      1  0.5315410000000  0.4368820000000  0.4285770000000 1.0
C      1  0.4084410000000  0.5206230000000  0.5530410000000 1.0
C      1  0.4469630000000  0.4793880000000  0.4084370000000 1.0
C      1  0.5915600000000  0.5206400000000  0.4469670000000 1.0
C      1  0.5530370000000  0.4793500000000  0.5915550000000 1.0
C      1  0.5186790000000  0.6076560000000  0.5015710000000 1.0
C      1  0.4984470000000  0.3923400000000  0.5186550000000 1.0
C      1  0.4813260000000  0.6076570000000  0.4984700000000 1.0
C      1  0.5015480000000  0.3923470000000  0.4813030000000 1.0
C      1  0.5415330000000  0.5956890000000  0.5510560000000 1.0
C      1  0.4489610000000  0.4042940000000  0.5415120000000 1.0
C      1  0.4584710000000  0.5957100000000  0.4489810000000 1.0
C      1  0.5510350000000  0.4043080000000  0.4584510000000 1.0
C      1  0.5152610000000  0.4406640000000  0.4029750000000 1.0
C      1  0.5970150000000  0.5593500000000  0.5152740000000 1.0
C      1  0.4847360000000  0.4406270000000  0.5970020000000 1.0
C      1  0.4029880000000  0.5593600000000  0.4847490000000 1.0
C      1  0.5225050000000  0.3966930000000  0.5332010000000 1.0
C      1  0.4667810000000  0.6032970000000  0.5225270000000 1.0
C      1  0.4774910000000  0.3967070000000  0.4667590000000 1.0
C      1  0.5332240000000  0.6033040000000  0.4775130000000 1.0
C      1  0.4314630000000  0.5297060000000  0.5150500000000 1.0
C      1  0.4849550000000  0.4703060000000  0.4314560000000 1.0
C      1  0.5685380000000  0.5297090000000  0.4849620000000 1.0
C      1  0.5150430000000  0.4702780000000  0.5685320000000 1.0
C      1  0.5163720000000  0.4720970000000  0.4339210000000 1.0
C      1  0.5660740000000  0.5279110000000  0.5163780000000 1.0
C      1  0.4836270000000  0.4720720000000  0.5660680000000 1.0
C      1  0.4339270000000  0.5279200000000  0.4836330000000 1.0
C      1  0.5049260000000  0.5697230000000  0.5375960000000 1.0
C      1  0.4624160000000  0.4302690000000  0.5049110000000 1.0
C      1  0.4950770000000  0.5697380000000  0.4624310000000 1.0
C      1  0.5375810000000  0.4302690000000  0.4950620000000 1.0
C      1  0.5054960000000  0.5254060000000  0.3989660000000 1.0
C      1  0.6010380000000  0.4746100000000  0.5054900000000 1.0
C      1  0.4945060000000  0.5253670000000  0.6010440000000 1.0
C      1  0.3989600000000  0.4746160000000  0.4945000000000 1.0
C      1  0.5902740000000  0.4930630000000  0.4346940000000 1.0
C      1  0.5653040000000  0.5069290000000  0.5902760000000 1.0
C      1  0.4097250000000  0.4930410000000  0.5653030000000 1.0
C      1  0.4346960000000  0.5069670000000  0.4097270000000 1.0
C      1  0.5373210000000  0.5755600000000  0.4425600000000 1.0
C      1  0.5574530000000  0.4244420000000  0.5373050000000 1.0
C      1  0.4626820000000  0.5755390000000  0.5574690000000 1.0
C      1  0.4425440000000  0.4244590000000  0.4626660000000 1.0
C      1  0.4528840000000  0.5347970000000  0.4456360000000 1.0
C      1  0.5543700000000  0.4652230000000  0.4528770000000 1.0
C      1  0.5471170000000  0.5347740000000  0.5543780000000 1.0
C      1  0.4456280000000  0.4652070000000  0.5471100000000 1.0
C      1  0.4808770000000  0.5563650000000  0.5456130000000 1.0
C      1  0.4543960000000  0.4436310000000  0.4808650000000 1.0
C      1  0.5191250000000  0.5563820000000  0.4544090000000 1.0
C      1  0.5456010000000  0.4436220000000  0.5191130000000 1.0
C      1  0.5418330000000  0.5999950000000  0.5205340000000 1.0
C      1  0.4794830000000  0.3999920000000  0.5418120000000 1.0
C      1  0.4581710000000  0.6000050000000  0.4795050000000 1.0
C      1  0.5205120000000  0.4000070000000  0.4581490000000 1.0
C      1  0.4435940000000  0.5760060000000  0.4916780000000 1.0
C      1  0.5083360000000  0.4240080000000  0.4435780000000 1.0
C      1  0.5564090000000  0.5760000000000  0.5083520000000 1.0
C      1  0.4916610000000  0.4239860000000  0.5563930000000 1.0
C      1  0.4475650000000  0.5886140000000  0.5376100000000 1.0
C      1  0.4624050000000  0.4113910000000  0.4475460000000 1.0
C      1  0.5524390000000  0.5886270000000  0.4624240000000 1.0
C      1  0.5375910000000  0.4113690000000  0.5524200000000 1.0
C      1  0.5191740000000  0.4741890000000  0.4975630000000 1.0
C      1  0.5024330000000  0.5258070000000  0.5191790000000 1.0
C      1  0.4808250000000  0.4741890000000  0.5024270000000 1.0
C      1  0.4975680000000  0.5258150000000  0.4808310000000 1.0
C      1  0.4018250000000  0.4457780000000  0.4927620000000 1.0
C      1  0.5072290000000  0.5542450000000  0.4018370000000 1.0
C      1  0.5981720000000  0.4457710000000  0.5072170000000 1.0
C      1  0.4927730000000  0.5542070000000  0.5981840000000 1.0
END
