TITL C-3578198-8939-589 -9.04514778854157e-07 125000 -648.810280926768 0 0 101 (C1) n - 1
REM
REM in /home/bkarasulu/work/CARBON/AIRSS/Generating-Clusters/EDIP-Nigel-Params/with-SteepDescent/Higher-Symm/SD-CG/HFTN-CG
REM
REM
REM
REM
REM
REM ./C.cell (12c818d87b63d06a65506943cc24bca4)
REM
REM compiler GCC version 9.2.1 20190827 (Red Hat 9.2.1-1)
REM options -cpp -mtune=generic -march=x86-64 -g -O0 -fpre-include=/usr/include/finclude/math-vector-fortran.h
REM seed 1422413349 726736568 791494718 1663660660 1290623519 177478935 -639736198 1769874718 863556424 2019513986 -2077667324 1059025220 -2002729119 1608619008 784067239 -2082236136 -638429368 1031675871 571975337 -704135504 -947970679 1081805120 561792060 1671871180 321715458 1237185008 -1959804793 -2055334463 -1032524331 -938225449 1584271108 -201791027 -629374345
REM
CELL 1.54180   50.00000   50.00000   50.00000   90.00000   90.00000   90.00000
LATT -1
SFAC C  
C      1  0.4295670000000  0.5344680000000  0.5424100000000 1.0
C      1  0.5606740000000  0.5410420000000  0.5473300000000 1.0
C      1  0.5061080000000  0.4245790000000  0.5482110000000 1.0
C      1  0.4290350000000  0.4681040000000  0.4567120000000 1.0
C      1  0.5580940000000  0.4581610000000  0.4533300000000 1.0
C      1  0.5060020000000  0.5743890000000  0.4548130000000 1.0
C      1  0.4920670000000  0.4607620000000  0.5147860000000 1.0
C      1  0.4780830000000  0.5306780000000  0.5269860000000 1.0
C      1  0.5417350000000  0.5040530000000  0.5106230000000 1.0
C      1  0.4820570000000  0.5357880000000  0.4909200000000 1.0
C      1  0.4781280000000  0.4668510000000  0.4887940000000 1.0
C      1  0.5401420000000  0.4967930000000  0.4814580000000 1.0
C      1  0.4722380000000  0.4455080000000  0.4398120000000 1.0
C      1  0.4656160000000  0.5459640000000  0.4373970000000 1.0
C      1  0.5569850000000  0.5074000000000  0.4386680000000 1.0
C      1  0.4656380000000  0.5614300000000  0.5618550000000 1.0
C      1  0.4665700000000  0.4523970000000  0.5620870000000 1.0
C      1  0.5618910000000  0.4900240000000  0.5606820000000 1.0
C      1  0.5688410000000  0.5433120000000  0.4712100000000 1.0
C      1  0.5004550000000  0.4189960000000  0.4695950000000 1.0
C      1  0.4271060000000  0.5386990000000  0.4678400000000 1.0
C      1  0.5649360000000  0.4571040000000  0.5298330000000 1.0
C      1  0.5013160000000  0.5791500000000  0.5306850000000 1.0
C      1  0.4316540000000  0.4651940000000  0.5304140000000 1.0
C      1  0.5513870000000  0.5545930000000  0.4506230000000 1.0
C      1  0.5171370000000  0.4290990000000  0.4473740000000 1.0
C      1  0.4257370000000  0.5177200000000  0.4478020000000 1.0
C      1  0.5543220000000  0.4423570000000  0.5538940000000 1.0
C      1  0.5160850000000  0.5623810000000  0.5496520000000 1.0
C      1  0.4309010000000  0.4847030000000  0.5513350000000 1.0
C      1  0.4547970000000  0.5164110000000  0.4410350000000 1.0
C      1  0.5366530000000  0.5301900000000  0.4420910000000 1.0
C      1  0.5019430000000  0.4539260000000  0.4401290000000 1.0
C      1  0.4580280000000  0.4840450000000  0.5645270000000 1.0
C      1  0.5462800000000  0.4652620000000  0.5707260000000 1.0
C      1  0.4858290000000  0.5558440000000  0.5814150000000 1.0
C      1  0.5792530000000  0.4940500000000  0.4851270000000 1.0
C      1  0.4591080000000  0.4425240000000  0.4872360000000 1.0
C      1  0.4687920000000  0.5623970000000  0.4849890000000 1.0
C      1  0.5716800000000  0.5056530000000  0.5140630000000 1.0
C      1  0.4548440000000  0.5648570000000  0.5115290000000 1.0
C      1  0.4636200000000  0.4283960000000  0.5147460000000 1.0
C      1  0.5132130000000  0.4204150000000  0.4965710000000 1.0
C      1  0.4240440000000  0.5271530000000  0.4945310000000 1.0
C      1  0.5634930000000  0.5536770000000  0.4985210000000 1.0
C      1  0.5134280000000  0.5780030000000  0.5034870000000 1.0
C      1  0.4214300000000  0.4731090000000  0.5040820000000 1.0
C      1  0.5632680000000  0.4449770000000  0.5018600000000 1.0
C      1  0.4322300000000  0.5453860000000  0.5157110000000 1.0
C      1  0.5732940000000  0.5355980000000  0.5207460000000 1.0
C      1  0.4937850000000  0.4223710000000  0.5204600000000 1.0
C      1  0.4311520000000  0.4551020000000  0.4826430000000 1.0
C      1  0.5698090000000  0.4645690000000  0.4797560000000 1.0
C      1  0.4934940000000  0.5798980000000  0.4808340000000 1.0
C      1  0.4748660000000  0.5024820000000  0.5191660000000 1.0
C      1  0.5245590000000  0.5288200000000  0.5141760000000 1.0
C      1  0.5206110000000  0.4624510000000  0.5088470000000 1.0
C      1  0.4657570000000  0.4934840000000  0.4929590000000 1.0
C      1  0.5259680000000  0.4704610000000  0.4812260000000 1.0
C      1  0.5120280000000  0.5362310000000  0.4886790000000 1.0
C      1  0.5484110000000  0.5168040000000  0.5608590000000 1.0
C      1  0.4957190000000  0.4459710000000  0.5652780000000 1.0
C      1  0.4575620000000  0.5350320000000  0.5512790000000 1.0
C      1  0.5455170000000  0.4799470000000  0.4373320000000 1.0
C      1  0.4949520000000  0.5517450000000  0.4387060000000 1.0
C      1  0.4537900000000  0.4682110000000  0.4415160000000 1.0
C      1  0.4503970000000  0.5572880000000  0.4611110000000 1.0
C      1  0.5746070000000  0.5144840000000  0.4628520000000 1.0
C      1  0.4715600000000  0.4274810000000  0.4640300000000 1.0
C      1  0.4516240000000  0.4443380000000  0.5368100000000 1.0
C      1  0.5769930000000  0.4847880000000  0.5356550000000 1.0
C      1  0.4719100000000  0.5739870000000  0.5348220000000 1.0
C      1  0.5444540000000  0.4334740000000  0.4521520000000 1.0
C      1  0.4153600000000  0.4928910000000  0.4565840000000 1.0
C      1  0.5342570000000  0.5761710000000  0.4561570000000 1.0
C      1  0.5443270000000  0.5643570000000  0.5485730000000 1.0
C      1  0.4184360000000  0.5090380000000  0.5452010000000 1.0
C      1  0.5339340000000  0.4236230000000  0.5500020000000 1.0
C      1  0.5048910000000  0.4912540000000  0.4050960000000 1.0
C      1  0.4776770000000  0.4872270000000  0.4050880000000 1.0
C      1  0.5112960000000  0.5180190000000  0.4037520000000 1.0
C      1  0.5082970000000  0.5125770000000  0.5881170000000 1.0
C      1  0.4835300000000  0.5278900000000  0.5888560000000 1.0
C      1  0.5071120000000  0.4852530000000  0.5954850000000 1.0
C      1  0.5155350000000  0.4691390000000  0.5726340000000 1.0
C      1  0.4633300000000  0.5142520000000  0.5720940000000 1.0
C      1  0.5183980000000  0.5145900000000  0.5599670000000 1.0
C      1  0.5157900000000  0.5380380000000  0.4221860000000 1.0
C      1  0.4577470000000  0.4908290000000  0.4239140000000 1.0
C      1  0.5197750000000  0.4729320000000  0.4227820000000 1.0
C      1  0.4729810000000  0.5124080000000  0.4712200000000 1.0
C      1  0.5215950000000  0.5172100000000  0.4673630000000 1.0
C      1  0.5003180000000  0.4719650000000  0.4665910000000 1.0
C      1  0.4850030000000  0.4818100000000  0.5366250000000 1.0
C      1  0.5340840000000  0.4803300000000  0.5274940000000 1.0
C      1  0.5079560000000  0.5348170000000  0.5387790000000 1.0
C      1  0.5418230000000  0.4257150000000  0.4979800000000 1.0
C      1  0.5423830000000  0.5737740000000  0.5011880000000 1.0
C      1  0.4128770000000  0.5006010000000  0.4987610000000 1.0
C      1  0.4978200000000  0.5010130000000  0.4597550000000 1.0
C      1  0.5128390000000  0.4873140000000  0.5486990000000 1.0
END
