TITL C-3577085-527-481 -2.03389902615094e-06 125000 -981.83402635475 0 0 156 (C1) n - 1
REM
REM in /home/bkarasulu/work/CARBON/AIRSS/Generating-Clusters/EDIP-Nigel-Params/with-SteepDescent/Higher-Symm/SD-CG/HFTN-CG
REM
REM
REM
REM
REM
REM ./C.cell (12c818d87b63d06a65506943cc24bca4)
REM
REM compiler GCC version 9.2.1 20190827 (Red Hat 9.2.1-1)
REM options -cpp -mtune=generic -march=x86-64 -g -O0 -fpre-include=/usr/include/finclude/math-vector-fortran.h
REM seed -1879651921 -1476538910 -1400353142 -265329907 1974747628 2022423754 -947202243 467962408 1917021253 -1037143736 -1142216694 -462697564 498073185 -95258645 -2010230872 -11692029 -1852725868 -1235169365 1975582064 259039477 452509411 35379677 1757776061 -2124930210 -969307680 -913472049 1717783077 -359452422 -1652130568 625230050 1008038564 1708871959 -138566977
REM
CELL 1.54180   50.00000   50.00000   50.00000   90.00000   90.00000   90.00000
LATT -1
SFAC C  
C      1  0.4949690000000  0.4174230000000  0.5648460000000 1.0
C      1  0.5629030000000  0.4198470000000  0.5035410000000 1.0
C      1  0.5034860000000  0.4220110000000  0.4377360000000 1.0
C      1  0.4364110000000  0.4204230000000  0.4965670000000 1.0
C      1  0.4963140000000  0.5799040000000  0.5627120000000 1.0
C      1  0.5635200000000  0.5818510000000  0.5045800000000 1.0
C      1  0.5048820000000  0.5797930000000  0.4366400000000 1.0
C      1  0.4380720000000  0.5753430000000  0.4968720000000 1.0
C      1  0.4830190000000  0.5134070000000  0.4263230000000 1.0
C      1  0.4216880000000  0.5123430000000  0.5263100000000 1.0
C      1  0.5223850000000  0.5156620000000  0.5732810000000 1.0
C      1  0.5722840000000  0.5155320000000  0.4806790000000 1.0
C      1  0.4784480000000  0.4828620000000  0.4245040000000 1.0
C      1  0.4273220000000  0.4827610000000  0.5188740000000 1.0
C      1  0.5191290000000  0.4846820000000  0.5696400000000 1.0
C      1  0.5752930000000  0.4842860000000  0.4772540000000 1.0
C      1  0.4299050000000  0.4831650000000  0.4629730000000 1.0
C      1  0.4601120000000  0.4843780000000  0.5733860000000 1.0
C      1  0.5704350000000  0.4847740000000  0.5312380000000 1.0
C      1  0.5371500000000  0.4815830000000  0.4282320000000 1.0
C      1  0.4304430000000  0.5161700000000  0.4648730000000 1.0
C      1  0.4634120000000  0.5177250000000  0.5734240000000 1.0
C      1  0.5688630000000  0.5178350000000  0.5358470000000 1.0
C      1  0.5410560000000  0.5145840000000  0.4255240000000 1.0
C      1  0.4010750000000  0.5242820000000  0.5071860000000 1.0
C      1  0.5013300000000  0.5259640000000  0.5928650000000 1.0
C      1  0.5927760000000  0.5269090000000  0.5000910000000 1.0
C      1  0.4978760000000  0.5245380000000  0.4021600000000 1.0
C      1  0.4086300000000  0.4701230000000  0.4985040000000 1.0
C      1  0.5037190000000  0.4720640000000  0.5935330000000 1.0
C      1  0.5949990000000  0.4721670000000  0.4969200000000 1.0
C      1  0.5007910000000  0.4703630000000  0.4075710000000 1.0
C      1  0.4792840000000  0.4706590000000  0.4537830000000 1.0
C      1  0.4544750000000  0.4662980000000  0.5252700000000 1.0
C      1  0.5220410000000  0.4698550000000  0.5396670000000 1.0
C      1  0.5477190000000  0.4703650000000  0.4797540000000 1.0
C      1  0.4782570000000  0.5348310000000  0.4579780000000 1.0
C      1  0.4476670000000  0.5300140000000  0.5249990000000 1.0
C      1  0.5195100000000  0.5306050000000  0.5454020000000 1.0
C      1  0.5458790000000  0.5354120000000  0.4721840000000 1.0
C      1  0.5997140000000  0.4494460000000  0.4469900000000 1.0
C      1  0.4464420000000  0.4490970000000  0.3996620000000 1.0
C      1  0.3988000000000  0.4526770000000  0.5518890000000 1.0
C      1  0.5514620000000  0.4525580000000  0.5961620000000 1.0
C      1  0.6012210000000  0.5472290000000  0.4508120000000 1.0
C      1  0.4499090000000  0.5461050000000  0.4003460000000 1.0
C      1  0.4002200000000  0.5500400000000  0.5551700000000 1.0
C      1  0.5521790000000  0.5493750000000  0.5996750000000 1.0
C      1  0.5029720000000  0.4864080000000  0.4660620000000 1.0
C      1  0.4613170000000  0.4855010000000  0.5008330000000 1.0
C      1  0.4969690000000  0.4873130000000  0.5404870000000 1.0
C      1  0.5275310000000  0.4907210000000  0.4966160000000 1.0
C      1  0.5012850000000  0.5146280000000  0.4537630000000 1.0
C      1  0.4665960000000  0.5160150000000  0.5033570000000 1.0
C      1  0.4941990000000  0.5170140000000  0.5321430000000 1.0
C      1  0.5378100000000  0.5187760000000  0.4979620000000 1.0
C      1  0.5293400000000  0.5636140000000  0.5921300000000 1.0
C      1  0.5948790000000  0.5645800000000  0.4716620000000 1.0
C      1  0.4711080000000  0.5630840000000  0.4066910000000 1.0
C      1  0.4081380000000  0.5635200000000  0.5319410000000 1.0
C      1  0.5306610000000  0.4339830000000  0.5932610000000 1.0
C      1  0.5929900000000  0.4340090000000  0.4693450000000 1.0
C      1  0.4695440000000  0.4355690000000  0.4077810000000 1.0
C      1  0.4058050000000  0.4358160000000  0.5307250000000 1.0
C      1  0.5425440000000  0.5271680000000  0.5257240000000 1.0
C      1  0.5277050000000  0.5263520000000  0.4491260000000 1.0
C      1  0.4571760000000  0.5264510000000  0.4772230000000 1.0
C      1  0.4697080000000  0.5268320000000  0.5457390000000 1.0
C      1  0.5426590000000  0.4741680000000  0.5183840000000 1.0
C      1  0.5279790000000  0.4741380000000  0.4561900000000 1.0
C      1  0.4564960000000  0.4754380000000  0.4733500000000 1.0
C      1  0.4720790000000  0.4743990000000  0.5481710000000 1.0
C      1  0.5440600000000  0.4217330000000  0.5466130000000 1.0
C      1  0.5466910000000  0.4224110000000  0.4554620000000 1.0
C      1  0.4554990000000  0.4229090000000  0.4535920000000 1.0
C      1  0.4518640000000  0.4208600000000  0.5455110000000 1.0
C      1  0.5438700000000  0.5781830000000  0.5470880000000 1.0
C      1  0.5477080000000  0.5763830000000  0.4558600000000 1.0
C      1  0.4553870000000  0.5773130000000  0.4527580000000 1.0
C      1  0.4533220000000  0.5766350000000  0.5449420000000 1.0
C      1  0.4374710000000  0.5620970000000  0.5243550000000 1.0
C      1  0.5223640000000  0.5652560000000  0.5629220000000 1.0
C      1  0.5658700000000  0.5684620000000  0.4778970000000 1.0
C      1  0.4777080000000  0.5667570000000  0.4356660000000 1.0
C      1  0.4350270000000  0.4325720000000  0.5239700000000 1.0
C      1  0.5230580000000  0.4258700000000  0.5665220000000 1.0
C      1  0.5651640000000  0.4299760000000  0.4763310000000 1.0
C      1  0.4767840000000  0.4354690000000  0.4370820000000 1.0
C      1  0.5206020000000  0.4856430000000  0.3936950000000 1.0
C      1  0.3954800000000  0.4866930000000  0.4796610000000 1.0
C      1  0.4774740000000  0.4834120000000  0.5981930000000 1.0
C      1  0.6067130000000  0.4847240000000  0.5190830000000 1.0
C      1  0.5247050000000  0.5134600000000  0.3998440000000 1.0
C      1  0.4030730000000  0.5143990000000  0.4796190000000 1.0
C      1  0.4817880000000  0.5104940000000  0.6065020000000 1.0
C      1  0.6033950000000  0.5122070000000  0.5220000000000 1.0
C      1  0.5825510000000  0.4307840000000  0.5216510000000 1.0
C      1  0.5214170000000  0.4323510000000  0.4174370000000 1.0
C      1  0.4167600000000  0.4315270000000  0.4783780000000 1.0
C      1  0.4768250000000  0.4289090000000  0.5845770000000 1.0
C      1  0.5838180000000  0.5724010000000  0.5232330000000 1.0
C      1  0.5234380000000  0.5688340000000  0.4167520000000 1.0
C      1  0.4177060000000  0.5651960000000  0.4788910000000 1.0
C      1  0.4785440000000  0.5711280000000  0.5841400000000 1.0
C      1  0.5853220000000  0.4710070000000  0.4369890000000 1.0
C      1  0.4376700000000  0.4706220000000  0.4148650000000 1.0
C      1  0.4152690000000  0.4732540000000  0.5603340000000 1.0
C      1  0.5603330000000  0.4740980000000  0.5810060000000 1.0
C      1  0.5858510000000  0.5267240000000  0.4402890000000 1.0
C      1  0.4417940000000  0.5252820000000  0.4166940000000 1.0
C      1  0.4150750000000  0.5291050000000  0.5659570000000 1.0
C      1  0.5625660000000  0.5288000000000  0.5842320000000 1.0
C      1  0.4502270000000  0.4348050000000  0.5723630000000 1.0
C      1  0.5704200000000  0.4367890000000  0.5477800000000 1.0
C      1  0.5489070000000  0.4349180000000  0.4278430000000 1.0
C      1  0.4279160000000  0.4352100000000  0.4513110000000 1.0
C      1  0.4513300000000  0.5657240000000  0.5734290000000 1.0
C      1  0.5716850000000  0.5662460000000  0.5496910000000 1.0
C      1  0.5504550000000  0.5636810000000  0.4284980000000 1.0
C      1  0.4285850000000  0.5625030000000  0.4512170000000 1.0
C      1  0.4275410000000  0.5334210000000  0.4407280000000 1.0
C      1  0.4407300000000  0.5367040000000  0.5780730000000 1.0
C      1  0.5741590000000  0.5367560000000  0.5588460000000 1.0
C      1  0.5632560000000  0.5350590000000  0.4240460000000 1.0
C      1  0.4255680000000  0.4638320000000  0.4403620000000 1.0
C      1  0.4383230000000  0.4641360000000  0.5753560000000 1.0
C      1  0.5715650000000  0.4663660000000  0.5554320000000 1.0
C      1  0.5602120000000  0.4632980000000  0.4242120000000 1.0
C      1  0.5184930000000  0.4179260000000  0.4618810000000 1.0
C      1  0.4609850000000  0.4178190000000  0.4818640000000 1.0
C      1  0.4801870000000  0.4151340000000  0.5402110000000 1.0
C      1  0.5385330000000  0.4162790000000  0.5185270000000 1.0
C      1  0.5194960000000  0.5824310000000  0.4612870000000 1.0
C      1  0.4617130000000  0.5809080000000  0.4812070000000 1.0
C      1  0.4812950000000  0.5817980000000  0.5383770000000 1.0
C      1  0.5386070000000  0.5833000000000  0.5187970000000 1.0
C      1  0.4797600000000  0.3972310000000  0.4900720000000 1.0
C      1  0.4892650000000  0.3963210000000  0.5198080000000 1.0
C      1  0.5191220000000  0.3964340000000  0.5100480000000 1.0
C      1  0.5094680000000  0.3973090000000  0.4805100000000 1.0
C      1  0.4800290000000  0.6020010000000  0.4895570000000 1.0
C      1  0.4893910000000  0.6022060000000  0.5191970000000 1.0
C      1  0.5191360000000  0.6030580000000  0.5100440000000 1.0
C      1  0.5101440000000  0.6027170000000  0.4801980000000 1.0
C      1  0.3967160000000  0.5529140000000  0.5075680000000 1.0
C      1  0.5047640000000  0.5526830000000  0.6029490000000 1.0
C      1  0.6030880000000  0.5537770000000  0.4973770000000 1.0
C      1  0.4964350000000  0.5530180000000  0.3967110000000 1.0
C      1  0.3949050000000  0.4456740000000  0.5059260000000 1.0
C      1  0.5057740000000  0.4446500000000  0.6028700000000 1.0
C      1  0.6035610000000  0.4449790000000  0.4936060000000 1.0
C      1  0.4936140000000  0.4452640000000  0.3952130000000 1.0
C      1  0.4074700000000  0.5014230000000  0.5605500000000 1.0
C      1  0.5549490000000  0.5013730000000  0.5887390000000 1.0
C      1  0.5911150000000  0.4985630000000  0.4449860000000 1.0
C      1  0.4461220000000  0.4976830000000  0.4090550000000 1.0
END
