TITL C-3578198-8939-226 -1.14993458275817e-06 125000 -1021.19816284725 0 0 167 (C1) n - 1
REM
REM in /home/bkarasulu/work/CARBON/AIRSS/Generating-Clusters/EDIP-Nigel-Params/with-SteepDescent/Higher-Symm/SD-CG/HFTN-CG
REM
REM
REM
REM
REM
REM ./C.cell (12c818d87b63d06a65506943cc24bca4)
REM
REM compiler GCC version 9.2.1 20190827 (Red Hat 9.2.1-1)
REM options -cpp -mtune=generic -march=x86-64 -g -O0 -fpre-include=/usr/include/finclude/math-vector-fortran.h
REM seed 2028943600 882870841 -195611937 -3255658 1908652204 163246993 344610482 957771403 1545527793 747602863 -122664068 1112682849 1070513318 1324104960 -1125508206 1128234066 1436031070 411152613 129006410 -156035074 1332269950 95496595 262716257 -925804744 -1575959372 1331549439 -1852887508 1823167723 -196901383 2059051076 -1508292792 -1977969757 -385587172
REM
CELL 1.54180   50.00000   50.00000   50.00000   90.00000   90.00000   90.00000
LATT -1
SFAC C  
C      1  0.4271040000000  0.5078290000000  0.4127950000000 1.0
C      1  0.5712560000000  0.4869030000000  0.4248710000000 1.0
C      1  0.5882590000000  0.5037670000000  0.5674910000000 1.0
C      1  0.4361560000000  0.4899720000000  0.5681850000000 1.0
C      1  0.5113010000000  0.4274200000000  0.4042840000000 1.0
C      1  0.4918550000000  0.5708570000000  0.4290000000000 1.0
C      1  0.5054520000000  0.5797180000000  0.5772160000000 1.0
C      1  0.4959490000000  0.4276810000000  0.5825610000000 1.0
C      1  0.4335560000000  0.5787800000000  0.4452440000000 1.0
C      1  0.5408390000000  0.4093640000000  0.4369230000000 1.0
C      1  0.5591440000000  0.5748650000000  0.5607080000000 1.0
C      1  0.4457390000000  0.4053670000000  0.5634060000000 1.0
C      1  0.5739990000000  0.4333250000000  0.4486120000000 1.0
C      1  0.4130990000000  0.5540130000000  0.4398330000000 1.0
C      1  0.5784010000000  0.5522710000000  0.5592770000000 1.0
C      1  0.4065100000000  0.4418180000000  0.5656990000000 1.0
C      1  0.4448450000000  0.4250200000000  0.5432970000000 1.0
C      1  0.5376790000000  0.5592600000000  0.5428470000000 1.0
C      1  0.5277200000000  0.4352960000000  0.4615660000000 1.0
C      1  0.4528250000000  0.5605870000000  0.4582660000000 1.0
C      1  0.4228170000000  0.4416400000000  0.5424980000000 1.0
C      1  0.5605970000000  0.5356010000000  0.5401130000000 1.0
C      1  0.4350290000000  0.5355770000000  0.4557190000000 1.0
C      1  0.5542170000000  0.4481130000000  0.4616100000000 1.0
C      1  0.5401150000000  0.5646150000000  0.4163150000000 1.0
C      1  0.4665320000000  0.4426220000000  0.4154020000000 1.0
C      1  0.4600370000000  0.5650320000000  0.5788380000000 1.0
C      1  0.5419390000000  0.4479800000000  0.5819790000000 1.0
C      1  0.5652680000000  0.5363160000000  0.4186550000000 1.0
C      1  0.4461600000000  0.4655860000000  0.4197640000000 1.0
C      1  0.5637250000000  0.4698050000000  0.5819270000000 1.0
C      1  0.4373010000000  0.5360800000000  0.5813260000000 1.0
C      1  0.4729690000000  0.5112810000000  0.4737200000000 1.0
C      1  0.5292660000000  0.5020680000000  0.4768750000000 1.0
C      1  0.5357980000000  0.4997700000000  0.5203290000000 1.0
C      1  0.4540700000000  0.4982950000000  0.5172850000000 1.0
C      1  0.4955510000000  0.4656570000000  0.4783170000000 1.0
C      1  0.4993250000000  0.5464350000000  0.4766220000000 1.0
C      1  0.4968640000000  0.5377170000000  0.5199670000000 1.0
C      1  0.4964350000000  0.4602050000000  0.5217740000000 1.0
C      1  0.4577490000000  0.4225500000000  0.5170440000000 1.0
C      1  0.5364410000000  0.5740170000000  0.5162940000000 1.0
C      1  0.5260520000000  0.4209730000000  0.5030670000000 1.0
C      1  0.4594750000000  0.5708760000000  0.4849960000000 1.0
C      1  0.4204170000000  0.4567730000000  0.5175230000000 1.0
C      1  0.5715530000000  0.5358260000000  0.5122970000000 1.0
C      1  0.4268030000000  0.5310820000000  0.4848340000000 1.0
C      1  0.5645280000000  0.4602890000000  0.4859440000000 1.0
C      1  0.5010410000000  0.4734080000000  0.5952130000000 1.0
C      1  0.5021080000000  0.5384780000000  0.5942640000000 1.0
C      1  0.5062570000000  0.4716350000000  0.4017060000000 1.0
C      1  0.5066840000000  0.5335660000000  0.4005200000000 1.0
C      1  0.4738740000000  0.5081680000000  0.5937330000000 1.0
C      1  0.5362030000000  0.5098750000000  0.5938570000000 1.0
C      1  0.4715090000000  0.5061670000000  0.3991270000000 1.0
C      1  0.5341540000000  0.5060730000000  0.4007270000000 1.0
C      1  0.4694870000000  0.4366760000000  0.5904120000000 1.0
C      1  0.5278300000000  0.5674310000000  0.5915820000000 1.0
C      1  0.5384090000000  0.4365060000000  0.3979560000000 1.0
C      1  0.4652320000000  0.5616250000000  0.4161210000000 1.0
C      1  0.4459830000000  0.4638530000000  0.5798920000000 1.0
C      1  0.5870350000000  0.5182780000000  0.5919370000000 1.0
C      1  0.4388550000000  0.5343900000000  0.4094220000000 1.0
C      1  0.5648920000000  0.4608610000000  0.4118920000000 1.0
C      1  0.5395870000000  0.5843440000000  0.4621640000000 1.0
C      1  0.4705070000000  0.4243510000000  0.4640240000000 1.0
C      1  0.4605610000000  0.5819370000000  0.5337640000000 1.0
C      1  0.5427660000000  0.4178900000000  0.5492250000000 1.0
C      1  0.5814850000000  0.5372120000000  0.4640200000000 1.0
C      1  0.4336210000000  0.4698950000000  0.4713960000000 1.0
C      1  0.5885140000000  0.4630470000000  0.5378370000000 1.0
C      1  0.4178990000000  0.5345930000000  0.5377690000000 1.0
C      1  0.5037200000000  0.5257270000000  0.5656870000000 1.0
C      1  0.4944780000000  0.4754650000000  0.5668610000000 1.0
C      1  0.5027130000000  0.5244780000000  0.4292380000000 1.0
C      1  0.5118650000000  0.4754710000000  0.4304100000000 1.0
C      1  0.5300820000000  0.5125880000000  0.5660810000000 1.0
C      1  0.4824680000000  0.5030990000000  0.5648710000000 1.0
C      1  0.5234570000000  0.5027310000000  0.4296360000000 1.0
C      1  0.4753240000000  0.5156050000000  0.4264470000000 1.0
C      1  0.4442690000000  0.5337590000000  0.5516780000000 1.0
C      1  0.5620360000000  0.4725780000000  0.5510030000000 1.0
C      1  0.5568910000000  0.5350040000000  0.4470800000000 1.0
C      1  0.4535590000000  0.4756720000000  0.4488040000000 1.0
C      1  0.5362840000000  0.4471810000000  0.5525810000000 1.0
C      1  0.4675850000000  0.5584210000000  0.5505380000000 1.0
C      1  0.5364630000000  0.5589810000000  0.4454930000000 1.0
C      1  0.4761620000000  0.4454380000000  0.4448320000000 1.0
C      1  0.5795350000000  0.5456330000000  0.5873380000000 1.0
C      1  0.4258670000000  0.4435750000000  0.5866150000000 1.0
C      1  0.4201980000000  0.5561730000000  0.4100230000000 1.0
C      1  0.5763060000000  0.4357570000000  0.4208160000000 1.0
C      1  0.5543850000000  0.5747140000000  0.5888730000000 1.0
C      1  0.4453230000000  0.4203060000000  0.5875250000000 1.0
C      1  0.5550620000000  0.4176140000000  0.4122500000000 1.0
C      1  0.4410350000000  0.5781480000000  0.4158700000000 1.0
C      1  0.5830770000000  0.5621740000000  0.5050010000000 1.0
C      1  0.4128710000000  0.4352040000000  0.4969030000000 1.0
C      1  0.4147040000000  0.5574100000000  0.4960120000000 1.0
C      1  0.5750130000000  0.4362030000000  0.4997630000000 1.0
C      1  0.5630390000000  0.5833550000000  0.5053830000000 1.0
C      1  0.4353280000000  0.4127580000000  0.4982610000000 1.0
C      1  0.5562800000000  0.4145160000000  0.5051610000000 1.0
C      1  0.4331560000000  0.5802110000000  0.4955990000000 1.0
C      1  0.5632120000000  0.5097960000000  0.4068980000000 1.0
C      1  0.4458740000000  0.4883550000000  0.3998420000000 1.0
C      1  0.4438260000000  0.5098400000000  0.5916350000000 1.0
C      1  0.5637700000000  0.4967020000000  0.5972300000000 1.0
C      1  0.5131940000000  0.5631180000000  0.4054920000000 1.0
C      1  0.4898100000000  0.4466150000000  0.3963880000000 1.0
C      1  0.5153360000000  0.4465840000000  0.5966380000000 1.0
C      1  0.4840200000000  0.5661180000000  0.5937030000000 1.0
C      1  0.5163130000000  0.4548730000000  0.5000730000000 1.0
C      1  0.4731480000000  0.5456330000000  0.5016810000000 1.0
C      1  0.4709890000000  0.4515120000000  0.5061000000000 1.0
C      1  0.5176470000000  0.5438730000000  0.5005080000000 1.0
C      1  0.4555120000000  0.5208080000000  0.4966870000000 1.0
C      1  0.5398270000000  0.4752920000000  0.4999160000000 1.0
C      1  0.4465960000000  0.4711270000000  0.5049000000000 1.0
C      1  0.5379930000000  0.5213380000000  0.4992750000000 1.0
C      1  0.5209680000000  0.4106950000000  0.5321850000000 1.0
C      1  0.4780620000000  0.6039530000000  0.5337230000000 1.0
C      1  0.4940390000000  0.4070910000000  0.4587490000000 1.0
C      1  0.5180750000000  0.6026670000000  0.4669310000000 1.0
C      1  0.3976770000000  0.5166300000000  0.5463460000000 1.0
C      1  0.6106930000000  0.4794500000000  0.5297530000000 1.0
C      1  0.4120480000000  0.4894440000000  0.4640130000000 1.0
C      1  0.6007030000000  0.5161610000000  0.4617390000000 1.0
C      1  0.4064310000000  0.5090490000000  0.4852100000000 1.0
C      1  0.5873760000000  0.4775440000000  0.4775150000000 1.0
C      1  0.5931230000000  0.5164620000000  0.5147990000000 1.0
C      1  0.4008410000000  0.4773190000000  0.5267440000000 1.0
C      1  0.5099290000000  0.4013920000000  0.4838590000000 1.0
C      1  0.4776720000000  0.5942220000000  0.4803360000000 1.0
C      1  0.5192250000000  0.5965600000000  0.5226680000000 1.0
C      1  0.4782470000000  0.4028560000000  0.5244220000000 1.0
C      1  0.5638310000000  0.5895610000000  0.4763030000000 1.0
C      1  0.4423700000000  0.4179610000000  0.4689720000000 1.0
C      1  0.4340520000000  0.5857610000000  0.5240290000000 1.0
C      1  0.5651630000000  0.4093010000000  0.5333080000000 1.0
C      1  0.5889450000000  0.5622100000000  0.4762730000000 1.0
C      1  0.4221360000000  0.4421800000000  0.4685550000000 1.0
C      1  0.5888360000000  0.4377700000000  0.5250210000000 1.0
C      1  0.4088360000000  0.5578740000000  0.5247560000000 1.0
C      1  0.5044250000000  0.4525910000000  0.5490000000000 1.0
C      1  0.5002370000000  0.5486640000000  0.5463360000000 1.0
C      1  0.5047620000000  0.4545720000000  0.4510440000000 1.0
C      1  0.5071590000000  0.5490420000000  0.4475690000000 1.0
C      1  0.4557970000000  0.5051230000000  0.5475120000000 1.0
C      1  0.5498610000000  0.5050530000000  0.5454320000000 1.0
C      1  0.4575830000000  0.5076860000000  0.4486650000000 1.0
C      1  0.5425560000000  0.5085970000000  0.4509950000000 1.0
C      1  0.4158060000000  0.5001120000000  0.4378500000000 1.0
C      1  0.5889950000000  0.4908880000000  0.4507000000000 1.0
C      1  0.6021180000000  0.5052420000000  0.5412910000000 1.0
C      1  0.4066460000000  0.4899120000000  0.5542240000000 1.0
C      1  0.5114280000000  0.4145490000000  0.4326210000000 1.0
C      1  0.4925140000000  0.5953550000000  0.4540190000000 1.0
C      1  0.5018330000000  0.5923720000000  0.5473910000000 1.0
C      1  0.4954240000000  0.4144550000000  0.5467350000000 1.0
C      1  0.6037500000000  0.4961320000000  0.4950490000000 1.0
C      1  0.3950730000000  0.5007600000000  0.5108340000000 1.0
C      1  0.4989030000000  0.6049540000000  0.5007110000000 1.0
C      1  0.4923550000000  0.3915150000000  0.5033520000000 1.0
C      1  0.4986350000000  0.4978420000000  0.3868960000000 1.0
C      1  0.5094930000000  0.5021990000000  0.6075570000000 1.0
C      1  0.4985170000000  0.4952390000000  0.4771620000000 1.0
END
