TITL C-3577088-510-374 -0.00590797090247347 125000 -65.1290304279487 0 0 13 (C1) n - 1
REM
REM in /home/bkarasulu/work/CARBON/AIRSS/Generating-Clusters/EDIP-Nigel-Params/with-SteepDescent/Higher-Symm/SD-CG/HFTN-CG
REM
REM
REM
REM
REM
REM ./C.cell (12c818d87b63d06a65506943cc24bca4)
REM
REM compiler GCC version 9.2.1 20190827 (Red Hat 9.2.1-1)
REM options -cpp -mtune=generic -march=x86-64 -g -O0 -fpre-include=/usr/include/finclude/math-vector-fortran.h
REM seed -1765002389 1114047656 -1791275724 -1495812549 -1492513596 -811495939 257980552 647410801 79354774 574179575 -1794778509 -1868199209 -261408879 -1455579254 -264424686 1261050300 1207811256 94181430 -1504772113 -112715359 -1474570294 1854446885 824498379 1189916406 -737346015 1182388578 1580238290 -1858994296 939005506 -1839317679 -745298937 2075676232 -779804967
REM
CELL 1.54180   50.00000   50.00000   50.00000   90.00000   90.00000   90.00000
LATT -1
SFAC C  
C      1  0.4964530000000  0.5040750000000  0.5116170000000 1.0
C      1  0.4902720000000  0.4912040000000  0.5377950000000 1.0
C      1  0.5140030000000  0.4737720000000  0.5434150000000 1.0
C      1  0.5343900000000  0.4925300000000  0.5380950000000 1.0
C      1  0.5256810000000  0.5051620000000  0.5144000000000 1.0
C      1  0.4838690000000  0.5049010000000  0.6099710000000 1.0
C      1  0.5002080000000  0.4957900000000  0.4633310000000 1.0
C      1  0.4941850000000  0.5124140000000  0.3870060000000 1.0
C      1  0.4961220000000  0.5071210000000  0.4119470000000 1.0
C      1  0.4982780000000  0.5009370000000  0.4375070000000 1.0
C      1  0.5024920000000  0.5068670000000  0.5603890000000 1.0
C      1  0.5028970000000  0.4872730000000  0.4890510000000 1.0
C      1  0.4916640000000  0.5043070000000  0.5856080000000 1.0
END
