TITL C-3578199-7832-3 -1.06064165747351e-06 125000 -751.35111794385 0 0 122 (D3) n - 1
REM
REM in /home/bkarasulu/work/CARBON/AIRSS/Generating-Clusters/EDIP-Nigel-Params/with-SteepDescent/Higher-Symm/SD-CG/HFTN-CG
REM
REM
REM
REM
REM
REM ./C.cell (12c818d87b63d06a65506943cc24bca4)
REM
REM compiler GCC version 9.2.1 20190827 (Red Hat 9.2.1-1)
REM options -cpp -mtune=generic -march=x86-64 -g -O0 -fpre-include=/usr/include/finclude/math-vector-fortran.h
REM seed -2144211509 1565770306 799248116 670152286 -1681647013 -1429301488 -1477619179 449779335 837519046 -1336009066 1786270580 527303612 529247568 -1001632668 -2111327661 -2139315091 1083813134 1638838918 1256598260 -274745908 1093966858 1784560891 293478847 1236438826 1392019540 1077105477 -928559416 1640987801 1135508128 -359596702 -1062204776 1683155959 344692750
REM
CELL 1.54180   50.00000   50.00000   50.00000   90.00000   90.00000   90.00000
LATT -1
SFAC C  
C      1  0.5768110000000  0.5248820000000  0.5163970000000 1.0
C      1  0.4759180000000  0.5248850000000  0.4255630000000 1.0
C      1  0.4477000000000  0.5248820000000  0.5583560000000 1.0
C      1  0.5768110000000  0.4764450000000  0.4838130000000 1.0
C      1  0.4759170000000  0.4764430000000  0.5746460000000 1.0
C      1  0.4477010000000  0.4764470000000  0.4418530000000 1.0
C      1  0.5543060000000  0.5601810000000  0.4503020000000 1.0
C      1  0.4299310000000  0.5601810000000  0.4781020000000 1.0
C      1  0.5161940000000  0.5601780000000  0.5719150000000 1.0
C      1  0.5543050000000  0.4411460000000  0.5499080000000 1.0
C      1  0.4299300000000  0.4411480000000  0.5221060000000 1.0
C      1  0.5161940000000  0.4411500000000  0.4282950000000 1.0
C      1  0.4891490000000  0.4495800000000  0.4216320000000 1.0
C      1  0.4376810000000  0.4495770000000  0.5488600000000 1.0
C      1  0.5735980000000  0.4495770000000  0.5298180000000 1.0
C      1  0.4891490000000  0.5517480000000  0.5785780000000 1.0
C      1  0.4376830000000  0.5517520000000  0.4513490000000 1.0
C      1  0.5735990000000  0.5517510000000  0.4703920000000 1.0
C      1  0.4680340000000  0.4324330000000  0.4341130000000 1.0
C      1  0.4590490000000  0.4324290000000  0.5609050000000 1.0
C      1  0.5733460000000  0.4324300000000  0.5052900000000 1.0
C      1  0.4680340000000  0.5688960000000  0.5660960000000 1.0
C      1  0.4590500000000  0.5688990000000  0.4393040000000 1.0
C      1  0.5733470000000  0.5688970000000  0.4949200000000 1.0
C      1  0.5206150000000  0.3932860000000  0.4808320000000 1.0
C      1  0.4732190000000  0.3932860000000  0.4920070000000 1.0
C      1  0.5065940000000  0.3932850000000  0.5274660000000 1.0
C      1  0.5206160000000  0.6080420000000  0.5193770000000 1.0
C      1  0.4732200000000  0.6080420000000  0.5082020000000 1.0
C      1  0.5065960000000  0.6080430000000  0.4727440000000 1.0
C      1  0.4276430000000  0.4974470000000  0.4504880000000 1.0
C      1  0.4934250000000  0.4974430000000  0.5877000000000 1.0
C      1  0.5793620000000  0.4974460000000  0.4621250000000 1.0
C      1  0.4276420000000  0.5038820000000  0.5497200000000 1.0
C      1  0.4934260000000  0.5038850000000  0.4125090000000 1.0
C      1  0.5793620000000  0.5038810000000  0.5380850000000 1.0
C      1  0.4935860000000  0.4532330000000  0.4721530000000 1.0
C      1  0.4792160000000  0.4532320000000  0.5197570000000 1.0
C      1  0.5276270000000  0.4532320000000  0.5083990000000 1.0
C      1  0.4935860000000  0.5480950000000  0.5280560000000 1.0
C      1  0.4792170000000  0.5480960000000  0.4804520000000 1.0
C      1  0.5276280000000  0.5480960000000  0.4918100000000 1.0
C      1  0.4707050000000  0.4862990000000  0.5478390000000 1.0
C      1  0.5562020000000  0.4862990000000  0.5017310000000 1.0
C      1  0.4735230000000  0.4863010000000  0.4507420000000 1.0
C      1  0.4707060000000  0.5150300000000  0.4523700000000 1.0
C      1  0.5562020000000  0.5150280000000  0.4984790000000 1.0
C      1  0.4735230000000  0.5150270000000  0.5494670000000 1.0
C      1  0.4109410000000  0.4587580000000  0.5092710000000 1.0
C      1  0.5526830000000  0.4587550000000  0.5727710000000 1.0
C      1  0.5368050000000  0.4587600000000  0.4182690000000 1.0
C      1  0.4109420000000  0.5425710000000  0.4909380000000 1.0
C      1  0.5526840000000  0.5425720000000  0.4274390000000 1.0
C      1  0.5368050000000  0.5425680000000  0.5819410000000 1.0
C      1  0.4639700000000  0.5923670000000  0.4848040000000 1.0
C      1  0.5049780000000  0.5923650000000  0.5390860000000 1.0
C      1  0.5314840000000  0.5923670000000  0.4764310000000 1.0
C      1  0.4639680000000  0.4089620000000  0.5154040000000 1.0
C      1  0.5049780000000  0.4089630000000  0.4611230000000 1.0
C      1  0.5314820000000  0.4089610000000  0.5237790000000 1.0
C      1  0.4750010000000  0.4106800000000  0.4656180000000 1.0
C      1  0.4828500000000  0.4106770000000  0.5391170000000 1.0
C      1  0.5425770000000  0.4106780000000  0.4955700000000 1.0
C      1  0.4750020000000  0.5906490000000  0.5345910000000 1.0
C      1  0.4828520000000  0.5906510000000  0.4610920000000 1.0
C      1  0.5425780000000  0.5906490000000  0.5046390000000 1.0
C      1  0.5152080000000  0.5223280000000  0.4836400000000 1.0
C      1  0.4783510000000  0.5223280000000  0.4952920000000 1.0
C      1  0.5068710000000  0.5223270000000  0.5213840000000 1.0
C      1  0.5152080000000  0.4790000000000  0.5165700000000 1.0
C      1  0.4783510000000  0.4790000000000  0.5049170000000 1.0
C      1  0.5068710000000  0.4790010000000  0.4788250000000 1.0
C      1  0.5303710000000  0.4861630000000  0.5431000000000 1.0
C      1  0.5222650000000  0.4861660000000  0.4524280000000 1.0
C      1  0.4477940000000  0.4861650000000  0.5047850000000 1.0
C      1  0.5303720000000  0.5151650000000  0.4571100000000 1.0
C      1  0.5222640000000  0.5151620000000  0.5477810000000 1.0
C      1  0.4477940000000  0.5151640000000  0.4954240000000 1.0
C      1  0.4273200000000  0.5313590000000  0.5115900000000 1.0
C      1  0.5465010000000  0.5313570000000  0.5574310000000 1.0
C      1  0.5266100000000  0.5313600000000  0.4312960000000 1.0
C      1  0.4273190000000  0.4699700000000  0.4886180000000 1.0
C      1  0.5465020000000  0.4699710000000  0.4427790000000 1.0
C      1  0.5266080000000  0.4699670000000  0.5689140000000 1.0
C      1  0.4100730000000  0.4866970000000  0.4709810000000 1.0
C      1  0.5199570000000  0.4866920000000  0.5926690000000 1.0
C      1  0.5704000000000  0.4866960000000  0.4366630000000 1.0
C      1  0.4100730000000  0.5146330000000  0.5292270000000 1.0
C      1  0.5199580000000  0.5146360000000  0.4075410000000 1.0
C      1  0.5703990000000  0.5146310000000  0.5635470000000 1.0
C      1  0.5281010000000  0.5649470000000  0.4668820000000 1.0
C      1  0.4573920000000  0.5649470000000  0.4925070000000 1.0
C      1  0.5149380000000  0.5649450000000  0.5409310000000 1.0
C      1  0.5281000000000  0.4363810000000  0.5333280000000 1.0
C      1  0.4573910000000  0.4363820000000  0.5077020000000 1.0
C      1  0.5149380000000  0.4363830000000  0.4592790000000 1.0
C      1  0.3972830000000  0.5069880000000  0.4873010000000 1.0
C      1  0.5404850000000  0.5069840000000  0.5955860000000 1.0
C      1  0.5626620000000  0.5069890000000  0.4174270000000 1.0
C      1  0.3972830000000  0.4943410000000  0.5129070000000 1.0
C      1  0.5404860000000  0.4943430000000  0.4046240000000 1.0
C      1  0.5626610000000  0.4943380000000  0.5827830000000 1.0
C      1  0.4456680000000  0.5536560000000  0.5550990000000 1.0
C      1  0.5750070000000  0.5536560000000  0.5197870000000 1.0
C      1  0.4797560000000  0.5536600000000  0.4254320000000 1.0
C      1  0.4456680000000  0.4476730000000  0.4451090000000 1.0
C      1  0.5750070000000  0.4476710000000  0.4804230000000 1.0
C      1  0.4797540000000  0.4476690000000  0.5747770000000 1.0
C      1  0.4966460000000  0.5617200000000  0.4586790000000 1.0
C      1  0.4660150000000  0.5617190000000  0.5238490000000 1.0
C      1  0.5377700000000  0.5617180000000  0.5177910000000 1.0
C      1  0.4966450000000  0.4396080000000  0.5415300000000 1.0
C      1  0.4660150000000  0.4396100000000  0.4763600000000 1.0
C      1  0.5377690000000  0.4396090000000  0.4824190000000 1.0
C      1  0.5607740000000  0.4805900000000  0.5303890000000 1.0
C      1  0.4960550000000  0.4805930000000  0.4324540000000 1.0
C      1  0.4436000000000  0.4805910000000  0.5374690000000 1.0
C      1  0.5607740000000  0.5207370000000  0.4698210000000 1.0
C      1  0.4960550000000  0.5207350000000  0.5677550000000 1.0
C      1  0.4436010000000  0.5207380000000  0.4627390000000 1.0
C      1  0.5001440000000  0.6186720000000  0.5001080000000 1.0
C      1  0.5001430000000  0.3826560000000  0.5001010000000 1.0
END
