TITL C-3578196-9646-598 6.75217009197899e-08 125000 -733.763132605288 0 0 119 (C1) n - 1
REM
REM in /home/bkarasulu/work/CARBON/AIRSS/Generating-Clusters/EDIP-Nigel-Params/with-SteepDescent/Higher-Symm/SD-CG/HFTN-CG
REM
REM
REM
REM
REM
REM ./C.cell (12c818d87b63d06a65506943cc24bca4)
REM
REM compiler GCC version 9.2.1 20190827 (Red Hat 9.2.1-1)
REM options -cpp -mtune=generic -march=x86-64 -g -O0 -fpre-include=/usr/include/finclude/math-vector-fortran.h
REM seed 1760224314 -1163599208 1666191355 -167777888 -1941071126 -614971317 381384980 1337262140 -1326404765 -185580950 282784116 650938582 1647719238 -11874836 1300675527 187841543 1485034313 -1193655915 588101202 -563060188 1439964299 -1671368005 565666443 -1934826549 -440737995 -1745919508 -2101871756 -1957921800 1459125144 905053393 318889591 277989229 194012371
REM
CELL 1.54180   50.00000   50.00000   50.00000   90.00000   90.00000   90.00000
LATT -1
SFAC C  
C      1  0.4928420000000  0.5347380000000  0.4005410000000 1.0
C      1  0.5245000000000  0.5835140000000  0.5488410000000 1.0
C      1  0.5153040000000  0.4804360000000  0.5446170000000 1.0
C      1  0.5883090000000  0.5010180000000  0.4498770000000 1.0
C      1  0.4445630000000  0.5415490000000  0.4365720000000 1.0
C      1  0.4852900000000  0.4968280000000  0.3984820000000 1.0
C      1  0.4428310000000  0.4254420000000  0.5286100000000 1.0
C      1  0.5200410000000  0.5359580000000  0.4939630000000 1.0
C      1  0.6053520000000  0.5200790000000  0.4998890000000 1.0
C      1  0.4335440000000  0.5583840000000  0.4978660000000 1.0
C      1  0.4492250000000  0.5411340000000  0.5451440000000 1.0
C      1  0.5572450000000  0.5702320000000  0.5012930000000 1.0
C      1  0.4641990000000  0.5636130000000  0.4456350000000 1.0
C      1  0.5371450000000  0.4826440000000  0.5023340000000 1.0
C      1  0.5241010000000  0.5781390000000  0.4523150000000 1.0
C      1  0.4164600000000  0.5150600000000  0.5164380000000 1.0
C      1  0.4445170000000  0.5207490000000  0.5667700000000 1.0
C      1  0.5983490000000  0.5300280000000  0.4736530000000 1.0
C      1  0.5215020000000  0.5647400000000  0.5692140000000 1.0
C      1  0.4784420000000  0.4649530000000  0.4560130000000 1.0
C      1  0.4384300000000  0.5355260000000  0.5172440000000 1.0
C      1  0.5544630000000  0.4740290000000  0.4500770000000 1.0
C      1  0.5317720000000  0.4721490000000  0.4743730000000 1.0
C      1  0.4080600000000  0.5038770000000  0.4902850000000 1.0
C      1  0.5181760000000  0.5097530000000  0.5824930000000 1.0
C      1  0.5509370000000  0.4285540000000  0.4999920000000 1.0
C      1  0.4170460000000  0.4617960000000  0.4675110000000 1.0
C      1  0.5564140000000  0.5395470000000  0.4420640000000 1.0
C      1  0.4690020000000  0.4216140000000  0.5683240000000 1.0
C      1  0.5239990000000  0.4416060000000  0.4311810000000 1.0
C      1  0.5139470000000  0.4355560000000  0.5786380000000 1.0
C      1  0.4741220000000  0.4284720000000  0.4435450000000 1.0
C      1  0.4125120000000  0.4955580000000  0.5375270000000 1.0
C      1  0.5788060000000  0.4792790000000  0.5155170000000 1.0
C      1  0.5040450000000  0.4301900000000  0.4498930000000 1.0
C      1  0.5150210000000  0.4013940000000  0.5129140000000 1.0
C      1  0.5215840000000  0.5262500000000  0.4659470000000 1.0
C      1  0.5512790000000  0.5657150000000  0.4540920000000 1.0
C      1  0.5736240000000  0.5232040000000  0.4595410000000 1.0
C      1  0.5021830000000  0.5629540000000  0.4371950000000 1.0
C      1  0.5153070000000  0.4393530000000  0.4764230000000 1.0
C      1  0.4252490000000  0.4848830000000  0.4504080000000 1.0
C      1  0.5675780000000  0.5273090000000  0.5030130000000 1.0
C      1  0.4881230000000  0.4700350000000  0.4079760000000 1.0
C      1  0.5805740000000  0.5205390000000  0.5512430000000 1.0
C      1  0.4983920000000  0.4608710000000  0.5845730000000 1.0
C      1  0.4911510000000  0.4643140000000  0.5545230000000 1.0
C      1  0.5062600000000  0.4043590000000  0.5389990000000 1.0
C      1  0.4929470000000  0.5276990000000  0.5876060000000 1.0
C      1  0.5663270000000  0.5060440000000  0.5739680000000 1.0
C      1  0.5391640000000  0.5160240000000  0.5078760000000 1.0
C      1  0.5453020000000  0.5235260000000  0.5874430000000 1.0
C      1  0.5358080000000  0.5274780000000  0.4241610000000 1.0
C      1  0.5474690000000  0.5502170000000  0.5733080000000 1.0
C      1  0.5503850000000  0.4450190000000  0.4443870000000 1.0
C      1  0.4218870000000  0.5362320000000  0.4549510000000 1.0
C      1  0.4699050000000  0.4266520000000  0.4939860000000 1.0
C      1  0.5144040000000  0.5753570000000  0.5243030000000 1.0
C      1  0.5695520000000  0.5582500000000  0.5243310000000 1.0
C      1  0.5901760000000  0.4777170000000  0.4651920000000 1.0
C      1  0.4299280000000  0.4359000000000  0.4792080000000 1.0
C      1  0.5762980000000  0.4673990000000  0.4879550000000 1.0
C      1  0.4572190000000  0.4194650000000  0.4671410000000 1.0
C      1  0.5644500000000  0.4424780000000  0.4793160000000 1.0
C      1  0.5096970000000  0.4801670000000  0.5149170000000 1.0
C      1  0.4827950000000  0.5131580000000  0.5474290000000 1.0
C      1  0.5577520000000  0.5398940000000  0.5459910000000 1.0
C      1  0.4271220000000  0.4964510000000  0.5624370000000 1.0
C      1  0.4458700000000  0.4349030000000  0.5582530000000 1.0
C      1  0.4957380000000  0.5497910000000  0.5682670000000 1.0
C      1  0.4926950000000  0.5985810000000  0.4857850000000 1.0
C      1  0.5284670000000  0.5672930000000  0.4994900000000 1.0
C      1  0.5383510000000  0.4474840000000  0.5191480000000 1.0
C      1  0.4654390000000  0.4628330000000  0.4275870000000 1.0
C      1  0.4681860000000  0.4836730000000  0.5520460000000 1.0
C      1  0.5683250000000  0.5731700000000  0.4757120000000 1.0
C      1  0.4516550000000  0.5853730000000  0.4600800000000 1.0
C      1  0.5351190000000  0.5225390000000  0.5357320000000 1.0
C      1  0.5134330000000  0.5088540000000  0.5521570000000 1.0
C      1  0.4053920000000  0.4747680000000  0.4915030000000 1.0
C      1  0.4445960000000  0.4860270000000  0.4284220000000 1.0
C      1  0.4580530000000  0.4861350000000  0.4954500000000 1.0
C      1  0.4212850000000  0.5094120000000  0.4651310000000 1.0
C      1  0.5173260000000  0.4966050000000  0.4595950000000 1.0
C      1  0.4219780000000  0.4346340000000  0.5097650000000 1.0
C      1  0.4470750000000  0.4743230000000  0.5209200000000 1.0
C      1  0.4170570000000  0.4641720000000  0.5169340000000 1.0
C      1  0.4854800000000  0.4955490000000  0.5031880000000 1.0
C      1  0.4881730000000  0.4921160000000  0.4591930000000 1.0
C      1  0.4866420000000  0.5662340000000  0.5205780000000 1.0
C      1  0.4651950000000  0.5111940000000  0.4666380000000 1.0
C      1  0.5161890000000  0.4676960000000  0.4184590000000 1.0
C      1  0.4754180000000  0.5189320000000  0.5177090000000 1.0
C      1  0.4748090000000  0.5564880000000  0.5474050000000 1.0
C      1  0.4591300000000  0.4612000000000  0.4787740000000 1.0
C      1  0.4856550000000  0.5151670000000  0.4215330000000 1.0
C      1  0.5191300000000  0.4804280000000  0.5903110000000 1.0
C      1  0.4976820000000  0.5365410000000  0.4525530000000 1.0
C      1  0.4537160000000  0.5757080000000  0.4866770000000 1.0
C      1  0.5172170000000  0.5864510000000  0.4793290000000 1.0
C      1  0.5065440000000  0.4425530000000  0.5238220000000 1.0
C      1  0.5151660000000  0.5473410000000  0.4136300000000 1.0
C      1  0.4436100000000  0.4719850000000  0.5664580000000 1.0
C      1  0.4577260000000  0.5137870000000  0.4350900000000 1.0
C      1  0.4940830000000  0.4437210000000  0.4961200000000 1.0
C      1  0.4739960000000  0.5866400000000  0.5029100000000 1.0
C      1  0.5864220000000  0.5083000000000  0.5207140000000 1.0
C      1  0.5531620000000  0.4448400000000  0.5444870000000 1.0
C      1  0.4893280000000  0.5405890000000  0.5023060000000 1.0
C      1  0.4634940000000  0.4486650000000  0.5263110000000 1.0
C      1  0.4675360000000  0.5147890000000  0.5833720000000 1.0
C      1  0.5312990000000  0.4920630000000  0.4318000000000 1.0
C      1  0.4165850000000  0.5538750000000  0.4760180000000 1.0
C      1  0.5520160000000  0.4870980000000  0.5565470000000 1.0
C      1  0.4960800000000  0.4206980000000  0.5603920000000 1.0
C      1  0.4754670000000  0.5397520000000  0.4736130000000 1.0
C      1  0.5699490000000  0.4686360000000  0.5417440000000 1.0
C      1  0.5279660000000  0.4142120000000  0.4909760000000 1.0
C      1  0.5386860000000  0.4531280000000  0.5698840000000 1.0
END
