TITL C-3578203-1966-496 -5.05642938913661e-06 125000 -1179.89913227012 0 0 184 (C1) n - 1
REM
REM in /home/bkarasulu/work/CARBON/AIRSS/Generating-Clusters/EDIP-Nigel-Params/with-SteepDescent/Higher-Symm/SD-CG/HFTN-CG
REM
REM
REM
REM
REM
REM ./C.cell (12c818d87b63d06a65506943cc24bca4)
REM
REM compiler GCC version 9.2.1 20190827 (Red Hat 9.2.1-1)
REM options -cpp -mtune=generic -march=x86-64 -g -O0 -fpre-include=/usr/include/finclude/math-vector-fortran.h
REM seed 782290050 -1855599445 -1286390443 -1187315994 1641228347 287743421 1104155008 -526488254 -773441422 -827031170 1202126111 361504617 -2050930101 -489680552 -772762403 -364914537 -1924963148 -2036053146 1867663581 -835514483 -404590663 -1641477449 655671505 -749159329 -346288452 -223703133 676127656 -1503939414 -1012069717 -774842062 -820045 -1909857054 -2138032561
REM
CELL 1.54180   50.00000   50.00000   50.00000   90.00000   90.00000   90.00000
LATT -1
SFAC C  
C      1  0.4801280000000  0.4299670000000  0.5308660000000 1.0
C      1  0.4438140000000  0.5450330000000  0.5314570000000 1.0
C      1  0.5663040000000  0.5173470000000  0.5277570000000 1.0
C      1  0.5101050000000  0.4279080000000  0.5341590000000 1.0
C      1  0.5527530000000  0.5438750000000  0.5300020000000 1.0
C      1  0.4296980000000  0.5181340000000  0.5307380000000 1.0
C      1  0.4688420000000  0.5008990000000  0.5947030000000 1.0
C      1  0.5145890000000  0.5255440000000  0.5916310000000 1.0
C      1  0.5138840000000  0.4728960000000  0.5942720000000 1.0
C      1  0.5292460000000  0.4996470000000  0.5928060000000 1.0
C      1  0.4841520000000  0.5263270000000  0.5923790000000 1.0
C      1  0.4840890000000  0.4730610000000  0.5952940000000 1.0
C      1  0.5541440000000  0.4052300000000  0.5410790000000 1.0
C      1  0.3853340000000  0.4990690000000  0.5428000000000 1.0
C      1  0.5517560000000  0.5914420000000  0.5398350000000 1.0
C      1  0.4408620000000  0.4014140000000  0.5426500000000 1.0
C      1  0.6088840000000  0.4964370000000  0.5391880000000 1.0
C      1  0.4452940000000  0.5935480000000  0.5405840000000 1.0
C      1  0.5921510000000  0.5745210000000  0.5025200000000 1.0
C      1  0.5175360000000  0.3829470000000  0.5033560000000 1.0
C      1  0.3882310000000  0.5416830000000  0.5028980000000 1.0
C      1  0.4066300000000  0.5744620000000  0.5025780000000 1.0
C      1  0.4801480000000  0.3822330000000  0.5035330000000 1.0
C      1  0.6115210000000  0.5418410000000  0.5019790000000 1.0
C      1  0.5697950000000  0.5920020000000  0.4927780000000 1.0
C      1  0.5435100000000  0.3949470000000  0.4941010000000 1.0
C      1  0.3855560000000  0.5135340000000  0.4949730000000 1.0
C      1  0.4296320000000  0.5912480000000  0.4929340000000 1.0
C      1  0.4553900000000  0.3953650000000  0.4954770000000 1.0
C      1  0.6164150000000  0.5145800000000  0.4921720000000 1.0
C      1  0.4682660000000  0.4488950000000  0.5515400000000 1.0
C      1  0.4704600000000  0.5469770000000  0.5441580000000 1.0
C      1  0.5535170000000  0.4971660000000  0.5469430000000 1.0
C      1  0.5240230000000  0.4495110000000  0.5476100000000 1.0
C      1  0.5263190000000  0.5453590000000  0.5429090000000 1.0
C      1  0.4409860000000  0.4991650000000  0.5515770000000 1.0
C      1  0.5239810000000  0.4136400000000  0.4586520000000 1.0
C      1  0.4145670000000  0.5246730000000  0.4593240000000 1.0
C      1  0.5675180000000  0.5667620000000  0.4550060000000 1.0
C      1  0.4796850000000  0.4147790000000  0.4601560000000 1.0
C      1  0.5886440000000  0.5277400000000  0.4558780000000 1.0
C      1  0.4353500000000  0.5638640000000  0.4582670000000 1.0
C      1  0.5143880000000  0.5745660000000  0.4776600000000 1.0
C      1  0.5589860000000  0.4547600000000  0.4837230000000 1.0
C      1  0.4300260000000  0.4769150000000  0.4902230000000 1.0
C      1  0.4864980000000  0.5739540000000  0.4782910000000 1.0
C      1  0.4459030000000  0.4521000000000  0.4899100000000 1.0
C      1  0.5733840000000  0.4795140000000  0.4849770000000 1.0
C      1  0.5170190000000  0.4732560000000  0.4549480000000 1.0
C      1  0.4681360000000  0.5014230000000  0.4605870000000 1.0
C      1  0.5213800000000  0.5366480000000  0.4560650000000 1.0
C      1  0.4847580000000  0.4721800000000  0.4587900000000 1.0
C      1  0.5355300000000  0.5068530000000  0.4530220000000 1.0
C      1  0.4879560000000  0.5295670000000  0.4539720000000 1.0
C      1  0.4407320000000  0.5032420000000  0.5009940000000 1.0
C      1  0.5287850000000  0.5567950000000  0.4954630000000 1.0
C      1  0.5353870000000  0.4513290000000  0.5002360000000 1.0
C      1  0.5611780000000  0.5051590000000  0.4963820000000 1.0
C      1  0.4732300000000  0.5559090000000  0.4972930000000 1.0
C      1  0.4744200000000  0.4486750000000  0.5011980000000 1.0
C      1  0.4521690000000  0.4076530000000  0.4686070000000 1.0
C      1  0.4421060000000  0.5922140000000  0.4637310000000 1.0
C      1  0.6082890000000  0.5066730000000  0.4641700000000 1.0
C      1  0.5514180000000  0.4068270000000  0.4663040000000 1.0
C      1  0.5584620000000  0.5936550000000  0.4636040000000 1.0
C      1  0.3947980000000  0.5041850000000  0.4679870000000 1.0
C      1  0.3700350000000  0.4572000000000  0.4826690000000 1.0
C      1  0.5245740000000  0.6328950000000  0.4842520000000 1.0
C      1  0.6023760000000  0.4113660000000  0.4826430000000 1.0
C      1  0.6328870000000  0.4558990000000  0.4810290000000 1.0
C      1  0.4745650000000  0.6324000000000  0.4837860000000 1.0
C      1  0.3961600000000  0.4089260000000  0.4826310000000 1.0
C      1  0.5156030000000  0.5689930000000  0.5271990000000 1.0
C      1  0.5497140000000  0.4480440000000  0.5322860000000 1.0
C      1  0.4262280000000  0.4738410000000  0.5517460000000 1.0
C      1  0.4838880000000  0.5691080000000  0.5272260000000 1.0
C      1  0.4394790000000  0.4495470000000  0.5481120000000 1.0
C      1  0.5659710000000  0.4717830000000  0.5403420000000 1.0
C      1  0.5282220000000  0.4563600000000  0.4315910000000 1.0
C      1  0.4493520000000  0.4995770000000  0.4352710000000 1.0
C      1  0.5280340000000  0.5498250000000  0.4287160000000 1.0
C      1  0.4743110000000  0.4561920000000  0.4343730000000 1.0
C      1  0.5550480000000  0.5026950000000  0.4294990000000 1.0
C      1  0.4760600000000  0.5469800000000  0.4308810000000 1.0
C      1  0.5923510000000  0.4803550000000  0.4615720000000 1.0
C      1  0.4373590000000  0.4344340000000  0.4663470000000 1.0
C      1  0.4738580000000  0.5914410000000  0.4577740000000 1.0
C      1  0.4114080000000  0.4782890000000  0.4659680000000 1.0
C      1  0.5660600000000  0.4353380000000  0.4616950000000 1.0
C      1  0.5268800000000  0.5925150000000  0.4574260000000 1.0
C      1  0.5955380000000  0.4306690000000  0.4634310000000 1.0
C      1  0.3928260000000  0.4548550000000  0.4666530000000 1.0
C      1  0.5146340000000  0.6198890000000  0.4614190000000 1.0
C      1  0.4074380000000  0.4299960000000  0.4677500000000 1.0
C      1  0.6104850000000  0.4557570000000  0.4639140000000 1.0
C      1  0.4852700000000  0.6192730000000  0.4613810000000 1.0
C      1  0.5958030000000  0.4249420000000  0.5307400000000 1.0
C      1  0.3896550000000  0.4533860000000  0.5286230000000 1.0
C      1  0.5134280000000  0.6130890000000  0.5307820000000 1.0
C      1  0.4007770000000  0.4261510000000  0.5307180000000 1.0
C      1  0.6079570000000  0.4510950000000  0.5269020000000 1.0
C      1  0.4850380000000  0.6131910000000  0.5305460000000 1.0
C      1  0.5951610000000  0.4707270000000  0.5442810000000 1.0
C      1  0.4240220000000  0.4249530000000  0.5494530000000 1.0
C      1  0.4718760000000  0.5972830000000  0.5500070000000 1.0
C      1  0.3976440000000  0.4730300000000  0.5485640000000 1.0
C      1  0.5736660000000  0.4242720000000  0.5496530000000 1.0
C      1  0.5260820000000  0.5970250000000  0.5506710000000 1.0
C      1  0.5167480000000  0.5279690000000  0.4074340000000 1.0
C      1  0.5174590000000  0.4738440000000  0.4071250000000 1.0
C      1  0.4711940000000  0.5001580000000  0.4120460000000 1.0
C      1  0.4864340000000  0.5266010000000  0.4097570000000 1.0
C      1  0.4858870000000  0.4741720000000  0.4103390000000 1.0
C      1  0.5331660000000  0.5013110000000  0.4059150000000 1.0
C      1  0.4332190000000  0.3956720000000  0.5143540000000 1.0
C      1  0.4441840000000  0.6052480000000  0.5136600000000 1.0
C      1  0.6214250000000  0.4934740000000  0.5122900000000 1.0
C      1  0.5634360000000  0.3979240000000  0.5143120000000 1.0
C      1  0.5536710000000  0.6039640000000  0.5135850000000 1.0
C      1  0.3739190000000  0.4951170000000  0.5150820000000 1.0
C      1  0.5745140000000  0.5246350000000  0.5732500000000 1.0
C      1  0.4839890000000  0.4183570000000  0.5777500000000 1.0
C      1  0.4385630000000  0.5533060000000  0.5745240000000 1.0
C      1  0.4224510000000  0.5285790000000  0.5770620000000 1.0
C      1  0.5136690000000  0.4190650000000  0.5773040000000 1.0
C      1  0.5596130000000  0.5504380000000  0.5731250000000 1.0
C      1  0.4861540000000  0.5763380000000  0.4324510000000 1.0
C      1  0.5729770000000  0.4782610000000  0.4365230000000 1.0
C      1  0.4445360000000  0.4511150000000  0.4406450000000 1.0
C      1  0.5159630000000  0.5780590000000  0.4313950000000 1.0
C      1  0.4301570000000  0.4762750000000  0.4408500000000 1.0
C      1  0.5583910000000  0.4526020000000  0.4364190000000 1.0
C      1  0.3892940000000  0.5460890000000  0.5319640000000 1.0
C      1  0.5937190000000  0.5692870000000  0.5316910000000 1.0
C      1  0.5131960000000  0.3805840000000  0.5328150000000 1.0
C      1  0.6078180000000  0.5442160000000  0.5309060000000 1.0
C      1  0.4036460000000  0.5711200000000  0.5320480000000 1.0
C      1  0.4841740000000  0.3808530000000  0.5326920000000 1.0
C      1  0.4682540000000  0.5499100000000  0.5813720000000 1.0
C      1  0.5580240000000  0.5019250000000  0.5842050000000 1.0
C      1  0.4734560000000  0.4449230000000  0.5889020000000 1.0
C      1  0.5304150000000  0.5482050000000  0.5804900000000 1.0
C      1  0.4396570000000  0.5065400000000  0.5890300000000 1.0
C      1  0.5253130000000  0.4462750000000  0.5853090000000 1.0
C      1  0.4090960000000  0.4104130000000  0.5075170000000 1.0
C      1  0.4686550000000  0.6190720000000  0.5077480000000 1.0
C      1  0.6228490000000  0.4651710000000  0.5055400000000 1.0
C      1  0.5891570000000  0.4095200000000  0.5074840000000 1.0
C      1  0.5300010000000  0.6189820000000  0.5080000000000 1.0
C      1  0.3718270000000  0.4659770000000  0.5092540000000 1.0
C      1  0.4358620000000  0.5238980000000  0.4806610000000 1.0
C      1  0.5552040000000  0.5522680000000  0.4794670000000 1.0
C      1  0.5183200000000  0.4304100000000  0.4844530000000 1.0
C      1  0.5669570000000  0.5264780000000  0.4769630000000 1.0
C      1  0.4457600000000  0.5506610000000  0.4842100000000 1.0
C      1  0.4900340000000  0.4344980000000  0.4806920000000 1.0
C      1  0.4863220000000  0.4291080000000  0.4339950000000 1.0
C      1  0.4463540000000  0.5487300000000  0.4336250000000 1.0
C      1  0.5728130000000  0.5266690000000  0.4293010000000 1.0
C      1  0.5161020000000  0.4293450000000  0.4332830000000 1.0
C      1  0.5577670000000  0.5526580000000  0.4291570000000 1.0
C      1  0.4316160000000  0.5230760000000  0.4339610000000 1.0
C      1  0.5157300000000  0.5285900000000  0.4940040000000 1.0
C      1  0.5184320000000  0.4768460000000  0.4982000000000 1.0
C      1  0.4720180000000  0.5020020000000  0.4990780000000 1.0
C      1  0.4866370000000  0.5286110000000  0.4978060000000 1.0
C      1  0.4885970000000  0.4759930000000  0.5022900000000 1.0
C      1  0.5314740000000  0.5028680000000  0.4964670000000 1.0
C      1  0.4682210000000  0.4974940000000  0.5429060000000 1.0
C      1  0.5114840000000  0.5211280000000  0.5374320000000 1.0
C      1  0.5096650000000  0.4733410000000  0.5411980000000 1.0
C      1  0.5244380000000  0.4972090000000  0.5442460000000 1.0
C      1  0.4834770000000  0.5213880000000  0.5413740000000 1.0
C      1  0.4817550000000  0.4736110000000  0.5460100000000 1.0
C      1  0.4711510000000  0.4043960000000  0.5475130000000 1.0
C      1  0.4303630000000  0.5679150000000  0.5460740000000 1.0
C      1  0.5925830000000  0.5212900000000  0.5438000000000 1.0
C      1  0.5240590000000  0.4044670000000  0.5477850000000 1.0
C      1  0.5667800000000  0.5658750000000  0.5451010000000 1.0
C      1  0.4032440000000  0.5236170000000  0.5470780000000 1.0
C      1  0.5012630000000  0.3931270000000  0.4611860000000 1.0
C      1  0.4062960000000  0.5541280000000  0.4595070000000 1.0
C      1  0.5965670000000  0.5572450000000  0.4575760000000 1.0
C      1  0.5055200000000  0.5003900000000  0.4398600000000 1.0
END
