TITL C-3577087-600-479 -3.30639249488009e-06 125000 -482.782645574664 0 0 80 (C1) n - 1
REM
REM in /home/bkarasulu/work/CARBON/AIRSS/Generating-Clusters/EDIP-Nigel-Params/with-SteepDescent/Higher-Symm/SD-CG/HFTN-CG
REM
REM
REM
REM
REM
REM ./C.cell (12c818d87b63d06a65506943cc24bca4)
REM
REM compiler GCC version 9.2.1 20190827 (Red Hat 9.2.1-1)
REM options -cpp -mtune=generic -march=x86-64 -g -O0 -fpre-include=/usr/include/finclude/math-vector-fortran.h
REM seed -1298965052 1766461853 -188195146 -162042883 -2019151073 1623248917 -1159149386 1522877647 1362218463 -2077841164 -1518132795 -895935003 -1152591196 270050518 -1485762954 1107030972 2068202781 -1207813374 -319566756 1579151715 -400615633 -1058382007 -1445367602 -133116011 -2084347555 63879462 89524831 2004340214 -215022648 1487731156 -648316384 -154025601 650693112
REM
CELL 1.54180   50.00000   50.00000   50.00000   90.00000   90.00000   90.00000
LATT -1
SFAC C  
C      1  0.4426370000000  0.5270000000000  0.4407510000000 1.0
C      1  0.4410260000000  0.4771470000000  0.5639840000000 1.0
C      1  0.5563470000000  0.5232060000000  0.4327170000000 1.0
C      1  0.5588140000000  0.4759720000000  0.5588710000000 1.0
C      1  0.4409720000000  0.5247000000000  0.5589820000000 1.0
C      1  0.4445620000000  0.4761350000000  0.4335940000000 1.0
C      1  0.5588960000000  0.5236700000000  0.5632060000000 1.0
C      1  0.5582690000000  0.4728230000000  0.4405990000000 1.0
C      1  0.4889710000000  0.5350400000000  0.4337910000000 1.0
C      1  0.4871890000000  0.4729420000000  0.5736570000000 1.0
C      1  0.5101910000000  0.5229380000000  0.4210620000000 1.0
C      1  0.5149480000000  0.4677720000000  0.5674060000000 1.0
C      1  0.4852240000000  0.5325530000000  0.5684150000000 1.0
C      1  0.4903180000000  0.4773120000000  0.4205620000000 1.0
C      1  0.5128610000000  0.5267380000000  0.5744260000000 1.0
C      1  0.5118840000000  0.4647760000000  0.4324200000000 1.0
C      1  0.4820940000000  0.5180910000000  0.5191360000000 1.0
C      1  0.4800840000000  0.4841310000000  0.4852920000000 1.0
C      1  0.5161490000000  0.5140960000000  0.5164700000000 1.0
C      1  0.5184910000000  0.4817340000000  0.4788450000000 1.0
C      1  0.4807720000000  0.5149600000000  0.4798790000000 1.0
C      1  0.4833300000000  0.4853670000000  0.5160450000000 1.0
C      1  0.5142190000000  0.5124270000000  0.4854290000000 1.0
C      1  0.5175330000000  0.4812070000000  0.5169990000000 1.0
C      1  0.5279970000000  0.5719960000000  0.4741120000000 1.0
C      1  0.5224860000000  0.4385750000000  0.5272920000000 1.0
C      1  0.4790300000000  0.5647060000000  0.4735620000000 1.0
C      1  0.4741610000000  0.4322750000000  0.5291400000000 1.0
C      1  0.5260250000000  0.5674200000000  0.5290970000000 1.0
C      1  0.5205080000000  0.4376190000000  0.4741630000000 1.0
C      1  0.4781140000000  0.5613660000000  0.5275790000000 1.0
C      1  0.4722760000000  0.4291940000000  0.4744060000000 1.0
C      1  0.4847800000000  0.5885470000000  0.5175470000000 1.0
C      1  0.4837630000000  0.4055210000000  0.4872840000000 1.0
C      1  0.5154840000000  0.5928570000000  0.5189390000000 1.0
C      1  0.5146860000000  0.4110250000000  0.4862020000000 1.0
C      1  0.4854670000000  0.5905110000000  0.4867220000000 1.0
C      1  0.4849460000000  0.4071730000000  0.5184850000000 1.0
C      1  0.5166200000000  0.5953860000000  0.4878070000000 1.0
C      1  0.5157210000000  0.4116820000000  0.5169900000000 1.0
C      1  0.4470790000000  0.4722750000000  0.5204040000000 1.0
C      1  0.4380120000000  0.5238230000000  0.4847880000000 1.0
C      1  0.5611130000000  0.4762990000000  0.5146300000000 1.0
C      1  0.5498430000000  0.5274660000000  0.4805890000000 1.0
C      1  0.4500990000000  0.4731010000000  0.4826960000000 1.0
C      1  0.4388580000000  0.5237140000000  0.5147080000000 1.0
C      1  0.5612810000000  0.4766090000000  0.4847280000000 1.0
C      1  0.5523220000000  0.5270980000000  0.5195100000000 1.0
C      1  0.5060880000000  0.4415510000000  0.4485700000000 1.0
C      1  0.5173220000000  0.5607730000000  0.5562260000000 1.0
C      1  0.4794310000000  0.4319310000000  0.4469920000000 1.0
C      1  0.4882130000000  0.5584810000000  0.5554380000000 1.0
C      1  0.5124650000000  0.4414970000000  0.5550530000000 1.0
C      1  0.5202980000000  0.5697070000000  0.4467630000000 1.0
C      1  0.4833440000000  0.4386570000000  0.5561510000000 1.0
C      1  0.4940560000000  0.5592100000000  0.4487320000000 1.0
C      1  0.4684940000000  0.5151070000000  0.5507460000000 1.0
C      1  0.4687680000000  0.4899900000000  0.4323080000000 1.0
C      1  0.5323050000000  0.5148480000000  0.5574570000000 1.0
C      1  0.5304610000000  0.4826950000000  0.4459850000000 1.0
C      1  0.4701690000000  0.5167050000000  0.4465400000000 1.0
C      1  0.4675790000000  0.4856260000000  0.5575030000000 1.0
C      1  0.5317620000000  0.5097500000000  0.4321260000000 1.0
C      1  0.5314240000000  0.4854770000000  0.5497140000000 1.0
C      1  0.5500640000000  0.5566190000000  0.5164210000000 1.0
C      1  0.5465030000000  0.4484660000000  0.4837680000000 1.0
C      1  0.4531980000000  0.5512180000000  0.5157440000000 1.0
C      1  0.4496100000000  0.4428610000000  0.4872100000000 1.0
C      1  0.5497470000000  0.5567490000000  0.4867080000000 1.0
C      1  0.5476050000000  0.4486330000000  0.5158910000000 1.0
C      1  0.4547950000000  0.5509250000000  0.4839410000000 1.0
C      1  0.4494440000000  0.4425300000000  0.5172510000000 1.0
C      1  0.4271190000000  0.4832340000000  0.5400240000000 1.0
C      1  0.4284190000000  0.5119890000000  0.4603180000000 1.0
C      1  0.5739650000000  0.4874680000000  0.5378960000000 1.0
C      1  0.5668820000000  0.5173320000000  0.4581970000000 1.0
C      1  0.4336530000000  0.4828830000000  0.4586440000000 1.0
C      1  0.4260310000000  0.5128920000000  0.5381180000000 1.0
C      1  0.5718990000000  0.4881380000000  0.4604500000000 1.0
C      1  0.5724330000000  0.5170840000000  0.5391950000000 1.0
END
