TITL C-3578206-1180-439 -3.69768851838647e-07 125000 -1149.7301271959 0 0 184 (C1) n - 1
REM
REM in /home/bkarasulu/work/CARBON/AIRSS/Generating-Clusters/EDIP-Nigel-Params/with-SteepDescent/Higher-Symm/SD-CG/HFTN-CG
REM
REM
REM
REM
REM
REM ./C.cell (12c818d87b63d06a65506943cc24bca4)
REM
REM compiler GCC version 9.2.1 20190827 (Red Hat 9.2.1-1)
REM options -cpp -mtune=generic -march=x86-64 -g -O0 -fpre-include=/usr/include/finclude/math-vector-fortran.h
REM seed 943228884 1110318337 -1738789743 -1357643074 625375447 -383507257 -1762421593 -2065666185 -1957395237 65231075 -1369706098 1042418847 -1070257836 310133662 -2139613659 -2125502173 405703655 276185489 -487887231 -1689551783 -2056027348 -1787547084 1703960918 1786300712 2066852265 -718374870 -759118465 -542888045 859882099 638126052 -1611763382 -1261808488 -1288442726
REM
CELL 1.54180   50.00000   50.00000   50.00000   90.00000   90.00000   90.00000
LATT -1
SFAC C  
C      1  0.5053800000000  0.4607720000000  0.5254370000000 1.0
C      1  0.5202510000000  0.5356140000000  0.5199880000000 1.0
C      1  0.5229600000000  0.4595710000000  0.4983450000000 1.0
C      1  0.5213790000000  0.5428520000000  0.4889020000000 1.0
C      1  0.5033130000000  0.4633110000000  0.4759760000000 1.0
C      1  0.4922110000000  0.5362580000000  0.4767670000000 1.0
C      1  0.4762370000000  0.4548290000000  0.4833710000000 1.0
C      1  0.4714770000000  0.5377970000000  0.5010510000000 1.0
C      1  0.4746960000000  0.4635420000000  0.5151200000000 1.0
C      1  0.4894250000000  0.5370970000000  0.5271640000000 1.0
C      1  0.5142230000000  0.4071670000000  0.5215320000000 1.0
C      1  0.5286570000000  0.6131360000000  0.5049310000000 1.0
C      1  0.5318370000000  0.4054970000000  0.4986280000000 1.0
C      1  0.5148540000000  0.6130880000000  0.4772220000000 1.0
C      1  0.5172670000000  0.3959950000000  0.4741610000000 1.0
C      1  0.4967110000000  0.5884340000000  0.4826610000000 1.0
C      1  0.4762440000000  0.3844370000000  0.4969340000000 1.0
C      1  0.4763510000000  0.5937490000000  0.5049890000000 1.0
C      1  0.4856450000000  0.4094350000000  0.5122100000000 1.0
C      1  0.4886170000000  0.6010130000000  0.5302580000000 1.0
C      1  0.4574840000000  0.5764200000000  0.4460900000000 1.0
C      1  0.4386360000000  0.4185970000000  0.4801270000000 1.0
C      1  0.4332220000000  0.5808970000000  0.5296230000000 1.0
C      1  0.4633440000000  0.4203400000000  0.5617750000000 1.0
C      1  0.5053160000000  0.5768740000000  0.5721510000000 1.0
C      1  0.5503470000000  0.4223240000000  0.5561440000000 1.0
C      1  0.5658460000000  0.5774410000000  0.5107130000000 1.0
C      1  0.5652650000000  0.4287120000000  0.4729190000000 1.0
C      1  0.5391120000000  0.5841910000000  0.4393160000000 1.0
C      1  0.4895720000000  0.4227240000000  0.4343720000000 1.0
C      1  0.5062640000000  0.5162430000000  0.3905190000000 1.0
C      1  0.4366010000000  0.4804440000000  0.4145340000000 1.0
C      1  0.3997080000000  0.5220250000000  0.4622400000000 1.0
C      1  0.3957500000000  0.4794520000000  0.5274510000000 1.0
C      1  0.4316690000000  0.5194090000000  0.5859270000000 1.0
C      1  0.4963670000000  0.4791540000000  0.6081270000000 1.0
C      1  0.5574310000000  0.5186330000000  0.5893280000000 1.0
C      1  0.6029890000000  0.4834100000000  0.5394260000000 1.0
C      1  0.6017570000000  0.5214670000000  0.4643010000000 1.0
C      1  0.5588300000000  0.4839400000000  0.4141810000000 1.0
C      1  0.4609220000000  0.5117710000000  0.3903550000000 1.0
C      1  0.3926090000000  0.4822080000000  0.4350220000000 1.0
C      1  0.3794310000000  0.5189320000000  0.5064780000000 1.0
C      1  0.4053670000000  0.4846450000000  0.5715180000000 1.0
C      1  0.4658680000000  0.5116970000000  0.6146040000000 1.0
C      1  0.5436120000000  0.4827880000000  0.6131190000000 1.0
C      1  0.6022030000000  0.5238050000000  0.5657140000000 1.0
C      1  0.6167200000000  0.4911550000000  0.4950900000000 1.0
C      1  0.5908640000000  0.5180780000000  0.4147770000000 1.0
C      1  0.5271080000000  0.4736160000000  0.3786400000000 1.0
C      1  0.4542550000000  0.5610570000000  0.4225660000000 1.0
C      1  0.4214190000000  0.4240410000000  0.4582580000000 1.0
C      1  0.4082280000000  0.5692930000000  0.5227480000000 1.0
C      1  0.4432740000000  0.4383340000000  0.5712630000000 1.0
C      1  0.4935070000000  0.5615210000000  0.5930310000000 1.0
C      1  0.5513520000000  0.4390080000000  0.5788980000000 1.0
C      1  0.5759980000000  0.5588250000000  0.5295220000000 1.0
C      1  0.5906730000000  0.4411870000000  0.4768460000000 1.0
C      1  0.5653370000000  0.5757310000000  0.4336930000000 1.0
C      1  0.5011390000000  0.4358760000000  0.4118730000000 1.0
C      1  0.5687100000000  0.4841840000000  0.4915750000000 1.0
C      1  0.5489840000000  0.5100070000000  0.4558140000000 1.0
C      1  0.5106090000000  0.4846680000000  0.4316920000000 1.0
C      1  0.4684900000000  0.5142330000000  0.4385040000000 1.0
C      1  0.4362630000000  0.4917190000000  0.4684640000000 1.0
C      1  0.4291610000000  0.5117600000000  0.5146490000000 1.0
C      1  0.4503610000000  0.4868990000000  0.5523560000000 1.0
C      1  0.4909220000000  0.5134320000000  0.5713670000000 1.0
C      1  0.5328950000000  0.4840570000000  0.5629690000000 1.0
C      1  0.5619210000000  0.5093980000000  0.5321200000000 1.0
C      1  0.4563150000000  0.3960480000000  0.4793170000000 1.0
C      1  0.4531540000000  0.5767510000000  0.5090050000000 1.0
C      1  0.4661040000000  0.4209200000000  0.5328220000000 1.0
C      1  0.4910400000000  0.5764610000000  0.5470460000000 1.0
C      1  0.5247470000000  0.4250060000000  0.5421050000000 1.0
C      1  0.5369070000000  0.5848940000000  0.5106360000000 1.0
C      1  0.5453080000000  0.4325110000000  0.4954760000000 1.0
C      1  0.5318630000000  0.6060150000000  0.4557680000000 1.0
C      1  0.5054030000000  0.4216690000000  0.4605230000000 1.0
C      1  0.4838240000000  0.5751130000000  0.4582690000000 1.0
C      1  0.4814740000000  0.4935340000000  0.4181790000000 1.0
C      1  0.4393560000000  0.5111970000000  0.4461910000000 1.0
C      1  0.4137190000000  0.4981710000000  0.4916120000000 1.0
C      1  0.4258300000000  0.5050200000000  0.5450400000000 1.0
C      1  0.4672380000000  0.4946600000000  0.5795220000000 1.0
C      1  0.5213250000000  0.5052200000000  0.5833030000000 1.0
C      1  0.5614760000000  0.4890360000000  0.5544150000000 1.0
C      1  0.5827560000000  0.5057780000000  0.5079680000000 1.0
C      1  0.5698780000000  0.4911720000000  0.4635010000000 1.0
C      1  0.5379250000000  0.4997800000000  0.4300010000000 1.0
C      1  0.5056420000000  0.4889270000000  0.4616590000000 1.0
C      1  0.4826520000000  0.5088460000000  0.4651120000000 1.0
C      1  0.4614570000000  0.4965430000000  0.4819640000000 1.0
C      1  0.4575880000000  0.5103090000000  0.5069830000000 1.0
C      1  0.4690070000000  0.4921590000000  0.5286650000000 1.0
C      1  0.4919530000000  0.5081610000000  0.5410000000000 1.0
C      1  0.5157220000000  0.4884660000000  0.5376980000000 1.0
C      1  0.5336030000000  0.5051780000000  0.5203320000000 1.0
C      1  0.5383940000000  0.4868930000000  0.4966740000000 1.0
C      1  0.5281590000000  0.5021160000000  0.4741040000000 1.0
C      1  0.5289220000000  0.5551040000000  0.4030930000000 1.0
C      1  0.4529880000000  0.4363100000000  0.4089450000000 1.0
C      1  0.4125240000000  0.5652010000000  0.4486320000000 1.0
C      1  0.4051340000000  0.4424530000000  0.5009640000000 1.0
C      1  0.4206140000000  0.5618320000000  0.5696780000000 1.0
C      1  0.4801110000000  0.4359690000000  0.6004950000000 1.0
C      1  0.5430750000000  0.5620550000000  0.5943700000000 1.0
C      1  0.5944310000000  0.4392910000000  0.5548150000000 1.0
C      1  0.6012650000000  0.5643180000000  0.4840640000000 1.0
C      1  0.5728480000000  0.4405190000000  0.4283540000000 1.0
C      1  0.3893450000000  0.4647490000000  0.5039450000000 1.0
C      1  0.4120160000000  0.5356310000000  0.5725720000000 1.0
C      1  0.4728190000000  0.4619630000000  0.6075440000000 1.0
C      1  0.5409110000000  0.5366610000000  0.6063190000000 1.0
C      1  0.5985080000000  0.4660050000000  0.5623260000000 1.0
C      1  0.6064080000000  0.5374160000000  0.4887800000000 1.0
C      1  0.5805500000000  0.4672510000000  0.4282770000000 1.0
C      1  0.5299710000000  0.5323460000000  0.3875810000000 1.0
C      1  0.4556200000000  0.4629940000000  0.4012080000000 1.0
C      1  0.4061990000000  0.5396550000000  0.4392770000000 1.0
C      1  0.5201150000000  0.4549390000000  0.4228240000000 1.0
C      1  0.4759240000000  0.5416180000000  0.4245210000000 1.0
C      1  0.4261120000000  0.4519520000000  0.4537320000000 1.0
C      1  0.4149250000000  0.5515810000000  0.5017890000000 1.0
C      1  0.4376100000000  0.4573270000000  0.5498740000000 1.0
C      1  0.4769430000000  0.5421200000000  0.5793580000000 1.0
C      1  0.5280690000000  0.4564280000000  0.5770910000000 1.0
C      1  0.5632990000000  0.5379720000000  0.5445660000000 1.0
C      1  0.5842850000000  0.4581650000000  0.5000830000000 1.0
C      1  0.5655560000000  0.5485080000000  0.4425630000000 1.0
C      1  0.5652660000000  0.4417930000000  0.5163370000000 1.0
C      1  0.5548410000000  0.5449600000000  0.4712710000000 1.0
C      1  0.5282490000000  0.4401580000000  0.4480740000000 1.0
C      1  0.4978990000000  0.5551740000000  0.4417770000000 1.0
C      1  0.4560300000000  0.4599400000000  0.4574290000000 1.0
C      1  0.4411960000000  0.5589150000000  0.4888370000000 1.0
C      1  0.4505630000000  0.4439430000000  0.5244080000000 1.0
C      1  0.4688860000000  0.5572390000000  0.5534080000000 1.0
C      1  0.5070660000000  0.4414200000000  0.5592930000000 1.0
C      1  0.5356350000000  0.5473230000000  0.5464680000000 1.0
C      1  0.3839810000000  0.5062390000000  0.5314290000000 1.0
C      1  0.4252460000000  0.4913350000000  0.5913920000000 1.0
C      1  0.4938960000000  0.5064250000000  0.6175600000000 1.0
C      1  0.5670460000000  0.4937120000000  0.6021400000000 1.0
C      1  0.6104240000000  0.5119570000000  0.5415650000000 1.0
C      1  0.6135830000000  0.4949140000000  0.4661180000000 1.0
C      1  0.5729800000000  0.5045590000000  0.3978860000000 1.0
C      1  0.5034170000000  0.4884460000000  0.3804420000000 1.0
C      1  0.4350480000000  0.5072510000000  0.4026380000000 1.0
C      1  0.3852590000000  0.4964600000000  0.4577320000000 1.0
C      1  0.5191160000000  0.5684860000000  0.4254420000000 1.0
C      1  0.4632790000000  0.4357660000000  0.4354080000000 1.0
C      1  0.4349090000000  0.5736390000000  0.4632960000000 1.0
C      1  0.4308680000000  0.4328620000000  0.5039270000000 1.0
C      1  0.4422910000000  0.5721610000000  0.5554690000000 1.0
C      1  0.4879360000000  0.4249640000000  0.5760040000000 1.0
C      1  0.5322150000000  0.5671590000000  0.5687180000000 1.0
C      1  0.5737190000000  0.4274580000000  0.5398760000000 1.0
C      1  0.5731440000000  0.5664880000000  0.4847980000000 1.0
C      1  0.5548310000000  0.4295170000000  0.4466630000000 1.0
C      1  0.3928310000000  0.5235190000000  0.5538890000000 1.0
C      1  0.4453470000000  0.4712590000000  0.6012110000000 1.0
C      1  0.5138680000000  0.5278540000000  0.6137070000000 1.0
C      1  0.5816690000000  0.4757690000000  0.5842000000000 1.0
C      1  0.6122100000000  0.5291000000000  0.5170470000000 1.0
C      1  0.6009080000000  0.4741360000000  0.4488280000000 1.0
C      1  0.5547320000000  0.5202650000000  0.3841140000000 1.0
C      1  0.4794620000000  0.4719440000000  0.3861370000000 1.0
C      1  0.4228880000000  0.5300000000000  0.4172010000000 1.0
C      1  0.3805320000000  0.4803800000000  0.4813000000000 1.0
C      1  0.6084270000000  0.4705700000000  0.5134730000000 1.0
C      1  0.5907790000000  0.5330670000000  0.4386910000000 1.0
C      1  0.5406840000000  0.4633650000000  0.4008910000000 1.0
C      1  0.4816090000000  0.5309280000000  0.3962800000000 1.0
C      1  0.4151880000000  0.4666340000000  0.4298120000000 1.0
C      1  0.3936780000000  0.5355950000000  0.4884640000000 1.0
C      1  0.4080030000000  0.4656080000000  0.5503170000000 1.0
C      1  0.4548050000000  0.5321370000000  0.5980560000000 1.0
C      1  0.5221750000000  0.4668640000000  0.6048840000000 1.0
C      1  0.5764060000000  0.5336720000000  0.5708670000000 1.0
C      1  0.4821360000000  0.4253770000000  0.4826340000000 1.0
C      1  0.5201970000000  0.5715160000000  0.4912860000000 1.0
C      1  0.5103510000000  0.6186650000000  0.5256780000000 1.0
C      1  0.4985310000000  0.3760140000000  0.4818020000000 1.0
END
