TITL C-3578207-9274-727 -2.93873738251173e-07 125000 -214.920844775644 0 0 36 (C1) n - 1
REM
REM in /home/bkarasulu/work/CARBON/AIRSS/Generating-Clusters/EDIP-Nigel-Params/with-SteepDescent/Higher-Symm/SD-CG/HFTN-CG
REM
REM
REM
REM
REM
REM ./C.cell (12c818d87b63d06a65506943cc24bca4)
REM
REM compiler GCC version 9.2.1 20190827 (Red Hat 9.2.1-1)
REM options -cpp -mtune=generic -march=x86-64 -g -O0 -fpre-include=/usr/include/finclude/math-vector-fortran.h
REM seed 64953811 -281312774 -1279640231 6308678 -1105350534 1676906109 233109420 139643370 -1930351524 1096403842 -1812027033 1006055409 76971427 -254634553 -346984289 358787161 -569257267 57483084 -572143597 2096954876 274882090 661775603 752466904 685425843 -1054609869 -910124446 -468958680 -880289927 564387274 923522256 65814171 -2144389764 1539545788
REM
CELL 1.54180   50.00000   50.00000   50.00000   90.00000   90.00000   90.00000
LATT -1
SFAC C  
C      1  0.5319510000000  0.5271050000000  0.4807690000000 1.0
C      1  0.4715780000000  0.4609020000000  0.4858770000000 1.0
C      1  0.4760120000000  0.5347260000000  0.5192650000000 1.0
C      1  0.4610180000000  0.4673100000000  0.5440950000000 1.0
C      1  0.4909960000000  0.4698680000000  0.5467240000000 1.0
C      1  0.5651930000000  0.5160140000000  0.5217750000000 1.0
C      1  0.4729930000000  0.5129570000000  0.5381000000000 1.0
C      1  0.5651960000000  0.4926200000000  0.5067070000000 1.0
C      1  0.4292560000000  0.5253720000000  0.5138010000000 1.0
C      1  0.4258440000000  0.5035150000000  0.5298980000000 1.0
C      1  0.4575400000000  0.5306870000000  0.4751710000000 1.0
C      1  0.4566140000000  0.4444590000000  0.5276640000000 1.0
C      1  0.4848420000000  0.5366950000000  0.4675740000000 1.0
C      1  0.4704520000000  0.4829640000000  0.4690720000000 1.0
C      1  0.5167800000000  0.5019360000000  0.5186680000000 1.0
C      1  0.4972680000000  0.4924530000000  0.4624350000000 1.0
C      1  0.5116420000000  0.4709970000000  0.4478900000000 1.0
C      1  0.5382820000000  0.5214390000000  0.5279110000000 1.0
C      1  0.5281560000000  0.4675770000000  0.4816870000000 1.0
C      1  0.5036420000000  0.4546490000000  0.5239840000000 1.0
C      1  0.4517760000000  0.4937430000000  0.5348890000000 1.0
C      1  0.5617700000000  0.4961230000000  0.4787390000000 1.0
C      1  0.5495220000000  0.5039480000000  0.4545080000000 1.0
C      1  0.4977680000000  0.4986510000000  0.5422060000000 1.0
C      1  0.5255350000000  0.4726640000000  0.5108190000000 1.0
C      1  0.4517840000000  0.5032520000000  0.4723650000000 1.0
C      1  0.5192430000000  0.4487840000000  0.4630080000000 1.0
C      1  0.4514850000000  0.5394420000000  0.5030270000000 1.0
C      1  0.5000090000000  0.5195950000000  0.4492890000000 1.0
C      1  0.5286990000000  0.5482850000000  0.5191760000000 1.0
C      1  0.5400770000000  0.5525680000000  0.4932300000000 1.0
C      1  0.5296170000000  0.5260440000000  0.4499140000000 1.0
C      1  0.5530670000000  0.4703840000000  0.5199830000000 1.0
C      1  0.5057780000000  0.5164300000000  0.4926100000000 1.0
C      1  0.5003210000000  0.5493490000000  0.5180920000000 1.0
C      1  0.4782920000000  0.4464950000000  0.5090770000000 1.0
END
