TITL C-3577084-3642-582 1.03233465163992e-06 125000 -607.743985421455 0 0 99 (C1) n - 1
REM
REM in /home/bkarasulu/work/CARBON/AIRSS/Generating-Clusters/EDIP-Nigel-Params/with-SteepDescent/Higher-Symm/SD-CG/HFTN-CG
REM
REM
REM
REM
REM
REM ./C.cell (12c818d87b63d06a65506943cc24bca4)
REM
REM compiler GCC version 9.2.1 20190827 (Red Hat 9.2.1-1)
REM options -cpp -mtune=generic -march=x86-64 -g -O0 -fpre-include=/usr/include/finclude/math-vector-fortran.h
REM seed 773178949 1875945134 -110789332 -1033524724 530939396 1608262548 -178047732 1004567084 815765598 -185655839 -2145952594 -1291981397 -115093485 1236115654 942436117 1399245585 1359436637 841636377 1019576242 -1779024944 1545354522 146998105 1588334149 -967675969 -464076027 257672136 170787967 -3976029 -171767550 -431528965 1419213302 -1828954978 -1633981809
REM
CELL 1.54180   50.00000   50.00000   50.00000   90.00000   90.00000   90.00000
LATT -1
SFAC C  
C      1  0.5339040000000  0.4361740000000  0.5495160000000 1.0
C      1  0.5337270000000  0.5630660000000  0.5503640000000 1.0
C      1  0.4197100000000  0.5142400000000  0.5135760000000 1.0
C      1  0.4197850000000  0.4851000000000  0.5136220000000 1.0
C      1  0.4169950000000  0.4708870000000  0.5375820000000 1.0
C      1  0.4169150000000  0.5284900000000  0.5375120000000 1.0
C      1  0.5004170000000  0.5510210000000  0.4440800000000 1.0
C      1  0.4996700000000  0.4471710000000  0.4441430000000 1.0
C      1  0.5090010000000  0.4843800000000  0.4043270000000 1.0
C      1  0.5082980000000  0.5132460000000  0.4037960000000 1.0
C      1  0.4922350000000  0.5232630000000  0.4508240000000 1.0
C      1  0.4924620000000  0.4753810000000  0.4506490000000 1.0
C      1  0.5588230000000  0.5286210000000  0.5768310000000 1.0
C      1  0.5590060000000  0.4704350000000  0.5763320000000 1.0
C      1  0.5089510000000  0.5537650000000  0.5648660000000 1.0
C      1  0.5091830000000  0.4451810000000  0.5644090000000 1.0
C      1  0.5284270000000  0.4700740000000  0.4195820000000 1.0
C      1  0.5280740000000  0.5284640000000  0.4176720000000 1.0
C      1  0.4561100000000  0.5567940000000  0.5452050000000 1.0
C      1  0.4561190000000  0.4424380000000  0.5452740000000 1.0
C      1  0.5646190000000  0.4851830000000  0.5117400000000 1.0
C      1  0.5645010000000  0.5147720000000  0.5119700000000 1.0
C      1  0.5115880000000  0.5294250000000  0.5819390000000 1.0
C      1  0.5118110000000  0.4693250000000  0.5817120000000 1.0
C      1  0.4670670000000  0.5285890000000  0.4666720000000 1.0
C      1  0.4671160000000  0.4704250000000  0.4666460000000 1.0
C      1  0.5060390000000  0.5938680000000  0.4680420000000 1.0
C      1  0.5051310000000  0.4045840000000  0.4683290000000 1.0
C      1  0.4337160000000  0.5283510000000  0.4392880000000 1.0
C      1  0.4337040000000  0.4708280000000  0.4393820000000 1.0
C      1  0.4546880000000  0.5662380000000  0.5170990000000 1.0
C      1  0.4545870000000  0.4329600000000  0.5172290000000 1.0
C      1  0.5294580000000  0.5570330000000  0.4441420000000 1.0
C      1  0.5277010000000  0.4395880000000  0.4426830000000 1.0
C      1  0.4877650000000  0.5134650000000  0.5831920000000 1.0
C      1  0.4878910000000  0.4851130000000  0.5832290000000 1.0
C      1  0.4959870000000  0.5822240000000  0.5127710000000 1.0
C      1  0.4959260000000  0.4169950000000  0.5130380000000 1.0
C      1  0.5428410000000  0.4856600000000  0.4384730000000 1.0
C      1  0.5418470000000  0.5145910000000  0.4382390000000 1.0
C      1  0.4428930000000  0.5303830000000  0.5478360000000 1.0
C      1  0.4429900000000  0.4689030000000  0.5478530000000 1.0
C      1  0.5683960000000  0.4846560000000  0.4796870000000 1.0
C      1  0.5682320000000  0.5158130000000  0.4798770000000 1.0
C      1  0.5322610000000  0.4204250000000  0.4656450000000 1.0
C      1  0.5330100000000  0.5781490000000  0.4666110000000 1.0
C      1  0.4898500000000  0.5669310000000  0.4676640000000 1.0
C      1  0.4892100000000  0.4317440000000  0.4679920000000 1.0
C      1  0.5750090000000  0.4330310000000  0.5186120000000 1.0
C      1  0.5749510000000  0.5667820000000  0.5196960000000 1.0
C      1  0.4428150000000  0.5546400000000  0.4927070000000 1.0
C      1  0.4427310000000  0.4446560000000  0.4928750000000 1.0
C      1  0.4265500000000  0.4849700000000  0.4643710000000 1.0
C      1  0.4264260000000  0.5142870000000  0.4643190000000 1.0
C      1  0.5486780000000  0.4727990000000  0.4631090000000 1.0
C      1  0.5478910000000  0.5284670000000  0.4630980000000 1.0
C      1  0.5414490000000  0.5219610000000  0.5297090000000 1.0
C      1  0.5416580000000  0.4774430000000  0.5293790000000 1.0
C      1  0.4295870000000  0.5282400000000  0.4902030000000 1.0
C      1  0.4296290000000  0.4710700000000  0.4902640000000 1.0
C      1  0.4468650000000  0.4459530000000  0.4440420000000 1.0
C      1  0.4470670000000  0.5531450000000  0.4438950000000 1.0
C      1  0.5360620000000  0.5140270000000  0.5821650000000 1.0
C      1  0.5361670000000  0.4848550000000  0.5818430000000 1.0
C      1  0.4634950000000  0.5147690000000  0.5328060000000 1.0
C      1  0.4635880000000  0.4844220000000  0.5327790000000 1.0
C      1  0.5473290000000  0.5722240000000  0.5173540000000 1.0
C      1  0.5474450000000  0.4271730000000  0.5164810000000 1.0
C      1  0.4446830000000  0.4861640000000  0.4185540000000 1.0
C      1  0.4446800000000  0.5128530000000  0.4185800000000 1.0
C      1  0.5009200000000  0.5256090000000  0.4977710000000 1.0
C      1  0.5011010000000  0.4733170000000  0.4976120000000 1.0
C      1  0.5127070000000  0.4845710000000  0.5238770000000 1.0
C      1  0.5125800000000  0.5144280000000  0.5239940000000 1.0
C      1  0.5134120000000  0.4844720000000  0.4716060000000 1.0
C      1  0.5129240000000  0.5143710000000  0.4718380000000 1.0
C      1  0.4718430000000  0.4833380000000  0.4949190000000 1.0
C      1  0.4717020000000  0.5156630000000  0.4949820000000 1.0
C      1  0.5896150000000  0.4803780000000  0.5271010000000 1.0
C      1  0.5894980000000  0.5193690000000  0.5274260000000 1.0
C      1  0.4566570000000  0.5659220000000  0.4683620000000 1.0
C      1  0.4562810000000  0.4331750000000  0.4685800000000 1.0
C      1  0.5037940000000  0.5577560000000  0.4955390000000 1.0
C      1  0.5036520000000  0.4411790000000  0.4953900000000 1.0
C      1  0.5538200000000  0.4590170000000  0.5499240000000 1.0
C      1  0.5536220000000  0.5402240000000  0.5505140000000 1.0
C      1  0.5809470000000  0.5464160000000  0.5383270000000 1.0
C      1  0.5811210000000  0.4531020000000  0.5375420000000 1.0
C      1  0.5007720000000  0.6044850000000  0.4947720000000 1.0
C      1  0.5007220000000  0.3944300000000  0.4953650000000 1.0
C      1  0.5333970000000  0.4362620000000  0.4917450000000 1.0
C      1  0.5336630000000  0.5626330000000  0.4926640000000 1.0
C      1  0.4689220000000  0.4088760000000  0.5126560000000 1.0
C      1  0.4690250000000  0.5903000000000  0.5124140000000 1.0
C      1  0.4820400000000  0.4395620000000  0.5574010000000 1.0
C      1  0.4819280000000  0.5595190000000  0.5575580000000 1.0
C      1  0.4903660000000  0.5191630000000  0.5454200000000 1.0
C      1  0.4904930000000  0.4799370000000  0.5453550000000 1.0
C      1  0.4847740000000  0.4994590000000  0.4290840000000 1.0
END
