TITL C-3578202-4305-817 -6.70473463320284e-07 125000 -1107.80636871654 0 0 180 (C1) n - 1
REM
REM in /home/bkarasulu/work/CARBON/AIRSS/Generating-Clusters/EDIP-Nigel-Params/with-SteepDescent/Higher-Symm/SD-CG/HFTN-CG
REM
REM
REM
REM
REM
REM ./C.cell (12c818d87b63d06a65506943cc24bca4)
REM
REM compiler GCC version 9.2.1 20190827 (Red Hat 9.2.1-1)
REM options -cpp -mtune=generic -march=x86-64 -g -O0 -fpre-include=/usr/include/finclude/math-vector-fortran.h
REM seed 308711075 -738687388 1818784226 -536038312 2125494268 1597966308 2003784343 432600917 32083017 246638299 1130355804 69828685 -1487153769 -1015461499 1981042311 102113263 2104498954 899828326 1054754897 186930618 1006572124 564406022 741490495 2078683468 337695814 1093235574 1707238673 -1744507271 332743613 1529350092 -1970007166 -23880169 804008613
REM
CELL 1.54180   50.00000   50.00000   50.00000   90.00000   90.00000   90.00000
LATT -1
SFAC C  
C      1  0.5433860000000  0.4330860000000  0.5069800000000 1.0
C      1  0.5762400000000  0.4778040000000  0.5078000000000 1.0
C      1  0.5711870000000  0.5301230000000  0.5060610000000 1.0
C      1  0.5320340000000  0.5688180000000  0.5068150000000 1.0
C      1  0.4794970000000  0.5758760000000  0.5075700000000 1.0
C      1  0.4355670000000  0.5464420000000  0.5079510000000 1.0
C      1  0.4206970000000  0.4955410000000  0.5085830000000 1.0
C      1  0.4431500000000  0.4481880000000  0.5069820000000 1.0
C      1  0.4919420000000  0.4225020000000  0.5082270000000 1.0
C      1  0.4752920000000  0.5334910000000  0.4091400000000 1.0
C      1  0.4604450000000  0.5090830000000  0.4101530000000 1.0
C      1  0.4629400000000  0.4806120000000  0.4082840000000 1.0
C      1  0.4839550000000  0.4612170000000  0.4095990000000 1.0
C      1  0.5125200000000  0.4599730000000  0.4098370000000 1.0
C      1  0.5350460000000  0.4775220000000  0.4105600000000 1.0
C      1  0.5414830000000  0.5054020000000  0.4094340000000 1.0
C      1  0.5287170000000  0.5311000000000  0.4089270000000 1.0
C      1  0.5024150000000  0.5423690000000  0.4089850000000 1.0
C      1  0.5881100000000  0.5051280000000  0.5217300000000 1.0
C      1  0.5619520000000  0.5581560000000  0.5210260000000 1.0
C      1  0.5086140000000  0.5866120000000  0.5208950000000 1.0
C      1  0.4496320000000  0.5732980000000  0.5222200000000 1.0
C      1  0.4135840000000  0.5257670000000  0.5211750000000 1.0
C      1  0.4190740000000  0.4653110000000  0.5221010000000 1.0
C      1  0.4600450000000  0.4235050000000  0.5210380000000 1.0
C      1  0.5207870000000  0.4136520000000  0.5217730000000 1.0
C      1  0.5711040000000  0.4465220000000  0.5209160000000 1.0
C      1  0.4792770000000  0.4263910000000  0.5673790000000 1.0
C      1  0.5331550000000  0.4278960000000  0.5711360000000 1.0
C      1  0.5731170000000  0.4647090000000  0.5681810000000 1.0
C      1  0.5765810000000  0.5184130000000  0.5720510000000 1.0
C      1  0.5434320000000  0.5630450000000  0.5698680000000 1.0
C      1  0.4923790000000  0.5795800000000  0.5693220000000 1.0
C      1  0.4414520000000  0.5570940000000  0.5726490000000 1.0
C      1  0.4201000000000  0.5079310000000  0.5677740000000 1.0
C      1  0.4367570000000  0.4558000000000  0.5716770000000 1.0
C      1  0.5217010000000  0.4493650000000  0.4613740000000 1.0
C      1  0.5488700000000  0.4750150000000  0.4618620000000 1.0
C      1  0.5532770000000  0.5104800000000  0.4603810000000 1.0
C      1  0.5303120000000  0.5418410000000  0.4623830000000 1.0
C      1  0.4969790000000  0.5529720000000  0.4583930000000 1.0
C      1  0.4643690000000  0.5392780000000  0.4598830000000 1.0
C      1  0.4477990000000  0.5081660000000  0.4612700000000 1.0
C      1  0.4553360000000  0.4737430000000  0.4632710000000 1.0
C      1  0.4857920000000  0.4498250000000  0.4648030000000 1.0
C      1  0.4298850000000  0.4234670000000  0.4390270000000 1.0
C      1  0.4952040000000  0.3956680000000  0.4392780000000 1.0
C      1  0.5645610000000  0.4168090000000  0.4386910000000 1.0
C      1  0.6027550000000  0.4774040000000  0.4386190000000 1.0
C      1  0.5925260000000  0.5490480000000  0.4386190000000 1.0
C      1  0.5396830000000  0.5967030000000  0.4389060000000 1.0
C      1  0.4677840000000  0.5999530000000  0.4381520000000 1.0
C      1  0.4117620000000  0.5558750000000  0.4383180000000 1.0
C      1  0.3967070000000  0.4867170000000  0.4384870000000 1.0
C      1  0.4444670000000  0.4400620000000  0.4213400000000 1.0
C      1  0.4961380000000  0.4182720000000  0.4221470000000 1.0
C      1  0.5498020000000  0.4348420000000  0.4221970000000 1.0
C      1  0.5798570000000  0.4817950000000  0.4222310000000 1.0
C      1  0.5730510000000  0.5375880000000  0.4213300000000 1.0
C      1  0.5319040000000  0.5759430000000  0.4211500000000 1.0
C      1  0.4755640000000  0.5786660000000  0.4208610000000 1.0
C      1  0.4315590000000  0.5442530000000  0.4214430000000 1.0
C      1  0.4192490000000  0.4903540000000  0.4216150000000 1.0
C      1  0.5391030000000  0.4804760000000  0.5383530000000 1.0
C      1  0.5423830000000  0.5069740000000  0.5335280000000 1.0
C      1  0.5291380000000  0.5299370000000  0.5341010000000 1.0
C      1  0.5032610000000  0.5349580000000  0.5339280000000 1.0
C      1  0.4774120000000  0.5300390000000  0.5372050000000 1.0
C      1  0.4608290000000  0.5084630000000  0.5403620000000 1.0
C      1  0.4719720000000  0.4846240000000  0.5338840000000 1.0
C      1  0.4894610000000  0.4643060000000  0.5382070000000 1.0
C      1  0.5147840000000  0.4705380000000  0.5315770000000 1.0
C      1  0.4901790000000  0.6324450000000  0.5136510000000 1.0
C      1  0.4052830000000  0.5947160000000  0.5139570000000 1.0
C      1  0.3658950000000  0.5146280000000  0.5118800000000 1.0
C      1  0.3906680000000  0.4250650000000  0.5139830000000 1.0
C      1  0.4612000000000  0.3740050000000  0.5140860000000 1.0
C      1  0.5540970000000  0.3772230000000  0.5145190000000 1.0
C      1  0.6200360000000  0.4397570000000  0.5132140000000 1.0
C      1  0.6285240000000  0.5335110000000  0.5146260000000 1.0
C      1  0.5753750000000  0.6060680000000  0.5157360000000 1.0
C      1  0.4342010000000  0.5152480000000  0.4195930000000 1.0
C      1  0.4385430000000  0.4685410000000  0.4175270000000 1.0
C      1  0.4733660000000  0.4362610000000  0.4186660000000 1.0
C      1  0.5205890000000  0.4342610000000  0.4195840000000 1.0
C      1  0.5577430000000  0.4629070000000  0.4200620000000 1.0
C      1  0.5684180000000  0.5086780000000  0.4187060000000 1.0
C      1  0.5471760000000  0.5510460000000  0.4179810000000 1.0
C      1  0.5034130000000  0.5695520000000  0.4180050000000 1.0
C      1  0.4587300000000  0.5547980000000  0.4187940000000 1.0
C      1  0.5187850000000  0.5442310000000  0.4936220000000 1.0
C      1  0.4864220000000  0.5483750000000  0.4957920000000 1.0
C      1  0.4591770000000  0.5299120000000  0.4969330000000 1.0
C      1  0.4495570000000  0.4987660000000  0.4986900000000 1.0
C      1  0.4611480000000  0.4699520000000  0.4939320000000 1.0
C      1  0.4959160000000  0.4504800000000  0.4966990000000 1.0
C      1  0.5260350000000  0.4540780000000  0.4924280000000 1.0
C      1  0.5491920000000  0.4852520000000  0.4954470000000 1.0
C      1  0.5483030000000  0.5154970000000  0.4910260000000 1.0
C      1  0.5911600000000  0.5022020000000  0.5528640000000 1.0
C      1  0.5652810000000  0.5565240000000  0.5523500000000 1.0
C      1  0.5124780000000  0.5891270000000  0.5513170000000 1.0
C      1  0.4512740000000  0.5763970000000  0.5531900000000 1.0
C      1  0.4095760000000  0.5287230000000  0.5512940000000 1.0
C      1  0.4170630000000  0.4663700000000  0.5530130000000 1.0
C      1  0.4562440000000  0.4213870000000  0.5515640000000 1.0
C      1  0.5182640000000  0.4116310000000  0.5524910000000 1.0
C      1  0.5744090000000  0.4416190000000  0.5512510000000 1.0
C      1  0.4933690000000  0.5493440000000  0.5733550000000 1.0
C      1  0.4615200000000  0.5341830000000  0.5788330000000 1.0
C      1  0.4509210000000  0.5059940000000  0.5674130000000 1.0
C      1  0.4620380000000  0.4740330000000  0.5780570000000 1.0
C      1  0.4885510000000  0.4557990000000  0.5660150000000 1.0
C      1  0.5212810000000  0.4561430000000  0.5778310000000 1.0
C      1  0.5449880000000  0.4774180000000  0.5667040000000 1.0
C      1  0.5471470000000  0.5091850000000  0.5774710000000 1.0
C      1  0.5253260000000  0.5389930000000  0.5771980000000 1.0
C      1  0.4982210000000  0.5428060000000  0.6102720000000 1.0
C      1  0.4720830000000  0.5296690000000  0.6067760000000 1.0
C      1  0.4696120000000  0.5033970000000  0.6154170000000 1.0
C      1  0.4688430000000  0.4771210000000  0.6069160000000 1.0
C      1  0.4910470000000  0.4622220000000  0.6140300000000 1.0
C      1  0.5177770000000  0.4614400000000  0.6069180000000 1.0
C      1  0.5322520000000  0.4832270000000  0.6157400000000 1.0
C      1  0.5390150000000  0.5083990000000  0.6061060000000 1.0
C      1  0.5238870000000  0.5310020000000  0.6152460000000 1.0
C      1  0.4691230000000  0.5939260000000  0.5647860000000 1.0
C      1  0.4156910000000  0.5520580000000  0.5641290000000 1.0
C      1  0.4027320000000  0.4865580000000  0.5651820000000 1.0
C      1  0.4347970000000  0.4282730000000  0.5674310000000 1.0
C      1  0.4949200000000  0.4036280000000  0.5644390000000 1.0
C      1  0.5595340000000  0.4226940000000  0.5643580000000 1.0
C      1  0.5972060000000  0.4777960000000  0.5641580000000 1.0
C      1  0.5853710000000  0.5441820000000  0.5668080000000 1.0
C      1  0.5370150000000  0.5892040000000  0.5634790000000 1.0
C      1  0.3749630000000  0.5042260000000  0.4878310000000 1.0
C      1  0.4017050000000  0.4254740000000  0.4885130000000 1.0
C      1  0.4727800000000  0.3792550000000  0.4894550000000 1.0
C      1  0.5579490000000  0.3881180000000  0.4893400000000 1.0
C      1  0.6170760000000  0.4533760000000  0.4892700000000 1.0
C      1  0.6183860000000  0.5389230000000  0.4893940000000 1.0
C      1  0.5648910000000  0.6040820000000  0.4901140000000 1.0
C      1  0.4816100000000  0.6232060000000  0.4889630000000 1.0
C      1  0.4073420000000  0.5837570000000  0.4885420000000 1.0
C      1  0.3872650000000  0.5321600000000  0.5092470000000 1.0
C      1  0.3940000000000  0.4526130000000  0.5127490000000 1.0
C      1  0.4484630000000  0.3983980000000  0.5103530000000 1.0
C      1  0.5281560000000  0.3866810000000  0.5119340000000 1.0
C      1  0.5938150000000  0.4317100000000  0.5089120000000 1.0
C      1  0.6156880000000  0.5090850000000  0.5116140000000 1.0
C      1  0.5811160000000  0.5790910000000  0.5123670000000 1.0
C      1  0.5108310000000  0.6141930000000  0.5103370000000 1.0
C      1  0.4329970000000  0.5958530000000  0.5126150000000 1.0
C      1  0.5115810000000  0.3976500000000  0.4632510000000 1.0
C      1  0.5751500000000  0.4287600000000  0.4631740000000 1.0
C      1  0.6032740000000  0.4938480000000  0.4626680000000 1.0
C      1  0.5811350000000  0.5608710000000  0.4628200000000 1.0
C      1  0.5230040000000  0.5994780000000  0.4627040000000 1.0
C      1  0.4534500000000  0.5916360000000  0.4622310000000 1.0
C      1  0.4058150000000  0.5407720000000  0.4625840000000 1.0
C      1  0.4023210000000  0.4710840000000  0.4623970000000 1.0
C      1  0.4442820000000  0.4159500000000  0.4632890000000 1.0
C      1  0.5895380000000  0.5382240000000  0.4820870000000 1.0
C      1  0.5424460000000  0.5860770000000  0.4825000000000 1.0
C      1  0.4766410000000  0.5946540000000  0.4822010000000 1.0
C      1  0.4216910000000  0.5584480000000  0.4822520000000 1.0
C      1  0.4026500000000  0.4946850000000  0.4824280000000 1.0
C      1  0.4291870000000  0.4350710000000  0.4821970000000 1.0
C      1  0.4885080000000  0.4036620000000  0.4829970000000 1.0
C      1  0.5537840000000  0.4167610000000  0.4824680000000 1.0
C      1  0.5946300000000  0.4717470000000  0.4826790000000 1.0
C      1  0.5762580000000  0.4593550000000  0.4601160000000 1.0
C      1  0.5841750000000  0.5173180000000  0.4589680000000 1.0
C      1  0.5510420000000  0.5660600000000  0.4595410000000 1.0
C      1  0.4965570000000  0.5849000000000  0.4591060000000 1.0
C      1  0.4432750000000  0.5632150000000  0.4594680000000 1.0
C      1  0.4162530000000  0.5124260000000  0.4598250000000 1.0
C      1  0.4287630000000  0.4566130000000  0.4590040000000 1.0
C      1  0.4743780000000  0.4205690000000  0.4602940000000 1.0
C      1  0.5322890000000  0.4196610000000  0.4596810000000 1.0
END
