TITL C-3578205-846-669 -3.86087437672225e-06 125000 -1123.35251692844 0 0 180 (C2) n - 1
REM
REM in /home/bkarasulu/work/CARBON/AIRSS/Generating-Clusters/EDIP-Nigel-Params/with-SteepDescent/Higher-Symm/SD-CG/HFTN-CG
REM
REM
REM
REM
REM
REM ./C.cell (12c818d87b63d06a65506943cc24bca4)
REM
REM compiler GCC version 9.2.1 20190827 (Red Hat 9.2.1-1)
REM options -cpp -mtune=generic -march=x86-64 -g -O0 -fpre-include=/usr/include/finclude/math-vector-fortran.h
REM seed 273570047 -1500914580 576610900 1303760131 -1517501422 -773081780 1346511478 285469744 2022198083 -2047186850 -1109319114 -1243908601 -1036893762 -878922216 -619456945 1895822581 127559131 968390065 678740516 83178309 1063192669 -1272615176 -1969165242 -646825373 -537220116 947257205 -1201517221 -877453198 199946773 205025482 -1144702939 96687532 187124592
REM
CELL 1.54180   50.00000   50.00000   50.00000   90.00000   90.00000   90.00000
LATT -1
SFAC C  
C      1  0.4660470000000  0.5085930000000  0.5976130000000 1.0
C      1  0.5339510000000  0.4914060000000  0.5976140000000 1.0
C      1  0.5340500000000  0.5085220000000  0.4025610000000 1.0
C      1  0.4659530000000  0.4914790000000  0.4025600000000 1.0
C      1  0.5365400000000  0.5900140000000  0.4538460000000 1.0
C      1  0.4634610000000  0.4099860000000  0.4538440000000 1.0
C      1  0.4634170000000  0.5902320000000  0.5459970000000 1.0
C      1  0.5365820000000  0.4097670000000  0.5459970000000 1.0
C      1  0.6093800000000  0.5015610000000  0.4719920000000 1.0
C      1  0.3906210000000  0.4984390000000  0.4719890000000 1.0
C      1  0.3904960000000  0.5013810000000  0.5282220000000 1.0
C      1  0.6095030000000  0.4986190000000  0.5282250000000 1.0
C      1  0.5662990000000  0.5266440000000  0.5810260000000 1.0
C      1  0.4336990000000  0.4733540000000  0.5810240000000 1.0
C      1  0.4338430000000  0.5272520000000  0.4192270000000 1.0
C      1  0.5661590000000  0.4727490000000  0.4192280000000 1.0
C      1  0.4383220000000  0.5830160000000  0.4788010000000 1.0
C      1  0.5616780000000  0.4169850000000  0.4788010000000 1.0
C      1  0.5618900000000  0.5830870000000  0.5210690000000 1.0
C      1  0.4381100000000  0.4169130000000  0.5210660000000 1.0
C      1  0.4892410000000  0.5870710000000  0.5103410000000 1.0
C      1  0.5107590000000  0.4129290000000  0.5103400000000 1.0
C      1  0.5103340000000  0.5871450000000  0.4892090000000 1.0
C      1  0.4896670000000  0.4128560000000  0.4892070000000 1.0
C      1  0.4398640000000  0.4944390000000  0.5335790000000 1.0
C      1  0.5601350000000  0.5055600000000  0.5335810000000 1.0
C      1  0.5598630000000  0.4946500000000  0.4669670000000 1.0
C      1  0.4401370000000  0.5053510000000  0.4669660000000 1.0
C      1  0.4617160000000  0.4973640000000  0.4464200000000 1.0
C      1  0.5382860000000  0.5026370000000  0.4464210000000 1.0
C      1  0.5383250000000  0.4967070000000  0.5537360000000 1.0
C      1  0.4616740000000  0.5032920000000  0.5537350000000 1.0
C      1  0.5540850000000  0.5349610000000  0.4931260000000 1.0
C      1  0.4459150000000  0.4650390000000  0.4931240000000 1.0
C      1  0.4462320000000  0.5342980000000  0.5073820000000 1.0
C      1  0.5537680000000  0.4657020000000  0.5073830000000 1.0
C      1  0.5507540000000  0.6004370000000  0.4787650000000 1.0
C      1  0.4492460000000  0.3995640000000  0.4787620000000 1.0
C      1  0.4490520000000  0.6007000000000  0.5211460000000 1.0
C      1  0.5509470000000  0.3993000000000  0.5211460000000 1.0
C      1  0.4195850000000  0.5192850000000  0.5708920000000 1.0
C      1  0.5804130000000  0.4807140000000  0.5708940000000 1.0
C      1  0.5801690000000  0.5192000000000  0.4293420000000 1.0
C      1  0.4198330000000  0.4808010000000  0.4293400000000 1.0
C      1  0.5029760000000  0.4266220000000  0.4652190000000 1.0
C      1  0.4970250000000  0.5733780000000  0.4652210000000 1.0
C      1  0.4971270000000  0.4262650000000  0.5343470000000 1.0
C      1  0.5028730000000  0.5737350000000  0.5343480000000 1.0
C      1  0.4900040000000  0.5131670000000  0.5524080000000 1.0
C      1  0.5099950000000  0.4868320000000  0.5524080000000 1.0
C      1  0.5101860000000  0.5129990000000  0.4477000000000 1.0
C      1  0.4898150000000  0.4870020000000  0.4476990000000 1.0
C      1  0.5396590000000  0.5233020000000  0.5649110000000 1.0
C      1  0.4603400000000  0.4766970000000  0.5649100000000 1.0
C      1  0.4609430000000  0.5234930000000  0.4348760000000 1.0
C      1  0.5390590000000  0.4765080000000  0.4348770000000 1.0
C      1  0.5168370000000  0.4506100000000  0.4746100000000 1.0
C      1  0.4831640000000  0.5493910000000  0.4746110000000 1.0
C      1  0.4830500000000  0.4501190000000  0.5253160000000 1.0
C      1  0.5169500000000  0.5498800000000  0.5253180000000 1.0
C      1  0.4676930000000  0.4540440000000  0.4748210000000 1.0
C      1  0.5323070000000  0.5459570000000  0.4748220000000 1.0
C      1  0.5320500000000  0.4541390000000  0.5251930000000 1.0
C      1  0.4679490000000  0.5458600000000  0.5251930000000 1.0
C      1  0.4547930000000  0.4879390000000  0.5086590000000 1.0
C      1  0.5452070000000  0.5120610000000  0.5086600000000 1.0
C      1  0.5449280000000  0.4888710000000  0.4921820000000 1.0
C      1  0.4550720000000  0.5111290000000  0.4921810000000 1.0
C      1  0.4275160000000  0.4752920000000  0.4724190000000 1.0
C      1  0.5724840000000  0.5247080000000  0.4724210000000 1.0
C      1  0.5725290000000  0.4755600000000  0.5278580000000 1.0
C      1  0.4274700000000  0.5244400000000  0.5278560000000 1.0
C      1  0.5251100000000  0.4366860000000  0.4229060000000 1.0
C      1  0.4748920000000  0.5633150000000  0.4229070000000 1.0
C      1  0.4747080000000  0.4368060000000  0.5759950000000 1.0
C      1  0.5252900000000  0.5631920000000  0.5759970000000 1.0
C      1  0.4650660000000  0.3857790000000  0.4992450000000 1.0
C      1  0.5349340000000  0.6142210000000  0.4992480000000 1.0
C      1  0.5350520000000  0.3856060000000  0.5005630000000 1.0
C      1  0.4649480000000  0.6143940000000  0.5005640000000 1.0
C      1  0.4138920000000  0.5405550000000  0.4637250000000 1.0
C      1  0.5861090000000  0.4594460000000  0.4637260000000 1.0
C      1  0.5861900000000  0.5407150000000  0.5367080000000 1.0
C      1  0.4138090000000  0.4592850000000  0.5367050000000 1.0
C      1  0.4840730000000  0.4047760000000  0.4312900000000 1.0
C      1  0.5159290000000  0.5952250000000  0.4312920000000 1.0
C      1  0.5158360000000  0.4045250000000  0.5684600000000 1.0
C      1  0.4841620000000  0.5954740000000  0.5684610000000 1.0
C      1  0.5422540000000  0.4597840000000  0.4594060000000 1.0
C      1  0.4577470000000  0.5402170000000  0.4594060000000 1.0
C      1  0.4577450000000  0.4583780000000  0.5411710000000 1.0
C      1  0.5422540000000  0.5416210000000  0.5411730000000 1.0
C      1  0.4021940000000  0.5009300000000  0.5559290000000 1.0
C      1  0.5978050000000  0.4990690000000  0.5559310000000 1.0
C      1  0.5974750000000  0.5009210000000  0.4443820000000 1.0
C      1  0.4025260000000  0.4990800000000  0.4443800000000 1.0
C      1  0.6017070000000  0.4723470000000  0.5138750000000 1.0
C      1  0.3982930000000  0.5276530000000  0.5138730000000 1.0
C      1  0.3982050000000  0.4721180000000  0.4863330000000 1.0
C      1  0.6017950000000  0.5278820000000  0.4863360000000 1.0
C      1  0.4902440000000  0.5396660000000  0.4079460000000 1.0
C      1  0.5097580000000  0.4603360000000  0.4079450000000 1.0
C      1  0.5101960000000  0.5399380000000  0.5916690000000 1.0
C      1  0.4898010000000  0.4600600000000  0.5916680000000 1.0
C      1  0.4119980000000  0.5255940000000  0.4395210000000 1.0
C      1  0.5880030000000  0.4744070000000  0.4395230000000 1.0
C      1  0.5883670000000  0.5256380000000  0.5609470000000 1.0
C      1  0.4116320000000  0.4743610000000  0.5609440000000 1.0
C      1  0.4136430000000  0.4537780000000  0.4284680000000 1.0
C      1  0.5863590000000  0.5462230000000  0.4284710000000 1.0
C      1  0.5863050000000  0.4536230000000  0.5715050000000 1.0
C      1  0.4136930000000  0.5463760000000  0.5715040000000 1.0
C      1  0.5684380000000  0.4192260000000  0.5073480000000 1.0
C      1  0.4315620000000  0.5807730000000  0.5073470000000 1.0
C      1  0.4313680000000  0.4191320000000  0.4925230000000 1.0
C      1  0.5686320000000  0.5808690000000  0.4925260000000 1.0
C      1  0.5294490000000  0.3937110000000  0.4504320000000 1.0
C      1  0.4705520000000  0.6062900000000  0.4504330000000 1.0
C      1  0.4704860000000  0.3935430000000  0.5492660000000 1.0
C      1  0.5295130000000  0.6064560000000  0.5492690000000 1.0
C      1  0.4365600000000  0.5038430000000  0.5904320000000 1.0
C      1  0.5634380000000  0.4961550000000  0.5904340000000 1.0
C      1  0.5633680000000  0.5035630000000  0.4097870000000 1.0
C      1  0.4366340000000  0.4964390000000  0.4097850000000 1.0
C      1  0.3993780000000  0.5241390000000  0.4839970000000 1.0
C      1  0.6006220000000  0.4758610000000  0.4839990000000 1.0
C      1  0.6009110000000  0.5244900000000  0.5163140000000 1.0
C      1  0.3990880000000  0.4755100000000  0.5163110000000 1.0
C      1  0.5745790000000  0.5613840000000  0.4485860000000 1.0
C      1  0.4254220000000  0.4386170000000  0.4485830000000 1.0
C      1  0.4255930000000  0.5613590000000  0.5513280000000 1.0
C      1  0.5744060000000  0.4386400000000  0.5513290000000 1.0
C      1  0.4833020000000  0.5306120000000  0.5811940000000 1.0
C      1  0.5166960000000  0.4693870000000  0.5811940000000 1.0
C      1  0.5169730000000  0.5303130000000  0.4189850000000 1.0
C      1  0.4830290000000  0.4696880000000  0.4189840000000 1.0
C      1  0.5850090000000  0.4387500000000  0.5238060000000 1.0
C      1  0.4149900000000  0.5612490000000  0.5238050000000 1.0
C      1  0.4147230000000  0.4385460000000  0.4760780000000 1.0
C      1  0.5852770000000  0.5614540000000  0.4760810000000 1.0
C      1  0.5558490000000  0.5625090000000  0.5729700000000 1.0
C      1  0.4441490000000  0.4374900000000  0.5729670000000 1.0
C      1  0.4442950000000  0.5617010000000  0.4263810000000 1.0
C      1  0.5557060000000  0.4383000000000  0.4263810000000 1.0
C      1  0.5286730000000  0.4358230000000  0.5006310000000 1.0
C      1  0.4713270000000  0.5641770000000  0.5006320000000 1.0
C      1  0.4712830000000  0.4353760000000  0.4991480000000 1.0
C      1  0.5287170000000  0.5646240000000  0.4991500000000 1.0
C      1  0.4287980000000  0.5661120000000  0.4558630000000 1.0
C      1  0.5712030000000  0.4338890000000  0.4558640000000 1.0
C      1  0.5721100000000  0.5667720000000  0.5441650000000 1.0
C      1  0.4278890000000  0.4332270000000  0.5441620000000 1.0
C      1  0.5234040000000  0.4211640000000  0.5901030000000 1.0
C      1  0.4765930000000  0.5788340000000  0.5901040000000 1.0
C      1  0.4763650000000  0.4215060000000  0.4097530000000 1.0
C      1  0.5236370000000  0.5784950000000  0.4097550000000 1.0
C      1  0.4884860000000  0.5858380000000  0.4404610000000 1.0
C      1  0.5115150000000  0.4141630000000  0.4404600000000 1.0
C      1  0.5115130000000  0.5860210000000  0.5590850000000 1.0
C      1  0.4884860000000  0.4139780000000  0.5590830000000 1.0
C      1  0.4553560000000  0.5620260000000  0.5508220000000 1.0
C      1  0.5446430000000  0.4379730000000  0.5508220000000 1.0
C      1  0.5448220000000  0.5619150000000  0.4491310000000 1.0
C      1  0.4551790000000  0.4380860000000  0.4491290000000 1.0
C      1  0.4552550000000  0.6059580000000  0.4742040000000 1.0
C      1  0.5447450000000  0.3940430000000  0.4742030000000 1.0
C      1  0.5448210000000  0.6059720000000  0.5255390000000 1.0
C      1  0.4551780000000  0.3940270000000  0.5255360000000 1.0
C      1  0.4671280000000  0.5555200000000  0.5774240000000 1.0
C      1  0.5328700000000  0.4444790000000  0.5774240000000 1.0
C      1  0.5330960000000  0.5552580000000  0.4225980000000 1.0
C      1  0.4669050000000  0.4447440000000  0.4225970000000 1.0
C      1  0.4779660000000  0.5166890000000  0.3962160000000 1.0
C      1  0.5220370000000  0.4833130000000  0.3962170000000 1.0
C      1  0.5221610000000  0.5168640000000  0.6035010000000 1.0
C      1  0.4778370000000  0.4831340000000  0.6035010000000 1.0
C      1  0.5068640000000  0.5304110000000  0.4717220000000 1.0
C      1  0.4931360000000  0.4695900000000  0.4717220000000 1.0
C      1  0.4935090000000  0.5305680000000  0.5283850000000 1.0
C      1  0.5064910000000  0.4694310000000  0.5283850000000 1.0
END
