TITL C-3577088-510-78 2.38396060313397e-05 125000 -56.5541299794193 0 0 12 (C2v) n - 1
REM
REM in /home/bkarasulu/work/CARBON/AIRSS/Generating-Clusters/EDIP-Nigel-Params/with-SteepDescent/Higher-Symm/SD-CG/HFTN-CG
REM
REM
REM
REM
REM
REM ./C.cell (12c818d87b63d06a65506943cc24bca4)
REM
REM compiler GCC version 9.2.1 20190827 (Red Hat 9.2.1-1)
REM options -cpp -mtune=generic -march=x86-64 -g -O0 -fpre-include=/usr/include/finclude/math-vector-fortran.h
REM seed 1007739963 -1056293519 1152404028 139853169 912900792 1229737554 -216999568 -1837472696 -290324554 1216953506 1818269284 485855298 1213003709 -1631836216 -329477566 -134238324 283672899 960670712 1245974065 1449792351 228348625 2089756140 1826262818 -351456474 -605382176 155433855 1789914033 1867052625 224208956 1142823132 1723475175 -1082433431 -884242782
REM
CELL 1.54180   50.00000   50.00000   50.00000   90.00000   90.00000   90.00000
LATT -1
SFAC C  
C      1  0.4962830000000  0.4867740000000  0.5740570000000 1.0
C      1  0.4922210000000  0.5671810000000  0.5175870000000 1.0
C      1  0.4889640000000  0.5289750000000  0.4592370000000 1.0
C      1  0.4888900000000  0.4807400000000  0.4518810000000 1.0
C      1  0.4920050000000  0.4268680000000  0.4961870000000 1.0
C      1  0.4905070000000  0.4765910000000  0.4779080000000 1.0
C      1  0.4912990000000  0.4510090000000  0.4876530000000 1.0
C      1  0.4947170000000  0.4906240000000  0.5488270000000 1.0
C      1  0.4914460000000  0.5466840000000  0.5022450000000 1.0
C      1  0.4905820000000  0.5251720000000  0.4853170000000 1.0
C      1  0.4930970000000  0.4946060000000  0.5227340000000 1.0
C      1  0.4914190000000  0.4987320000000  0.4956990000000 1.0
END
