TITL C-3578204-4308-588 -9.77855207671295e-07 125000 -682.019019079966 0 0 109 (C1) n - 1
REM
REM in /home/bkarasulu/work/CARBON/AIRSS/Generating-Clusters/EDIP-Nigel-Params/with-SteepDescent/Higher-Symm/SD-CG/HFTN-CG
REM
REM
REM
REM
REM
REM ./C.cell (12c818d87b63d06a65506943cc24bca4)
REM
REM compiler GCC version 9.2.1 20190827 (Red Hat 9.2.1-1)
REM options -cpp -mtune=generic -march=x86-64 -g -O0 -fpre-include=/usr/include/finclude/math-vector-fortran.h
REM seed 2130665170 1693383572 1595709251 -408548855 -1565748439 -1144657667 -1874922051 -2098677512 1196501791 -811083823 -66276800 -764333772 -1437919973 -266749801 2014140751 -1729154076 779326355 -359914721 1560221761 -1959937635 -569054291 -2146156508 321073778 1967137498 35416898 -678945 1474342054 469564886 415835783 -1430105729 -516523143 1867075232 1031773027
REM
CELL 1.54180   50.00000   50.00000   50.00000   90.00000   90.00000   90.00000
LATT -1
SFAC C  
C      1  0.5394380000000  0.5196860000000  0.4813370000000 1.0
C      1  0.4899780000000  0.5409160000000  0.4685960000000 1.0
C      1  0.4725480000000  0.4980290000000  0.4953470000000 1.0
C      1  0.4799830000000  0.4696450000000  0.4942500000000 1.0
C      1  0.5254600000000  0.4783910000000  0.4988990000000 1.0
C      1  0.5240370000000  0.5076520000000  0.5082800000000 1.0
C      1  0.4952530000000  0.5276890000000  0.5240080000000 1.0
C      1  0.4695460000000  0.5091260000000  0.5220430000000 1.0
C      1  0.4919700000000  0.4612110000000  0.5206150000000 1.0
C      1  0.5309810000000  0.4610350000000  0.5232380000000 1.0
C      1  0.4749460000000  0.4389500000000  0.5640030000000 1.0
C      1  0.5635420000000  0.4633110000000  0.5616140000000 1.0
C      1  0.5454950000000  0.5247780000000  0.5605220000000 1.0
C      1  0.4691980000000  0.5685290000000  0.5642160000000 1.0
C      1  0.4286870000000  0.5014880000000  0.5612500000000 1.0
C      1  0.4863820000000  0.4447310000000  0.4440930000000 1.0
C      1  0.5421620000000  0.4625380000000  0.4354570000000 1.0
C      1  0.5552080000000  0.5356920000000  0.4316170000000 1.0
C      1  0.4742930000000  0.5749770000000  0.4372150000000 1.0
C      1  0.4381870000000  0.5061110000000  0.4355810000000 1.0
C      1  0.4142570000000  0.5133110000000  0.4489230000000 1.0
C      1  0.4668850000000  0.4244860000000  0.4460520000000 1.0
C      1  0.5532040000000  0.4398550000000  0.4489920000000 1.0
C      1  0.5826660000000  0.5370900000000  0.4378890000000 1.0
C      1  0.4831330000000  0.5910260000000  0.4586260000000 1.0
C      1  0.4060710000000  0.5088770000000  0.5462880000000 1.0
C      1  0.4596310000000  0.4187700000000  0.5518550000000 1.0
C      1  0.5738130000000  0.4375140000000  0.5585400000000 1.0
C      1  0.5724380000000  0.5320070000000  0.5518990000000 1.0
C      1  0.4756410000000  0.5878570000000  0.5452300000000 1.0
C      1  0.4792050000000  0.4741030000000  0.4379460000000 1.0
C      1  0.5054120000000  0.4702790000000  0.4783040000000 1.0
C      1  0.5281180000000  0.5085540000000  0.4534230000000 1.0
C      1  0.5093310000000  0.5414220000000  0.4433310000000 1.0
C      1  0.4567000000000  0.5285150000000  0.4303380000000 1.0
C      1  0.4659870000000  0.4674990000000  0.5641280000000 1.0
C      1  0.5158690000000  0.4661160000000  0.5749280000000 1.0
C      1  0.5341950000000  0.5019810000000  0.5412820000000 1.0
C      1  0.5017820000000  0.5298780000000  0.5537850000000 1.0
C      1  0.4478470000000  0.5231540000000  0.5695610000000 1.0
C      1  0.5123710000000  0.4232130000000  0.5376430000000 1.0
C      1  0.5733760000000  0.4811930000000  0.5148960000000 1.0
C      1  0.5284840000000  0.5621770000000  0.5286520000000 1.0
C      1  0.4403610000000  0.5514140000000  0.5275210000000 1.0
C      1  0.4303610000000  0.4642800000000  0.5268770000000 1.0
C      1  0.5080160000000  0.4227670000000  0.4864600000000 1.0
C      1  0.5709470000000  0.4859690000000  0.4673830000000 1.0
C      1  0.5379740000000  0.5502780000000  0.4811650000000 1.0
C      1  0.4540590000000  0.5523960000000  0.4780470000000 1.0
C      1  0.4357990000000  0.4724050000000  0.4725710000000 1.0
C      1  0.4208730000000  0.5078700000000  0.4760260000000 1.0
C      1  0.4552810000000  0.4281020000000  0.4701420000000 1.0
C      1  0.5560640000000  0.4397030000000  0.4775220000000 1.0
C      1  0.5849620000000  0.5315020000000  0.4642270000000 1.0
C      1  0.5030240000000  0.5856900000000  0.4761700000000 1.0
C      1  0.4150130000000  0.5091140000000  0.5198140000000 1.0
C      1  0.4630560000000  0.4229250000000  0.5245140000000 1.0
C      1  0.5615060000000  0.4256370000000  0.5380470000000 1.0
C      1  0.5689000000000  0.5326130000000  0.5237000000000 1.0
C      1  0.4795880000000  0.5782360000000  0.5190810000000 1.0
C      1  0.5371860000000  0.5508720000000  0.4493030000000 1.0
C      1  0.4552480000000  0.5538910000000  0.4462130000000 1.0
C      1  0.4497320000000  0.4810030000000  0.4461520000000 1.0
C      1  0.5070400000000  0.4438790000000  0.4653450000000 1.0
C      1  0.5511130000000  0.4883150000000  0.4452850000000 1.0
C      1  0.5266240000000  0.5472110000000  0.5545770000000 1.0
C      1  0.4511630000000  0.5482240000000  0.5545630000000 1.0
C      1  0.4379050000000  0.4736990000000  0.5548050000000 1.0
C      1  0.5045120000000  0.4386080000000  0.5620750000000 1.0
C      1  0.5529380000000  0.4771600000000  0.5370950000000 1.0
C      1  0.5441340000000  0.5238320000000  0.4059970000000 1.0
C      1  0.4985970000000  0.5630700000000  0.4243730000000 1.0
C      1  0.4742530000000  0.5253090000000  0.4075850000000 1.0
C      1  0.4853120000000  0.4774690000000  0.4086430000000 1.0
C      1  0.5362170000000  0.4700160000000  0.4075720000000 1.0
C      1  0.5408320000000  0.5170480000000  0.5897460000000 1.0
C      1  0.4911500000000  0.5575990000000  0.5784540000000 1.0
C      1  0.4664610000000  0.5181540000000  0.5911650000000 1.0
C      1  0.4737290000000  0.4745390000000  0.5924390000000 1.0
C      1  0.5449960000000  0.4674020000000  0.5835520000000 1.0
C      1  0.4538180000000  0.4518270000000  0.4863440000000 1.0
C      1  0.5372850000000  0.4226110000000  0.4946660000000 1.0
C      1  0.5698660000000  0.5127080000000  0.4799410000000 1.0
C      1  0.5081350000000  0.5589190000000  0.4854750000000 1.0
C      1  0.4380340000000  0.5289330000000  0.4872260000000 1.0
C      1  0.4442560000000  0.4426030000000  0.5127190000000 1.0
C      1  0.5376760000000  0.4314350000000  0.5234310000000 1.0
C      1  0.5788630000000  0.5100220000000  0.5077570000000 1.0
C      1  0.5015810000000  0.5574720000000  0.5146390000000 1.0
C      1  0.4401110000000  0.5245610000000  0.5156970000000 1.0
C      1  0.5201750000000  0.5342950000000  0.3957250000000 1.0
C      1  0.4949480000000  0.5449150000000  0.4017360000000 1.0
C      1  0.4762640000000  0.5002710000000  0.3959120000000 1.0
C      1  0.5096100000000  0.4670340000000  0.3999250000000 1.0
C      1  0.5463560000000  0.4959190000000  0.4019510000000 1.0
C      1  0.5158160000000  0.5241760000000  0.6007210000000 1.0
C      1  0.4901140000000  0.5348930000000  0.5956960000000 1.0
C      1  0.4620430000000  0.4953910000000  0.6064620000000 1.0
C      1  0.5001870000000  0.4688700000000  0.5989800000000 1.0
C      1  0.5496810000000  0.4916900000000  0.5963870000000 1.0
C      1  0.5511010000000  0.5534030000000  0.5110710000000 1.0
C      1  0.4181740000000  0.4826590000000  0.5061980000000 1.0
C      1  0.4917530000000  0.4299960000000  0.5167460000000 1.0
C      1  0.5664730000000  0.4661800000000  0.4885470000000 1.0
C      1  0.4543080000000  0.5686610000000  0.5067620000000 1.0
C      1  0.5085120000000  0.4918380000000  0.5570970000000 1.0
C      1  0.5011340000000  0.4927020000000  0.4581330000000 1.0
C      1  0.4831400000000  0.4822550000000  0.5422690000000 1.0
C      1  0.4884470000000  0.5122540000000  0.4760800000000 1.0
END
