TITL C-3577076-40-148 7.9420290505813e-07 125000 -529.132012384373 0 0 84 (C1) n - 1
REM
REM in /home/bkarasulu/work/CARBON/AIRSS/Generating-Clusters/EDIP-Nigel-Params/with-SteepDescent/Higher-Symm/SD-CG/HFTN-CG
REM
REM
REM
REM
REM
REM ./C.cell (12c818d87b63d06a65506943cc24bca4)
REM
REM compiler GCC version 9.2.1 20190827 (Red Hat 9.2.1-1)
REM options -cpp -mtune=generic -march=x86-64 -g -O0 -fpre-include=/usr/include/finclude/math-vector-fortran.h
REM seed 488115544 -1277916531 -1103094226 1880979932 -711585750 46693519 2085059724 -303354268 1350494337 -1260715375 -1964195379 -560409571 523034705 316108262 483264659 1647402946 -1156093638 1747470166 404591724 1879619747 -1650408846 1374409528 2096589202 -1986707851 -1757491409 169133303 -1447432201 -331476026 -1429109564 -421730099 2142203443 2451228 -667958945
REM
CELL 1.54180   50.00000   50.00000   50.00000   90.00000   90.00000   90.00000
LATT -1
SFAC C  
C      1  0.5711910000000  0.5427580000000  0.5126630000000 1.0
C      1  0.5464400000000  0.5424630000000  0.4449170000000 1.0
C      1  0.4754680000000  0.5426060000000  0.4319550000000 1.0
C      1  0.4291310000000  0.5420240000000  0.4871260000000 1.0
C      1  0.4539640000000  0.5417850000000  0.5549710000000 1.0
C      1  0.5247960000000  0.5425920000000  0.5680170000000 1.0
C      1  0.4740890000000  0.4054170000000  0.4926120000000 1.0
C      1  0.4817450000000  0.4149820000000  0.5179180000000 1.0
C      1  0.5068460000000  0.4056160000000  0.5264660000000 1.0
C      1  0.5247870000000  0.4153890000000  0.5071450000000 1.0
C      1  0.5197880000000  0.4057910000000  0.4811860000000 1.0
C      1  0.4939430000000  0.4151260000000  0.4752260000000 1.0
C      1  0.4693170000000  0.4960220000000  0.5590870000000 1.0
C      1  0.5343110000000  0.4967800000000  0.5566530000000 1.0
C      1  0.5664930000000  0.4967600000000  0.4978220000000 1.0
C      1  0.5317260000000  0.4968990000000  0.4420020000000 1.0
C      1  0.4643540000000  0.4965410000000  0.4426280000000 1.0
C      1  0.4336470000000  0.4963050000000  0.5011700000000 1.0
C      1  0.4329590000000  0.4587930000000  0.5296710000000 1.0
C      1  0.4925000000000  0.4566990000000  0.5741480000000 1.0
C      1  0.5591480000000  0.4593000000000  0.5434070000000 1.0
C      1  0.5674910000000  0.4576610000000  0.4698580000000 1.0
C      1  0.5078190000000  0.4592240000000  0.4272240000000 1.0
C      1  0.4398750000000  0.4572700000000  0.4565870000000 1.0
C      1  0.5016220000000  0.5580240000000  0.5573480000000 1.0
C      1  0.5512700000000  0.5596360000000  0.5278530000000 1.0
C      1  0.5487520000000  0.5581110000000  0.4701590000000 1.0
C      1  0.4985560000000  0.5594660000000  0.4416300000000 1.0
C      1  0.4496250000000  0.5579520000000  0.4723610000000 1.0
C      1  0.4509360000000  0.5580880000000  0.5300180000000 1.0
C      1  0.5422490000000  0.4516580000000  0.4594210000000 1.0
C      1  0.4858830000000  0.4516250000000  0.4428530000000 1.0
C      1  0.4433650000000  0.4509860000000  0.4836240000000 1.0
C      1  0.4573840000000  0.4510940000000  0.5411170000000 1.0
C      1  0.5141240000000  0.4512890000000  0.5572470000000 1.0
C      1  0.5564210000000  0.4519450000000  0.5165430000000 1.0
C      1  0.5247300000000  0.5706100000000  0.4848100000000 1.0
C      1  0.4992120000000  0.5729070000000  0.4702660000000 1.0
C      1  0.4744190000000  0.5703920000000  0.4858750000000 1.0
C      1  0.4750950000000  0.5710700000000  0.5151610000000 1.0
C      1  0.5008770000000  0.5704640000000  0.5290850000000 1.0
C      1  0.5260920000000  0.5731960000000  0.5141430000000 1.0
C      1  0.5545690000000  0.5142360000000  0.4492620000000 1.0
C      1  0.4834900000000  0.5143690000000  0.4284840000000 1.0
C      1  0.4287040000000  0.5139140000000  0.4776420000000 1.0
C      1  0.4466390000000  0.5134970000000  0.5502860000000 1.0
C      1  0.5170440000000  0.5142960000000  0.5729530000000 1.0
C      1  0.5700180000000  0.5144520000000  0.5213180000000 1.0
C      1  0.4874160000000  0.5142100000000  0.5736260000000 1.0
C      1  0.5560080000000  0.5145940000000  0.5473610000000 1.0
C      1  0.5700750000000  0.5144860000000  0.4746580000000 1.0
C      1  0.5131050000000  0.5146240000000  0.4274560000000 1.0
C      1  0.4427070000000  0.5144270000000  0.4513900000000 1.0
C      1  0.4306620000000  0.5138560000000  0.5249610000000 1.0
C      1  0.5281120000000  0.4451090000000  0.5084010000000 1.0
C      1  0.5214840000000  0.4570540000000  0.4805640000000 1.0
C      1  0.4929640000000  0.4447970000000  0.4714890000000 1.0
C      1  0.4720250000000  0.4566070000000  0.4910530000000 1.0
C      1  0.4786450000000  0.4446290000000  0.5205290000000 1.0
C      1  0.5058760000000  0.4569790000000  0.5288580000000 1.0
C      1  0.5228560000000  0.4884460000000  0.4840410000000 1.0
C      1  0.4979470000000  0.4987990000000  0.4707800000000 1.0
C      1  0.4739030000000  0.4879980000000  0.4878330000000 1.0
C      1  0.4755640000000  0.4974250000000  0.5155650000000 1.0
C      1  0.5012920000000  0.4885870000000  0.5291740000000 1.0
C      1  0.5254210000000  0.4990230000000  0.5134210000000 1.0
C      1  0.5015710000000  0.5270240000000  0.5335890000000 1.0
C      1  0.5289370000000  0.5302800000000  0.5155700000000 1.0
C      1  0.5283510000000  0.5269960000000  0.4824420000000 1.0
C      1  0.4993640000000  0.5299780000000  0.4669420000000 1.0
C      1  0.4706460000000  0.5268320000000  0.4833900000000 1.0
C      1  0.4720920000000  0.5281430000000  0.5170190000000 1.0
C      1  0.5703330000000  0.4679380000000  0.4959210000000 1.0
C      1  0.5327650000000  0.4681330000000  0.4364370000000 1.0
C      1  0.4609930000000  0.4675380000000  0.4410320000000 1.0
C      1  0.4281410000000  0.4673960000000  0.5033470000000 1.0
C      1  0.4685130000000  0.4670930000000  0.5636250000000 1.0
C      1  0.5386580000000  0.4680260000000  0.5604500000000 1.0
C      1  0.4508660000000  0.5425680000000  0.4468750000000 1.0
C      1  0.4300560000000  0.5419680000000  0.5159060000000 1.0
C      1  0.4791350000000  0.5421630000000  0.5687930000000 1.0
C      1  0.5492330000000  0.5427900000000  0.5528430000000 1.0
C      1  0.5700450000000  0.5425690000000  0.4839210000000 1.0
C      1  0.5213340000000  0.5428400000000  0.4308150000000 1.0
END
