TITL C-3577082-504-495 -1.57084691682829e-06 125000 -535.325087629043 0 0 90 (C1) n - 1
REM
REM in /home/bkarasulu/work/CARBON/AIRSS/Generating-Clusters/EDIP-Nigel-Params/with-SteepDescent/Higher-Symm/SD-CG/HFTN-CG
REM
REM
REM
REM
REM
REM ./C.cell (12c818d87b63d06a65506943cc24bca4)
REM
REM compiler GCC version 9.2.1 20190827 (Red Hat 9.2.1-1)
REM options -cpp -mtune=generic -march=x86-64 -g -O0 -fpre-include=/usr/include/finclude/math-vector-fortran.h
REM seed 293685734 821761011 1223630652 1198952095 -302301815 331393530 -870019420 -397798859 -2135352274 -1169281574 -210706999 2053585277 1589267824 -907992661 -2071882435 1475956369 1958036120 -1077931915 1396355049 1539835839 461346042 138563274 -1545829202 -447823400 840682882 321181448 -754629901 -667910545 -1364720781 1913341830 -1741113915 -451028334 -1003419221
REM
CELL 1.54180   50.00000   50.00000   50.00000   90.00000   90.00000   90.00000
LATT -1
SFAC C  
C      1  0.5014860000000  0.5867090000000  0.5301670000000 1.0
C      1  0.4167880000000  0.5272640000000  0.5283190000000 1.0
C      1  0.4509820000000  0.4294730000000  0.5249990000000 1.0
C      1  0.5513900000000  0.4328400000000  0.5242050000000 1.0
C      1  0.5807610000000  0.5264630000000  0.5252930000000 1.0
C      1  0.5000560000000  0.4164420000000  0.5252060000000 1.0
C      1  0.4192020000000  0.4748340000000  0.5247740000000 1.0
C      1  0.4549110000000  0.5710220000000  0.5225300000000 1.0
C      1  0.5535230000000  0.5613610000000  0.5244470000000 1.0
C      1  0.5788210000000  0.4713700000000  0.5242180000000 1.0
C      1  0.4307270000000  0.5316050000000  0.4478720000000 1.0
C      1  0.4555360000000  0.4403550000000  0.4467540000000 1.0
C      1  0.5419260000000  0.4425020000000  0.4451230000000 1.0
C      1  0.5708730000000  0.5215890000000  0.4469290000000 1.0
C      1  0.5103270000000  0.5764890000000  0.4497760000000 1.0
C      1  0.4308180000000  0.4768510000000  0.4502310000000 1.0
C      1  0.4521410000000  0.5529690000000  0.4483140000000 1.0
C      1  0.5369620000000  0.5623440000000  0.4500160000000 1.0
C      1  0.5683960000000  0.4774830000000  0.4502590000000 1.0
C      1  0.5020280000000  0.4278380000000  0.4507290000000 1.0
C      1  0.5279060000000  0.4620140000000  0.5694440000000 1.0
C      1  0.5440830000000  0.5147040000000  0.5695120000000 1.0
C      1  0.4991930000000  0.5442350000000  0.5696780000000 1.0
C      1  0.4556760000000  0.5155720000000  0.5690380000000 1.0
C      1  0.4738350000000  0.4660490000000  0.5694350000000 1.0
C      1  0.5255360000000  0.5367740000000  0.5597920000000 1.0
C      1  0.5440940000000  0.4862910000000  0.5601960000000 1.0
C      1  0.5001220000000  0.4555000000000  0.5603290000000 1.0
C      1  0.4567320000000  0.4877060000000  0.5598300000000 1.0
C      1  0.4729600000000  0.5366120000000  0.5589520000000 1.0
C      1  0.5262180000000  0.4640750000000  0.4293430000000 1.0
C      1  0.5462130000000  0.5154870000000  0.4307500000000 1.0
C      1  0.4997560000000  0.5454830000000  0.4297350000000 1.0
C      1  0.4579550000000  0.5117780000000  0.4290210000000 1.0
C      1  0.4715610000000  0.4601250000000  0.4304520000000 1.0
C      1  0.5265710000000  0.5367850000000  0.4391340000000 1.0
C      1  0.5440030000000  0.4864180000000  0.4389330000000 1.0
C      1  0.4995460000000  0.4537660000000  0.4392140000000 1.0
C      1  0.4554800000000  0.4841900000000  0.4385340000000 1.0
C      1  0.4736360000000  0.5350950000000  0.4382330000000 1.0
C      1  0.5258450000000  0.4644240000000  0.4726770000000 1.0
C      1  0.5431710000000  0.5140060000000  0.4731770000000 1.0
C      1  0.4992150000000  0.5457990000000  0.4723700000000 1.0
C      1  0.4557550000000  0.5129810000000  0.4718730000000 1.0
C      1  0.4728500000000  0.4630190000000  0.4731220000000 1.0
C      1  0.5262360000000  0.5365950000000  0.4849560000000 1.0
C      1  0.5436080000000  0.4857540000000  0.4850540000000 1.0
C      1  0.4994980000000  0.4546910000000  0.4853340000000 1.0
C      1  0.4558380000000  0.4852930000000  0.4850620000000 1.0
C      1  0.4725470000000  0.5361030000000  0.4844260000000 1.0
C      1  0.4962650000000  0.4174720000000  0.4761740000000 1.0
C      1  0.5778820000000  0.4703630000000  0.4755920000000 1.0
C      1  0.5516520000000  0.5636950000000  0.4754320000000 1.0
C      1  0.4540800000000  0.5678970000000  0.4735560000000 1.0
C      1  0.4193240000000  0.4762930000000  0.4757290000000 1.0
C      1  0.4972490000000  0.5766030000000  0.4778170000000 1.0
C      1  0.5786840000000  0.5283520000000  0.4742970000000 1.0
C      1  0.5507620000000  0.4352470000000  0.4725820000000 1.0
C      1  0.4535300000000  0.4299490000000  0.4741200000000 1.0
C      1  0.4252880000000  0.5201230000000  0.4762830000000 1.0
C      1  0.4997850000000  0.5483550000000  0.5263820000000 1.0
C      1  0.4533460000000  0.5153310000000  0.5259900000000 1.0
C      1  0.4719750000000  0.4620180000000  0.5276310000000 1.0
C      1  0.5276110000000  0.4629050000000  0.5269410000000 1.0
C      1  0.5442130000000  0.5144570000000  0.5268240000000 1.0
C      1  0.4998200000000  0.4542020000000  0.5155880000000 1.0
C      1  0.4552820000000  0.4858440000000  0.5152850000000 1.0
C      1  0.4726690000000  0.5373360000000  0.5145050000000 1.0
C      1  0.5261270000000  0.5361520000000  0.5148410000000 1.0
C      1  0.5441980000000  0.4857210000000  0.5151920000000 1.0
C      1  0.4630500000000  0.4326030000000  0.5519670000000 1.0
C      1  0.5494890000000  0.4433090000000  0.5528370000000 1.0
C      1  0.5684430000000  0.5307470000000  0.5528030000000 1.0
C      1  0.4891260000000  0.5776040000000  0.5552430000000 1.0
C      1  0.4211580000000  0.5137140000000  0.5539350000000 1.0
C      1  0.4637600000000  0.5632470000000  0.5494550000000 1.0
C      1  0.5422330000000  0.5588970000000  0.5506710000000 1.0
C      1  0.5699520000000  0.4760850000000  0.5512180000000 1.0
C      1  0.4926710000000  0.4283350000000  0.5509870000000 1.0
C      1  0.4286610000000  0.4852280000000  0.5506970000000 1.0
C      1  0.5426640000000  0.5744400000000  0.5009250000000 1.0
C      1  0.4404360000000  0.5628430000000  0.4988710000000 1.0
C      1  0.4227990000000  0.4603740000000  0.4997760000000 1.0
C      1  0.5133500000000  0.4154270000000  0.4994700000000 1.0
C      1  0.5852330000000  0.4851260000000  0.4993660000000 1.0
C      1  0.5376140000000  0.4310140000000  0.4985300000000 1.0
C      1  0.4449860000000  0.4417720000000  0.4994940000000 1.0
C      1  0.4298830000000  0.5353220000000  0.5021220000000 1.0
C      1  0.5130760000000  0.5771490000000  0.5037060000000 1.0
C      1  0.5783820000000  0.5133210000000  0.4993930000000 1.0
END
