TITL C-3578197-9521-713 -6.34959250833895e-07 125000 -528.473563776266 0 0 86 (C1) n - 1
REM
REM in /home/bkarasulu/work/CARBON/AIRSS/Generating-Clusters/EDIP-Nigel-Params/with-SteepDescent/Higher-Symm/SD-CG/HFTN-CG
REM
REM
REM
REM
REM
REM ./C.cell (12c818d87b63d06a65506943cc24bca4)
REM
REM compiler GCC version 9.2.1 20190827 (Red Hat 9.2.1-1)
REM options -cpp -mtune=generic -march=x86-64 -g -O0 -fpre-include=/usr/include/finclude/math-vector-fortran.h
REM seed 943995576 2146909786 699766712 -957587582 1343516984 -594404508 1252314675 -30148335 757681556 -777549921 1385495535 -777002731 601616540 -1272799244 686657930 -672187328 841632948 -212046613 -1465700796 1478831487 437150690 -951528937 -358627375 -609577829 -685473842 -487326311 318361335 756701103 -702075705 -1086669470 1222547049 159388347 499885749
REM
CELL 1.54180   50.00000   50.00000   50.00000   90.00000   90.00000   90.00000
LATT -1
SFAC C  
C      1  0.5668470000000  0.4516210000000  0.5356400000000 1.0
C      1  0.4241230000000  0.4703580000000  0.5302720000000 1.0
C      1  0.5238990000000  0.5814170000000  0.5344650000000 1.0
C      1  0.5569330000000  0.5537080000000  0.4698780000000 1.0
C      1  0.4261610000000  0.5207390000000  0.4729410000000 1.0
C      1  0.5061700000000  0.4180360000000  0.4670940000000 1.0
C      1  0.5285180000000  0.4914970000000  0.4961770000000 1.0
C      1  0.4717700000000  0.4736130000000  0.4943870000000 1.0
C      1  0.5041970000000  0.5373590000000  0.4914690000000 1.0
C      1  0.5330550000000  0.5185970000000  0.5099020000000 1.0
C      1  0.4818600000000  0.5193510000000  0.5023070000000 1.0
C      1  0.4920450000000  0.4621190000000  0.5101930000000 1.0
C      1  0.5229790000000  0.5288980000000  0.5617910000000 1.0
C      1  0.5066490000000  0.4663210000000  0.5578360000000 1.0
C      1  0.4708050000000  0.5099240000000  0.5522520000000 1.0
C      1  0.5213370000000  0.4739810000000  0.4460370000000 1.0
C      1  0.5125480000000  0.5340420000000  0.4402400000000 1.0
C      1  0.4642690000000  0.4922610000000  0.4469630000000 1.0
C      1  0.5104180000000  0.4942010000000  0.4723320000000 1.0
C      1  0.4795160000000  0.4963370000000  0.4782720000000 1.0
C      1  0.5160940000000  0.5232930000000  0.4680540000000 1.0
C      1  0.5144500000000  0.5252680000000  0.5328290000000 1.0
C      1  0.4918030000000  0.5067260000000  0.5290600000000 1.0
C      1  0.5036090000000  0.4790460000000  0.5303610000000 1.0
C      1  0.5040200000000  0.4053060000000  0.4915150000000 1.0
C      1  0.4058060000000  0.5288700000000  0.4909510000000 1.0
C      1  0.5690880000000  0.5566110000000  0.4942720000000 1.0
C      1  0.5277140000000  0.6034240000000  0.5178820000000 1.0
C      1  0.4155090000000  0.4595110000000  0.5066690000000 1.0
C      1  0.5771430000000  0.4507740000000  0.5100850000000 1.0
C      1  0.5411480000000  0.4392760000000  0.5420900000000 1.0
C      1  0.4329540000000  0.4984430000000  0.5323270000000 1.0
C      1  0.5459780000000  0.5710470000000  0.5501760000000 1.0
C      1  0.5325990000000  0.5683010000000  0.4603600000000 1.0
C      1  0.4210530000000  0.4984160000000  0.4550630000000 1.0
C      1  0.5301500000000  0.4322730000000  0.4586910000000 1.0
C      1  0.4638940000000  0.4428320000000  0.5459000000000 1.0
C      1  0.4763960000000  0.5550120000000  0.5393680000000 1.0
C      1  0.5615690000000  0.5000190000000  0.5464950000000 1.0
C      1  0.4682190000000  0.5495090000000  0.4586200000000 1.0
C      1  0.4705530000000  0.4427120000000  0.4576040000000 1.0
C      1  0.5595020000000  0.5044100000000  0.4582650000000 1.0
C      1  0.4983700000000  0.4702110000000  0.4242870000000 1.0
C      1  0.4744470000000  0.5123540000000  0.4241780000000 1.0
C      1  0.5231980000000  0.5124880000000  0.4215120000000 1.0
C      1  0.4987240000000  0.5282530000000  0.5800130000000 1.0
C      1  0.4710080000000  0.4826160000000  0.5791720000000 1.0
C      1  0.5218330000000  0.4850050000000  0.5791340000000 1.0
C      1  0.4372540000000  0.4517960000000  0.5463270000000 1.0
C      1  0.4976940000000  0.5736600000000  0.5407940000000 1.0
C      1  0.5732210000000  0.4748470000000  0.5493160000000 1.0
C      1  0.4419730000000  0.5408130000000  0.4619680000000 1.0
C      1  0.4835280000000  0.4187030000000  0.4508780000000 1.0
C      1  0.5658350000000  0.5317090000000  0.4552270000000 1.0
C      1  0.5584340000000  0.4914410000000  0.4875820000000 1.0
C      1  0.4587640000000  0.4477000000000  0.4856890000000 1.0
C      1  0.4833210000000  0.5595740000000  0.4828970000000 1.0
C      1  0.5625930000000  0.5142780000000  0.5184360000000 1.0
C      1  0.4636750000000  0.5434250000000  0.5122630000000 1.0
C      1  0.4773780000000  0.4368410000000  0.5174900000000 1.0
C      1  0.5152650000000  0.5987700000000  0.4946250000000 1.0
C      1  0.5663750000000  0.4617670000000  0.4871400000000 1.0
C      1  0.4287970000000  0.4538320000000  0.4833080000000 1.0
C      1  0.4997620000000  0.4156010000000  0.5167800000000 1.0
C      1  0.5740560000000  0.5428460000000  0.5176740000000 1.0
C      1  0.4110520000000  0.5412060000000  0.5150590000000 1.0
C      1  0.4741830000000  0.5370750000000  0.5633160000000 1.0
C      1  0.5401720000000  0.5054810000000  0.5665730000000 1.0
C      1  0.4800220000000  0.4565390000000  0.5670770000000 1.0
C      1  0.4728700000000  0.4651780000000  0.4387430000000 1.0
C      1  0.5416190000000  0.4934860000000  0.4362760000000 1.0
C      1  0.4834300000000  0.5372800000000  0.4368020000000 1.0
C      1  0.4386540000000  0.4999960000000  0.4331910000000 1.0
C      1  0.5251800000000  0.5594310000000  0.4348650000000 1.0
C      1  0.5274930000000  0.4467050000000  0.4347430000000 1.0
C      1  0.4438560000000  0.5000150000000  0.5581530000000 1.0
C      1  0.5291420000000  0.4492550000000  0.5652650000000 1.0
C      1  0.5366500000000  0.5528990000000  0.5682480000000 1.0
C      1  0.5090210000000  0.5785940000000  0.4765990000000 1.0
C      1  0.5489580000000  0.4437340000000  0.4754090000000 1.0
C      1  0.4208510000000  0.4721590000000  0.4641570000000 1.0
C      1  0.5244330000000  0.4216940000000  0.5283720000000 1.0
C      1  0.5689510000000  0.5605990000000  0.5384970000000 1.0
C      1  0.4354360000000  0.5254230000000  0.5157230000000 1.0
C      1  0.4985040000000  0.4979620000000  0.4128370000000 1.0
C      1  0.4959230000000  0.4988560000000  0.5869470000000 1.0
END
