TITL C-3577081-279-670 1.19828370212417e-06 125000 -987.551507015415 0 0 157 (C1) n - 1
REM
REM in /home/bkarasulu/work/CARBON/AIRSS/Generating-Clusters/EDIP-Nigel-Params/with-SteepDescent/Higher-Symm/SD-CG/HFTN-CG
REM
REM
REM
REM
REM
REM ./C.cell (12c818d87b63d06a65506943cc24bca4)
REM
REM compiler GCC version 9.2.1 20190827 (Red Hat 9.2.1-1)
REM options -cpp -mtune=generic -march=x86-64 -g -O0 -fpre-include=/usr/include/finclude/math-vector-fortran.h
REM seed -1919653398 -1003240439 -481720996 -890922822 -821080329 -1276284981 -1484209781 -1160666962 -1178481045 28717262 -916190909 993640143 -496831879 -1616368432 -64332684 -624472237 -1582577839 1374402757 -300739560 1454154420 -209264117 1051062534 1563023106 -1891385759 1445980336 28955832 -466654346 389207263 1648200063 -1891421109 -2084885883 919150158 -1262122449
REM
CELL 1.54180   50.00000   50.00000   50.00000   90.00000   90.00000   90.00000
LATT -1
SFAC C  
C      1  0.4755940000000  0.4553640000000  0.4700920000000 1.0
C      1  0.4578230000000  0.4877100000000  0.4710380000000 1.0
C      1  0.4635220000000  0.5231650000000  0.4721760000000 1.0
C      1  0.4918530000000  0.5412570000000  0.4729520000000 1.0
C      1  0.5306060000000  0.5286560000000  0.4755830000000 1.0
C      1  0.5541650000000  0.4848950000000  0.4816490000000 1.0
C      1  0.5105680000000  0.4564280000000  0.4740990000000 1.0
C      1  0.4432530000000  0.5577040000000  0.5694630000000 1.0
C      1  0.5095670000000  0.5836340000000  0.5690010000000 1.0
C      1  0.5699280000000  0.5448500000000  0.5688270000000 1.0
C      1  0.5783240000000  0.4730920000000  0.5697810000000 1.0
C      1  0.5264220000000  0.4242760000000  0.5685950000000 1.0
C      1  0.4551380000000  0.4294930000000  0.5715150000000 1.0
C      1  0.4188750000000  0.4901520000000  0.5704160000000 1.0
C      1  0.4813270000000  0.4812390000000  0.3825400000000 1.0
C      1  0.4739700000000  0.5073560000000  0.3837640000000 1.0
C      1  0.4872250000000  0.5288560000000  0.3959610000000 1.0
C      1  0.5144640000000  0.5275440000000  0.3892910000000 1.0
C      1  0.5326800000000  0.5080740000000  0.3979360000000 1.0
C      1  0.5265030000000  0.4820830000000  0.3898050000000 1.0
C      1  0.5029290000000  0.4678030000000  0.3942740000000 1.0
C      1  0.4777300000000  0.4185530000000  0.4459000000000 1.0
C      1  0.4251180000000  0.4644440000000  0.4522820000000 1.0
C      1  0.4261150000000  0.5353290000000  0.4520000000000 1.0
C      1  0.4827470000000  0.5784990000000  0.4509580000000 1.0
C      1  0.5517920000000  0.5615690000000  0.4546140000000 1.0
C      1  0.5847050000000  0.4971390000000  0.4456810000000 1.0
C      1  0.5463280000000  0.4364210000000  0.4573390000000 1.0
C      1  0.5157560000000  0.5196600000000  0.5583100000000 1.0
C      1  0.5424930000000  0.5096140000000  0.5441560000000 1.0
C      1  0.5414570000000  0.4807640000000  0.5389680000000 1.0
C      1  0.4962940000000  0.4584640000000  0.5522610000000 1.0
C      1  0.4689080000000  0.4720300000000  0.5474130000000 1.0
C      1  0.4607120000000  0.5093740000000  0.5506330000000 1.0
C      1  0.4855180000000  0.5307660000000  0.5498840000000 1.0
C      1  0.4980090000000  0.4288930000000  0.5618100000000 1.0
C      1  0.4449350000000  0.4551530000000  0.5607300000000 1.0
C      1  0.4314680000000  0.5153660000000  0.5619120000000 1.0
C      1  0.4706570000000  0.5617900000000  0.5594130000000 1.0
C      1  0.5358400000000  0.5728640000000  0.5636290000000 1.0
C      1  0.5698580000000  0.5167030000000  0.5595260000000 1.0
C      1  0.5561180000000  0.4590120000000  0.5558660000000 1.0
C      1  0.4047850000000  0.5443480000000  0.4950280000000 1.0
C      1  0.4757120000000  0.5995700000000  0.4936750000000 1.0
C      1  0.5732330000000  0.5907980000000  0.4894190000000 1.0
C      1  0.6136900000000  0.4954550000000  0.4856190000000 1.0
C      1  0.5716770000000  0.4106540000000  0.4916220000000 1.0
C      1  0.4675850000000  0.3995480000000  0.4909630000000 1.0
C      1  0.4106060000000  0.4500600000000  0.4952530000000 1.0
C      1  0.5276700000000  0.5560830000000  0.4913200000000 1.0
C      1  0.5578680000000  0.5136670000000  0.4906890000000 1.0
C      1  0.5361570000000  0.4640990000000  0.4933490000000 1.0
C      1  0.4991980000000  0.4384150000000  0.5017640000000 1.0
C      1  0.4546700000000  0.4702190000000  0.4964180000000 1.0
C      1  0.4439630000000  0.5152260000000  0.4966000000000 1.0
C      1  0.4788340000000  0.5477540000000  0.5009150000000 1.0
C      1  0.6084930000000  0.5178600000000  0.5170210000000 1.0
C      1  0.5830770000000  0.4269510000000  0.5157590000000 1.0
C      1  0.4875130000000  0.3904200000000  0.5131640000000 1.0
C      1  0.4234090000000  0.4295130000000  0.5134480000000 1.0
C      1  0.3953690000000  0.5264040000000  0.5170760000000 1.0
C      1  0.4556680000000  0.5983820000000  0.5155480000000 1.0
C      1  0.5555650000000  0.6012460000000  0.5166410000000 1.0
C      1  0.5557770000000  0.5892290000000  0.4654890000000 1.0
C      1  0.6051460000000  0.5111830000000  0.4632080000000 1.0
C      1  0.5729240000000  0.4266030000000  0.4666500000000 1.0
C      1  0.4827520000000  0.3970610000000  0.4647650000000 1.0
C      1  0.4121720000000  0.4426720000000  0.4671170000000 1.0
C      1  0.4014560000000  0.5323960000000  0.4683640000000 1.0
C      1  0.4646280000000  0.5954110000000  0.4670250000000 1.0
C      1  0.4939910000000  0.5760600000000  0.4975050000000 1.0
C      1  0.5569410000000  0.5677510000000  0.5040500000000 1.0
C      1  0.5901320000000  0.4981340000000  0.5028720000000 1.0
C      1  0.5478140000000  0.4341480000000  0.5013610000000 1.0
C      1  0.4706840000000  0.4293240000000  0.4976160000000 1.0
C      1  0.4233430000000  0.4770770000000  0.4950120000000 1.0
C      1  0.4349780000000  0.5452540000000  0.4944920000000 1.0
C      1  0.5280360000000  0.5969370000000  0.4742360000000 1.0
C      1  0.5919660000000  0.5354690000000  0.4743550000000 1.0
C      1  0.5886090000000  0.4514370000000  0.4737130000000 1.0
C      1  0.5113480000000  0.4002610000000  0.4711860000000 1.0
C      1  0.4289000000000  0.4183690000000  0.4642000000000 1.0
C      1  0.3968400000000  0.5034410000000  0.4714980000000 1.0
C      1  0.4388570000000  0.5816810000000  0.4698330000000 1.0
C      1  0.5227060000000  0.4207570000000  0.4516880000000 1.0
C      1  0.4510410000000  0.4288490000000  0.4460580000000 1.0
C      1  0.4178330000000  0.4916880000000  0.4540600000000 1.0
C      1  0.4438680000000  0.5573230000000  0.4533780000000 1.0
C      1  0.5105920000000  0.5778130000000  0.4574030000000 1.0
C      1  0.5687920000000  0.5387300000000  0.4565410000000 1.0
C      1  0.5712920000000  0.4743060000000  0.4605360000000 1.0
C      1  0.3902200000000  0.4979210000000  0.5012290000000 1.0
C      1  0.4304510000000  0.5847700000000  0.4998660000000 1.0
C      1  0.5282230000000  0.6038940000000  0.5049790000000 1.0
C      1  0.5974820000000  0.5420530000000  0.5043010000000 1.0
C      1  0.5946140000000  0.4512140000000  0.5039890000000 1.0
C      1  0.5141790000000  0.3968190000000  0.5016960000000 1.0
C      1  0.4340990000000  0.4062130000000  0.4914420000000 1.0
C      1  0.4087310000000  0.4764750000000  0.5455080000000 1.0
C      1  0.4260920000000  0.5569190000000  0.5448080000000 1.0
C      1  0.4981790000000  0.5954890000000  0.5440750000000 1.0
C      1  0.5761520000000  0.5636940000000  0.5461830000000 1.0
C      1  0.5968010000000  0.4809100000000  0.5472420000000 1.0
C      1  0.5421220000000  0.4144880000000  0.5449170000000 1.0
C      1  0.4594680000000  0.4160070000000  0.5444050000000 1.0
C      1  0.4408530000000  0.4746620000000  0.5829560000000 1.0
C      1  0.4426270000000  0.5317470000000  0.5846830000000 1.0
C      1  0.4889190000000  0.5654420000000  0.5826040000000 1.0
C      1  0.5439130000000  0.5511400000000  0.5811240000000 1.0
C      1  0.5659530000000  0.4980110000000  0.5830660000000 1.0
C      1  0.5372920000000  0.4504510000000  0.5772040000000 1.0
C      1  0.4812080000000  0.4354800000000  0.5863380000000 1.0
C      1  0.5008780000000  0.4341000000000  0.4368720000000 1.0
C      1  0.4478280000000  0.4563710000000  0.4364970000000 1.0
C      1  0.4355080000000  0.5106300000000  0.4406600000000 1.0
C      1  0.4691820000000  0.5558110000000  0.4382300000000 1.0
C      1  0.5256470000000  0.5578470000000  0.4430070000000 1.0
C      1  0.5638240000000  0.5169210000000  0.4378180000000 1.0
C      1  0.5494400000000  0.4620720000000  0.4437710000000 1.0
C      1  0.5969590000000  0.5101300000000  0.5452110000000 1.0
C      1  0.5651140000000  0.4327840000000  0.5413140000000 1.0
C      1  0.4841490000000  0.4017030000000  0.5400920000000 1.0
C      1  0.4195810000000  0.4494370000000  0.5440380000000 1.0
C      1  0.4125400000000  0.5314360000000  0.5433030000000 1.0
C      1  0.4704220000000  0.5877980000000  0.5421530000000 1.0
C      1  0.5559250000000  0.5850070000000  0.5450420000000 1.0
C      1  0.5229090000000  0.5424760000000  0.5171540000000 1.0
C      1  0.5425000000000  0.5212120000000  0.5174830000000 1.0
C      1  0.5224000000000  0.4765550000000  0.5170870000000 1.0
C      1  0.5056220000000  0.4554070000000  0.5251400000000 1.0
C      1  0.4720660000000  0.4834970000000  0.5166820000000 1.0
C      1  0.4577310000000  0.5075020000000  0.5211940000000 1.0
C      1  0.4958730000000  0.5309070000000  0.5200390000000 1.0
C      1  0.4693410000000  0.5188800000000  0.5924590000000 1.0
C      1  0.4946280000000  0.5371890000000  0.5930510000000 1.0
C      1  0.5235390000000  0.5273230000000  0.5852900000000 1.0
C      1  0.5358330000000  0.4983410000000  0.5913830000000 1.0
C      1  0.5191190000000  0.4730980000000  0.5841510000000 1.0
C      1  0.4892230000000  0.4666470000000  0.5917100000000 1.0
C      1  0.4673040000000  0.4882180000000  0.5884970000000 1.0
C      1  0.4835230000000  0.5301120000000  0.4261730000000 1.0
C      1  0.5141660000000  0.5306590000000  0.4371170000000 1.0
C      1  0.5347700000000  0.5092640000000  0.4275770000000 1.0
C      1  0.5252850000000  0.4806160000000  0.4380340000000 1.0
C      1  0.4990150000000  0.4631120000000  0.4238720000000 1.0
C      1  0.4709320000000  0.4751190000000  0.4316920000000 1.0
C      1  0.4642370000000  0.5052560000000  0.4325780000000 1.0
C      1  0.5749750000000  0.5510830000000  0.5197610000000 1.0
C      1  0.5878100000000  0.4745480000000  0.5197570000000 1.0
C      1  0.5284140000000  0.4181880000000  0.5179480000000 1.0
C      1  0.4528580000000  0.4334470000000  0.5209660000000 1.0
C      1  0.4159450000000  0.4933610000000  0.5215260000000 1.0
C      1  0.4429910000000  0.5614090000000  0.5202760000000 1.0
C      1  0.5117210000000  0.5853400000000  0.5200950000000 1.0
C      1  0.5000990000000  0.4998460000000  0.5088030000000 1.0
C      1  0.5046130000000  0.5082990000000  0.4791340000000 1.0
C      1  0.5077300000000  0.4839630000000  0.4620630000000 1.0
END
