TITL C-3578203-1966-608 -2.62856771528503e-06 125000 -559.706957048395 0 0 90 (C1) n - 1
REM
REM in /home/bkarasulu/work/CARBON/AIRSS/Generating-Clusters/EDIP-Nigel-Params/with-SteepDescent/Higher-Symm/SD-CG/HFTN-CG
REM
REM
REM
REM
REM
REM ./C.cell (12c818d87b63d06a65506943cc24bca4)
REM
REM compiler GCC version 9.2.1 20190827 (Red Hat 9.2.1-1)
REM options -cpp -mtune=generic -march=x86-64 -g -O0 -fpre-include=/usr/include/finclude/math-vector-fortran.h
REM seed -175758519 946807741 -839077904 1673217785 1807870145 -1482330679 -1560873865 33519439 1244803124 -1452572883 1386938043 -249203898 80147274 -1882319596 -1109806521 274620244 -1133659858 1946980980 -383108243 676814284 1892895267 2057854734 -1379578991 -482319566 -315505487 -938886848 722752165 -932455682 -1120844698 -1685507081 1639769228 476106369 -599964994
REM
CELL 1.54180   50.00000   50.00000   50.00000   90.00000   90.00000   90.00000
LATT -1
SFAC C  
C      1  0.4874290000000  0.4293560000000  0.4781210000000 1.0
C      1  0.5100210000000  0.5769620000000  0.4706110000000 1.0
C      1  0.4911260000000  0.5747360000000  0.5300440000000 1.0
C      1  0.5114540000000  0.4304050000000  0.5229360000000 1.0
C      1  0.4193900000000  0.4889610000000  0.4644460000000 1.0
C      1  0.5788760000000  0.5098950000000  0.4670900000000 1.0
C      1  0.5814010000000  0.4894470000000  0.5315390000000 1.0
C      1  0.4181120000000  0.5099850000000  0.5307730000000 1.0
C      1  0.5043230000000  0.4782070000000  0.4849510000000 1.0
C      1  0.4952780000000  0.5268380000000  0.4839490000000 1.0
C      1  0.5033230000000  0.5280690000000  0.5116520000000 1.0
C      1  0.4933450000000  0.4787980000000  0.5145280000000 1.0
C      1  0.4613170000000  0.4980480000000  0.4866530000000 1.0
C      1  0.5316770000000  0.4890120000000  0.4872730000000 1.0
C      1  0.5365900000000  0.4985380000000  0.5133370000000 1.0
C      1  0.4659480000000  0.4892530000000  0.5127490000000 1.0
C      1  0.4621250000000  0.4438580000000  0.5213030000000 1.0
C      1  0.5266050000000  0.5464230000000  0.5146480000000 1.0
C      1  0.4731690000000  0.5459750000000  0.4833880000000 1.0
C      1  0.5361480000000  0.4436630000000  0.4788290000000 1.0
C      1  0.4449370000000  0.4700090000000  0.5172370000000 1.0
C      1  0.5516880000000  0.5240300000000  0.5150240000000 1.0
C      1  0.5528350000000  0.4701270000000  0.4818560000000 1.0
C      1  0.4469580000000  0.5239290000000  0.4836400000000 1.0
C      1  0.4482430000000  0.5780570000000  0.5483600000000 1.0
C      1  0.5525050000000  0.4213800000000  0.5472740000000 1.0
C      1  0.4476690000000  0.4185190000000  0.4532550000000 1.0
C      1  0.5536860000000  0.5815500000000  0.4529950000000 1.0
C      1  0.5820660000000  0.4460790000000  0.5499430000000 1.0
C      1  0.4178710000000  0.5542110000000  0.5475090000000 1.0
C      1  0.4203570000000  0.4450780000000  0.4473140000000 1.0
C      1  0.5809760000000  0.5543030000000  0.4510660000000 1.0
C      1  0.5545730000000  0.5058100000000  0.5651010000000 1.0
C      1  0.4441320000000  0.4946530000000  0.5656900000000 1.0
C      1  0.5525260000000  0.4950460000000  0.4322460000000 1.0
C      1  0.4512860000000  0.5049170000000  0.4357420000000 1.0
C      1  0.5086440000000  0.5501790000000  0.5629070000000 1.0
C      1  0.4930890000000  0.4536390000000  0.5596230000000 1.0
C      1  0.4946240000000  0.5540510000000  0.4353080000000 1.0
C      1  0.5058560000000  0.4512380000000  0.4403960000000 1.0
C      1  0.5290950000000  0.5632040000000  0.4891240000000 1.0
C      1  0.4632470000000  0.4358410000000  0.4931300000000 1.0
C      1  0.5352580000000  0.4358990000000  0.5070380000000 1.0
C      1  0.4727930000000  0.5604330000000  0.5106720000000 1.0
C      1  0.5683720000000  0.5275240000000  0.4890390000000 1.0
C      1  0.4268950000000  0.4702320000000  0.4883850000000 1.0
C      1  0.4295340000000  0.5277520000000  0.5090940000000 1.0
C      1  0.5710210000000  0.4705840000000  0.5093340000000 1.0
C      1  0.5253550000000  0.5013990000000  0.5658380000000 1.0
C      1  0.4730180000000  0.4984400000000  0.5666410000000 1.0
C      1  0.5235240000000  0.4971350000000  0.4291290000000 1.0
C      1  0.4817860000000  0.5027940000000  0.4425740000000 1.0
C      1  0.5040270000000  0.5206870000000  0.5592330000000 1.0
C      1  0.4942910000000  0.4797580000000  0.5709180000000 1.0
C      1  0.4977520000000  0.5254350000000  0.4315510000000 1.0
C      1  0.5030470000000  0.4766970000000  0.4274000000000 1.0
C      1  0.4242240000000  0.5549200000000  0.5189130000000 1.0
C      1  0.5799130000000  0.4443700000000  0.5207140000000 1.0
C      1  0.4192540000000  0.4437730000000  0.4766580000000 1.0
C      1  0.5762750000000  0.5543400000000  0.4799950000000 1.0
C      1  0.5589100000000  0.4243940000000  0.5191250000000 1.0
C      1  0.4476450000000  0.5720710000000  0.5198960000000 1.0
C      1  0.4399200000000  0.4237250000000  0.4808000000000 1.0
C      1  0.5549580000000  0.5739540000000  0.4811280000000 1.0
C      1  0.5845840000000  0.4741380000000  0.5564390000000 1.0
C      1  0.4146290000000  0.5263710000000  0.5550380000000 1.0
C      1  0.5824490000000  0.5264050000000  0.4430160000000 1.0
C      1  0.4204770000000  0.4730200000000  0.4397140000000 1.0
C      1  0.4764410000000  0.5798690000000  0.5549940000000 1.0
C      1  0.5233670000000  0.4228020000000  0.5487830000000 1.0
C      1  0.5253790000000  0.5841450000000  0.4464160000000 1.0
C      1  0.4767520000000  0.4197480000000  0.4523780000000 1.0
C      1  0.5101460000000  0.4343860000000  0.5706360000000 1.0
C      1  0.4881420000000  0.5649970000000  0.5759130000000 1.0
C      1  0.5139980000000  0.5714120000000  0.4238730000000 1.0
C      1  0.4903890000000  0.4302190000000  0.4301790000000 1.0
C      1  0.4284750000000  0.5153600000000  0.5770680000000 1.0
C      1  0.5705950000000  0.4860990000000  0.5778300000000 1.0
C      1  0.5679050000000  0.5160780000000  0.4211230000000 1.0
C      1  0.4391640000000  0.4836260000000  0.4214940000000 1.0
C      1  0.5650100000000  0.4852690000000  0.4581740000000 1.0
C      1  0.4328920000000  0.5154600000000  0.4577490000000 1.0
C      1  0.5681100000000  0.5154640000000  0.5393960000000 1.0
C      1  0.4311500000000  0.4847560000000  0.5400660000000 1.0
C      1  0.4846600000000  0.5639830000000  0.4617510000000 1.0
C      1  0.5079630000000  0.4502810000000  0.4703390000000 1.0
C      1  0.5177630000000  0.5635560000000  0.5377780000000 1.0
C      1  0.4903530000000  0.4511380000000  0.5298700000000 1.0
C      1  0.4866740000000  0.5007010000000  0.4731330000000 1.0
C      1  0.5102400000000  0.5021220000000  0.5255070000000 1.0
END
