TITL C-3577091-527-706 -1.0849172068237e-07 125000 -1000.36419179689 0 0 161 (C1) n - 1
REM
REM in /home/bkarasulu/work/CARBON/AIRSS/Generating-Clusters/EDIP-Nigel-Params/with-SteepDescent/Higher-Symm/SD-CG/HFTN-CG
REM
REM
REM
REM
REM
REM ./C.cell (12c818d87b63d06a65506943cc24bca4)
REM
REM compiler GCC version 9.2.1 20190827 (Red Hat 9.2.1-1)
REM options -cpp -mtune=generic -march=x86-64 -g -O0 -fpre-include=/usr/include/finclude/math-vector-fortran.h
REM seed -1900636449 1428769775 998550252 -586541438 1548366400 2091168658 -1114124294 1919058598 -192470760 -1702222323 -1092446379 -1453826307 -1338635980 1945845891 969438209 1918919991 -385803841 -1095436500 1067202492 -329702911 1880010450 1720812205 -149132293 1829862445 -1130641358 2025267149 -1525225477 -1624005514 789812863 -923979021 -782508383 167186188 632390
REM
CELL 1.54180   50.00000   50.00000   50.00000   90.00000   90.00000   90.00000
LATT -1
SFAC C  
C      1  0.4113810000000  0.5256720000000  0.4542560000000 1.0
C      1  0.4604200000000  0.4131110000000  0.5220230000000 1.0
C      1  0.5231050000000  0.4617620000000  0.4259570000000 1.0
C      1  0.5876690000000  0.5232420000000  0.5459790000000 1.0
C      1  0.4200500000000  0.4767370000000  0.5435490000000 1.0
C      1  0.5850290000000  0.4741700000000  0.4579130000000 1.0
C      1  0.5534810000000  0.4072290000000  0.4818960000000 1.0
C      1  0.4536530000000  0.5890490000000  0.4694390000000 1.0
C      1  0.5419090000000  0.5866070000000  0.5200050000000 1.0
C      1  0.4773230000000  0.4520720000000  0.5839120000000 1.0
C      1  0.5245870000000  0.5385710000000  0.5799810000000 1.0
C      1  0.4717140000000  0.5445850000000  0.4057160000000 1.0
C      1  0.4525350000000  0.5240440000000  0.4134270000000 1.0
C      1  0.5351980000000  0.4125210000000  0.4598590000000 1.0
C      1  0.4171130000000  0.4570650000000  0.5228260000000 1.0
C      1  0.5462200000000  0.5196450000000  0.5838580000000 1.0
C      1  0.5435170000000  0.4848420000000  0.4249640000000 1.0
C      1  0.4572880000000  0.4715100000000  0.5919980000000 1.0
C      1  0.4790410000000  0.4101750000000  0.5439960000000 1.0
C      1  0.4736650000000  0.5860060000000  0.4491660000000 1.0
C      1  0.5205730000000  0.5877300000000  0.5397660000000 1.0
C      1  0.5846910000000  0.4546880000000  0.4788200000000 1.0
C      1  0.5828740000000  0.5426550000000  0.5250600000000 1.0
C      1  0.4070960000000  0.5471380000000  0.4736930000000 1.0
C      1  0.4716090000000  0.5549230000000  0.4911600000000 1.0
C      1  0.4976620000000  0.4728170000000  0.5506280000000 1.0
C      1  0.5474280000000  0.4968540000000  0.4531590000000 1.0
C      1  0.5133730000000  0.5437270000000  0.4919470000000 1.0
C      1  0.4729100000000  0.4618400000000  0.4993790000000 1.0
C      1  0.5228000000000  0.4600680000000  0.4828250000000 1.0
C      1  0.4957830000000  0.4862940000000  0.4511710000000 1.0
C      1  0.4928490000000  0.5304000000000  0.4476500000000 1.0
C      1  0.5041960000000  0.5108860000000  0.5526770000000 1.0
C      1  0.4598050000000  0.5088890000000  0.5322120000000 1.0
C      1  0.5422170000000  0.4818810000000  0.5209170000000 1.0
C      1  0.4481740000000  0.5107250000000  0.4737220000000 1.0
C      1  0.4946520000000  0.5529370000000  0.4690760000000 1.0
C      1  0.5488530000000  0.4790460000000  0.4809720000000 1.0
C      1  0.4729230000000  0.4932660000000  0.5573410000000 1.0
C      1  0.4920630000000  0.5457610000000  0.5131260000000 1.0
C      1  0.4955560000000  0.4588260000000  0.4688050000000 1.0
C      1  0.4928340000000  0.4580190000000  0.5234820000000 1.0
C      1  0.4509990000000  0.4926360000000  0.5073520000000 1.0
C      1  0.4481610000000  0.5369530000000  0.4875860000000 1.0
C      1  0.5464680000000  0.5051370000000  0.5002380000000 1.0
C      1  0.5190590000000  0.5075040000000  0.4592120000000 1.0
C      1  0.5269800000000  0.4899380000000  0.5480550000000 1.0
C      1  0.4705250000000  0.5080020000000  0.4502530000000 1.0
C      1  0.5808140000000  0.4065260000000  0.4761090000000 1.0
C      1  0.4535190000000  0.5675870000000  0.4058600000000 1.0
C      1  0.4159560000000  0.4586610000000  0.5669040000000 1.0
C      1  0.4352690000000  0.4119100000000  0.5373840000000 1.0
C      1  0.5648710000000  0.5871150000000  0.5383210000000 1.0
C      1  0.4296680000000  0.5888000000000  0.4528960000000 1.0
C      1  0.5393290000000  0.5635020000000  0.5821390000000 1.0
C      1  0.4605990000000  0.4279770000000  0.5862700000000 1.0
C      1  0.5425180000000  0.4411170000000  0.4176060000000 1.0
C      1  0.5868170000000  0.4562950000000  0.4347150000000 1.0
C      1  0.4084720000000  0.5409910000000  0.4297640000000 1.0
C      1  0.5886200000000  0.5415970000000  0.5688370000000 1.0
C      1  0.4601600000000  0.4084240000000  0.5660280000000 1.0
C      1  0.4083530000000  0.5698910000000  0.4547240000000 1.0
C      1  0.5661070000000  0.4601470000000  0.4152200000000 1.0
C      1  0.5450570000000  0.4191220000000  0.4346590000000 1.0
C      1  0.5370810000000  0.5858270000000  0.5640790000000 1.0
C      1  0.4562700000000  0.5878780000000  0.4254460000000 1.0
C      1  0.5849180000000  0.5670490000000  0.5404090000000 1.0
C      1  0.5863170000000  0.4303380000000  0.4632680000000 1.0
C      1  0.4157780000000  0.4328550000000  0.5389810000000 1.0
C      1  0.4334590000000  0.4548660000000  0.5890380000000 1.0
C      1  0.4279590000000  0.5393480000000  0.4090850000000 1.0
C      1  0.5680080000000  0.5392850000000  0.5879330000000 1.0
C      1  0.4257590000000  0.5652660000000  0.5247230000000 1.0
C      1  0.5317010000000  0.4196550000000  0.5586180000000 1.0
C      1  0.5452160000000  0.5342370000000  0.4200860000000 1.0
C      1  0.5745510000000  0.5479110000000  0.4727050000000 1.0
C      1  0.4103770000000  0.4510520000000  0.4711570000000 1.0
C      1  0.5672040000000  0.4494030000000  0.5302850000000 1.0
C      1  0.4845480000000  0.4329590000000  0.4543420000000 1.0
C      1  0.5260200000000  0.5732300000000  0.4462830000000 1.0
C      1  0.4663500000000  0.5880110000000  0.5440790000000 1.0
C      1  0.4530900000000  0.5263540000000  0.5791180000000 1.0
C      1  0.5513460000000  0.4642990000000  0.5779950000000 1.0
C      1  0.4512740000000  0.4721840000000  0.4232930000000 1.0
C      1  0.5262550000000  0.5580190000000  0.4198250000000 1.0
C      1  0.5568430000000  0.4208730000000  0.5342520000000 1.0
C      1  0.4296190000000  0.5279020000000  0.5479510000000 1.0
C      1  0.4749910000000  0.5460040000000  0.5789130000000 1.0
C      1  0.4745890000000  0.4485820000000  0.4245260000000 1.0
C      1  0.5270600000000  0.4472990000000  0.5709310000000 1.0
C      1  0.4595650000000  0.4235400000000  0.4700470000000 1.0
C      1  0.4457590000000  0.5872450000000  0.5228210000000 1.0
C      1  0.5491930000000  0.5771670000000  0.4662360000000 1.0
C      1  0.5741430000000  0.5250360000000  0.4521240000000 1.0
C      1  0.5746440000000  0.4661620000000  0.5543070000000 1.0
C      1  0.4086690000000  0.4696240000000  0.4493360000000 1.0
C      1  0.5877870000000  0.5417870000000  0.4307370000000 1.0
C      1  0.4257280000000  0.5895620000000  0.5668250000000 1.0
C      1  0.5626570000000  0.4201890000000  0.5968320000000 1.0
C      1  0.4143130000000  0.5440630000000  0.5677150000000 1.0
C      1  0.5926840000000  0.4484150000000  0.5730280000000 1.0
C      1  0.4100050000000  0.4500330000000  0.4269200000000 1.0
C      1  0.5730040000000  0.5901140000000  0.4519770000000 1.0
C      1  0.4375710000000  0.4121800000000  0.4537630000000 1.0
C      1  0.5745860000000  0.4054670000000  0.5540540000000 1.0
C      1  0.4532210000000  0.4302840000000  0.4094370000000 1.0
C      1  0.5592600000000  0.5744680000000  0.4070220000000 1.0
C      1  0.4615950000000  0.5694220000000  0.5893410000000 1.0
C      1  0.4321590000000  0.5449790000000  0.5911340000000 1.0
C      1  0.5690680000000  0.5934170000000  0.4245260000000 1.0
C      1  0.5956840000000  0.4219080000000  0.5634340000000 1.0
C      1  0.5683530000000  0.5471450000000  0.4099370000000 1.0
C      1  0.5712190000000  0.4471200000000  0.5945550000000 1.0
C      1  0.4330130000000  0.4533090000000  0.4098940000000 1.0
C      1  0.4538700000000  0.5902070000000  0.5706700000000 1.0
C      1  0.4445300000000  0.4099900000000  0.4265920000000 1.0
C      1  0.5533380000000  0.4042950000000  0.5752800000000 1.0
C      1  0.4122540000000  0.4257070000000  0.4571970000000 1.0
C      1  0.4132000000000  0.5687790000000  0.5518790000000 1.0
C      1  0.5908950000000  0.5679480000000  0.4573240000000 1.0
C      1  0.5444690000000  0.4075740000000  0.5096020000000 1.0
C      1  0.4990700000000  0.5393900000000  0.4183820000000 1.0
C      1  0.4156080000000  0.5052440000000  0.5366060000000 1.0
C      1  0.4693670000000  0.4096270000000  0.4944100000000 1.0
C      1  0.5376550000000  0.5918650000000  0.4911570000000 1.0
C      1  0.4614740000000  0.5915970000000  0.4981430000000 1.0
C      1  0.4984960000000  0.5331190000000  0.5900450000000 1.0
C      1  0.5056850000000  0.4560580000000  0.5894980000000 1.0
C      1  0.4979080000000  0.4640830000000  0.4129690000000 1.0
C      1  0.5898220000000  0.5023770000000  0.4641690000000 1.0
C      1  0.4088060000000  0.4974650000000  0.4613560000000 1.0
C      1  0.5841560000000  0.4940900000000  0.5421920000000 1.0
C      1  0.5082600000000  0.4077060000000  0.5414430000000 1.0
C      1  0.4218250000000  0.5422970000000  0.5002720000000 1.0
C      1  0.5361280000000  0.5091190000000  0.4080720000000 1.0
C      1  0.5064700000000  0.4127750000000  0.4642290000000 1.0
C      1  0.4931710000000  0.5969970000000  0.5335490000000 1.0
C      1  0.5029550000000  0.5893030000000  0.4565800000000 1.0
C      1  0.5881940000000  0.5370250000000  0.4974010000000 1.0
C      1  0.5788170000000  0.4619440000000  0.5064490000000 1.0
C      1  0.4099530000000  0.4651960000000  0.4963770000000 1.0
C      1  0.4635000000000  0.5010060000000  0.5945070000000 1.0
C      1  0.4604910000000  0.4961330000000  0.4089050000000 1.0
C      1  0.5407620000000  0.4907550000000  0.5903330000000 1.0
C      1  0.5077090000000  0.5140380000000  0.4050890000000 1.0
C      1  0.4129160000000  0.5140740000000  0.5091970000000 1.0
C      1  0.5163660000000  0.4059520000000  0.5137580000000 1.0
C      1  0.4924960000000  0.5054250000000  0.5946620000000 1.0
C      1  0.5125070000000  0.4843800000000  0.5951140000000 1.0
C      1  0.5900800000000  0.5085860000000  0.4926570000000 1.0
C      1  0.4112650000000  0.4929370000000  0.4895400000000 1.0
C      1  0.5853940000000  0.4887510000000  0.5136990000000 1.0
C      1  0.4980370000000  0.4073150000000  0.4914280000000 1.0
C      1  0.5096000000000  0.5964560000000  0.4846910000000 1.0
C      1  0.4888820000000  0.5999020000000  0.5047810000000 1.0
C      1  0.4895570000000  0.4922730000000  0.4132050000000 1.0
C      1  0.5149180000000  0.4726300000000  0.5089950000000 1.0
C      1  0.5203990000000  0.5152150000000  0.4885160000000 1.0
C      1  0.4898610000000  0.5186550000000  0.5253920000000 1.0
C      1  0.4761700000000  0.4913790000000  0.4903080000000 1.0
C      1  0.5004700000000  0.4999730000000  0.5040720000000 1.0
END
