TITL C-3578208-4450-276 -1.0448635629436e-06 125000 -508.844270655499 0 0 82 (C1) n - 1
REM
REM in /home/bkarasulu/work/CARBON/AIRSS/Generating-Clusters/EDIP-Nigel-Params/with-SteepDescent/Higher-Symm/SD-CG/HFTN-CG
REM
REM
REM
REM
REM
REM ./C.cell (12c818d87b63d06a65506943cc24bca4)
REM
REM compiler GCC version 9.2.1 20190827 (Red Hat 9.2.1-1)
REM options -cpp -mtune=generic -march=x86-64 -g -O0 -fpre-include=/usr/include/finclude/math-vector-fortran.h
REM seed -393391620 -989818723 1622880584 -963479521 315674945 -437701722 638381361 -814544404 1056631443 -1143047982 669428357 2115845850 -1605881815 2115253233 1075828170 -1476576905 -2070759405 528106299 739065023 -641617155 -1983387185 1350496661 -1849152780 1269495123 1295315589 -188060203 -1629226025 2049248381 -170667399 -547297956 348584427 1915903522 625327525
REM
CELL 1.54180   50.00000   50.00000   50.00000   90.00000   90.00000   90.00000
LATT -1
SFAC C  
C      1  0.4479640000000  0.4712260000000  0.4847590000000 1.0
C      1  0.4964450000000  0.4653290000000  0.4439350000000 1.0
C      1  0.5363340000000  0.4481410000000  0.4790700000000 1.0
C      1  0.5383910000000  0.4721420000000  0.5401910000000 1.0
C      1  0.4781370000000  0.4636610000000  0.5418000000000 1.0
C      1  0.4574490000000  0.5364520000000  0.4972800000000 1.0
C      1  0.4968200000000  0.5269820000000  0.4450980000000 1.0
C      1  0.5466850000000  0.5361810000000  0.4740650000000 1.0
C      1  0.5480330000000  0.5298570000000  0.5331700000000 1.0
C      1  0.4795210000000  0.5376510000000  0.5434390000000 1.0
C      1  0.4918330000000  0.5661290000000  0.5429640000000 1.0
C      1  0.4613050000000  0.5675380000000  0.5035970000000 1.0
C      1  0.4844800000000  0.5541660000000  0.4527440000000 1.0
C      1  0.5116380000000  0.5680660000000  0.4962510000000 1.0
C      1  0.5408740000000  0.5600140000000  0.5370010000000 1.0
C      1  0.4934310000000  0.4368060000000  0.5326410000000 1.0
C      1  0.4610790000000  0.4303740000000  0.4948630000000 1.0
C      1  0.4776420000000  0.4323030000000  0.4483410000000 1.0
C      1  0.5135680000000  0.4270580000000  0.4826180000000 1.0
C      1  0.5426440000000  0.4438220000000  0.5329280000000 1.0
C      1  0.4544130000000  0.4783700000000  0.4177800000000 1.0
C      1  0.5551330000000  0.4764860000000  0.4430780000000 1.0
C      1  0.5782950000000  0.4916830000000  0.5156500000000 1.0
C      1  0.5072090000000  0.4851860000000  0.5798210000000 1.0
C      1  0.4155310000000  0.4923350000000  0.5153620000000 1.0
C      1  0.4524050000000  0.5099410000000  0.4198390000000 1.0
C      1  0.5463120000000  0.5129430000000  0.4340170000000 1.0
C      1  0.5903000000000  0.5162270000000  0.5093530000000 1.0
C      1  0.5099820000000  0.5142780000000  0.5762200000000 1.0
C      1  0.4117390000000  0.5210440000000  0.5207760000000 1.0
C      1  0.4429710000000  0.5675520000000  0.5258220000000 1.0
C      1  0.4575420000000  0.5577900000000  0.4658700000000 1.0
C      1  0.5083670000000  0.5669540000000  0.4664370000000 1.0
C      1  0.5387410000000  0.5696640000000  0.5084220000000 1.0
C      1  0.5190480000000  0.5680970000000  0.5554790000000 1.0
C      1  0.4417100000000  0.4449330000000  0.5115340000000 1.0
C      1  0.4552620000000  0.4317840000000  0.4658370000000 1.0
C      1  0.5046490000000  0.4234900000000  0.4540300000000 1.0
C      1  0.5634010000000  0.4331080000000  0.5175270000000 1.0
C      1  0.5197790000000  0.4294060000000  0.5452660000000 1.0
C      1  0.4294640000000  0.4945780000000  0.4898870000000 1.0
C      1  0.4854620000000  0.4808020000000  0.4203220000000 1.0
C      1  0.5695320000000  0.4893560000000  0.4647930000000 1.0
C      1  0.5633630000000  0.4889740000000  0.5412050000000 1.0
C      1  0.4808350000000  0.4824360000000  0.5664950000000 1.0
C      1  0.4291630000000  0.5256910000000  0.4895170000000 1.0
C      1  0.4829580000000  0.5116900000000  0.4224250000000 1.0
C      1  0.5641830000000  0.5176420000000  0.4569320000000 1.0
C      1  0.5591090000000  0.5134650000000  0.5549500000000 1.0
C      1  0.4826870000000  0.5194810000000  0.5670850000000 1.0
C      1  0.4340590000000  0.4494310000000  0.4565970000000 1.0
C      1  0.5189220000000  0.4439940000000  0.4367630000000 1.0
C      1  0.5626620000000  0.4475410000000  0.4935930000000 1.0
C      1  0.5191040000000  0.4394180000000  0.5718860000000 1.0
C      1  0.4485990000000  0.4609600000000  0.5349950000000 1.0
C      1  0.4344220000000  0.5368230000000  0.4603330000000 1.0
C      1  0.5324210000000  0.5541140000000  0.4542430000000 1.0
C      1  0.5602580000000  0.5534220000000  0.4946100000000 1.0
C      1  0.5213840000000  0.5567210000000  0.5811820000000 1.0
C      1  0.4501170000000  0.5439900000000  0.5398100000000 1.0
C      1  0.5712750000000  0.5357360000000  0.5152620000000 1.0
C      1  0.5213160000000  0.5327840000000  0.5938780000000 1.0
C      1  0.4305210000000  0.5233710000000  0.5427700000000 1.0
C      1  0.4388910000000  0.5129190000000  0.4450260000000 1.0
C      1  0.5249170000000  0.5333720000000  0.4343440000000 1.0
C      1  0.5684790000000  0.4769740000000  0.4924130000000 1.0
C      1  0.5266920000000  0.4666440000000  0.5682480000000 1.0
C      1  0.4330970000000  0.4854900000000  0.5373510000000 1.0
C      1  0.4400200000000  0.4745080000000  0.4433230000000 1.0
C      1  0.5436310000000  0.4509390000000  0.4500310000000 1.0
C      1  0.4940800000000  0.5230670000000  0.5205790000000 1.0
C      1  0.4805420000000  0.5188700000000  0.4957010000000 1.0
C      1  0.4996120000000  0.5115500000000  0.4730000000000 1.0
C      1  0.5257830000000  0.5185350000000  0.4867010000000 1.0
C      1  0.5229330000000  0.5145830000000  0.5161950000000 1.0
C      1  0.4893780000000  0.4791740000000  0.5193730000000 1.0
C      1  0.4793690000000  0.4704740000000  0.4922170000000 1.0
C      1  0.4996450000000  0.4807220000000  0.4718360000000 1.0
C      1  0.5244310000000  0.4742760000000  0.4875460000000 1.0
C      1  0.5195580000000  0.4839170000000  0.5171370000000 1.0
C      1  0.4902430000000  0.4347230000000  0.5020590000000 1.0
C      1  0.4891350000000  0.5749170000000  0.5137640000000 1.0
END
