TITL C-3578198-8939-200 -2.98708632779236e-06 125000 -787.041482551462 0 0 125 (C1) n - 1
REM
REM in /home/bkarasulu/work/CARBON/AIRSS/Generating-Clusters/EDIP-Nigel-Params/with-SteepDescent/Higher-Symm/SD-CG/HFTN-CG
REM
REM
REM
REM
REM
REM ./C.cell (12c818d87b63d06a65506943cc24bca4)
REM
REM compiler GCC version 9.2.1 20190827 (Red Hat 9.2.1-1)
REM options -cpp -mtune=generic -march=x86-64 -g -O0 -fpre-include=/usr/include/finclude/math-vector-fortran.h
REM seed 698024379 967223729 -122815352 -1884457786 644903208 -1732380958 -2017586355 1569142330 -641383363 1403943216 -1642163303 -791412950 -606878966 -1602078003 1744580461 -734434770 -992414194 -753011536 -1857651097 -326124135 -1464593572 -1292462440 -1535054303 -63619937 1539022464 1673034429 -432099149 1281080998 1013627625 -260862731 1691247991 -72021904 1953706969
REM
CELL 1.54180   50.00000   50.00000   50.00000   90.00000   90.00000   90.00000
LATT -1
SFAC C  
C      1  0.4049440000000  0.4828550000000  0.5302040000000 1.0
C      1  0.5973680000000  0.4808240000000  0.4694190000000 1.0
C      1  0.4920570000000  0.5331480000000  0.5673360000000 1.0
C      1  0.5085900000000  0.5330220000000  0.4342810000000 1.0
C      1  0.4296410000000  0.5603960000000  0.5462390000000 1.0
C      1  0.5679430000000  0.5611550000000  0.4506510000000 1.0
C      1  0.4866250000000  0.5395210000000  0.4751380000000 1.0
C      1  0.5136710000000  0.5414040000000  0.5253040000000 1.0
C      1  0.5649000000000  0.5107490000000  0.4450660000000 1.0
C      1  0.4359000000000  0.5066390000000  0.5631620000000 1.0
C      1  0.4098790000000  0.4823440000000  0.5021290000000 1.0
C      1  0.5917050000000  0.4807870000000  0.4971020000000 1.0
C      1  0.5019370000000  0.4446560000000  0.5262350000000 1.0
C      1  0.4988030000000  0.4465080000000  0.4759770000000 1.0
C      1  0.5103500000000  0.5037600000000  0.4847160000000 1.0
C      1  0.4969470000000  0.4963360000000  0.5275490000000 1.0
C      1  0.4379000000000  0.4576400000000  0.5596580000000 1.0
C      1  0.5621620000000  0.4581990000000  0.4407070000000 1.0
C      1  0.5230450000000  0.4607000000000  0.5099860000000 1.0
C      1  0.4787230000000  0.4635690000000  0.4913840000000 1.0
C      1  0.5374040000000  0.5453670000000  0.4803910000000 1.0
C      1  0.4598040000000  0.5470100000000  0.5168660000000 1.0
C      1  0.5511850000000  0.5009410000000  0.5054000000000 1.0
C      1  0.4513530000000  0.5031220000000  0.4945660000000 1.0
C      1  0.5178540000000  0.5272460000000  0.5520420000000 1.0
C      1  0.4833500000000  0.5258870000000  0.4492650000000 1.0
C      1  0.4429600000000  0.5710700000000  0.5053470000000 1.0
C      1  0.5551440000000  0.5680990000000  0.4924840000000 1.0
C      1  0.5343910000000  0.5076530000000  0.4408460000000 1.0
C      1  0.4659800000000  0.5053270000000  0.5627820000000 1.0
C      1  0.4593950000000  0.5374590000000  0.4041420000000 1.0
C      1  0.5425480000000  0.5374230000000  0.5965840000000 1.0
C      1  0.4532950000000  0.4415980000000  0.5391580000000 1.0
C      1  0.5463990000000  0.4422870000000  0.4612050000000 1.0
C      1  0.5180800000000  0.5605180000000  0.4421410000000 1.0
C      1  0.4794170000000  0.5590480000000  0.5575970000000 1.0
C      1  0.4502910000000  0.5695740000000  0.4466570000000 1.0
C      1  0.5497700000000  0.5668410000000  0.5508340000000 1.0
C      1  0.5193350000000  0.4735150000000  0.5696490000000 1.0
C      1  0.4808150000000  0.4746340000000  0.4305100000000 1.0
C      1  0.5027990000000  0.4167230000000  0.4784170000000 1.0
C      1  0.4979190000000  0.4151930000000  0.5226780000000 1.0
C      1  0.4633140000000  0.4831120000000  0.4743110000000 1.0
C      1  0.5401360000000  0.4812240000000  0.5260820000000 1.0
C      1  0.4802160000000  0.4567700000000  0.5429220000000 1.0
C      1  0.5194190000000  0.4588730000000  0.4590610000000 1.0
C      1  0.4783220000000  0.4091520000000  0.4977260000000 1.0
C      1  0.5223760000000  0.4087850000000  0.5024680000000 1.0
C      1  0.5280820000000  0.5242970000000  0.5001050000000 1.0
C      1  0.4678040000000  0.5288190000000  0.4955850000000 1.0
C      1  0.5115720000000  0.5593000000000  0.4719270000000 1.0
C      1  0.4858310000000  0.5595040000000  0.5276890000000 1.0
C      1  0.4997300000000  0.4243770000000  0.5704260000000 1.0
C      1  0.4998330000000  0.4262870000000  0.4308350000000 1.0
C      1  0.5754060000000  0.5539500000000  0.5086380000000 1.0
C      1  0.4227780000000  0.5572900000000  0.4880770000000 1.0
C      1  0.5814830000000  0.5306890000000  0.5546500000000 1.0
C      1  0.4198990000000  0.5314910000000  0.4437110000000 1.0
C      1  0.4521720000000  0.5611870000000  0.5626220000000 1.0
C      1  0.5447830000000  0.5641800000000  0.4357130000000 1.0
C      1  0.4209990000000  0.5076420000000  0.4893860000000 1.0
C      1  0.5811270000000  0.5063090000000  0.5092650000000 1.0
C      1  0.4153690000000  0.5076250000000  0.4595580000000 1.0
C      1  0.5867400000000  0.5064990000000  0.5395040000000 1.0
C      1  0.5201540000000  0.4947040000000  0.5454980000000 1.0
C      1  0.4808830000000  0.4950390000000  0.4531160000000 1.0
C      1  0.5756180000000  0.4843480000000  0.5556930000000 1.0
C      1  0.4261370000000  0.4852390000000  0.4441500000000 1.0
C      1  0.5392950000000  0.4518100000000  0.5617300000000 1.0
C      1  0.4611650000000  0.4529890000000  0.4390390000000 1.0
C      1  0.5260450000000  0.4891430000000  0.4646460000000 1.0
C      1  0.4744930000000  0.4866580000000  0.5396360000000 1.0
C      1  0.4589240000000  0.4574100000000  0.5831320000000 1.0
C      1  0.5410840000000  0.4576240000000  0.4179340000000 1.0
C      1  0.4609940000000  0.5423010000000  0.4343180000000 1.0
C      1  0.5406730000000  0.5420340000000  0.5663520000000 1.0
C      1  0.4372200000000  0.4950590000000  0.4175360000000 1.0
C      1  0.5637400000000  0.4948850000000  0.5812240000000 1.0
C      1  0.4143260000000  0.5335820000000  0.5039080000000 1.0
C      1  0.5853660000000  0.5314320000000  0.4924860000000 1.0
C      1  0.4320610000000  0.5243860000000  0.4157770000000 1.0
C      1  0.5700630000000  0.5238750000000  0.5831780000000 1.0
C      1  0.4513990000000  0.4885780000000  0.5219140000000 1.0
C      1  0.5507490000000  0.4847070000000  0.4799470000000 1.0
C      1  0.5071870000000  0.5206840000000  0.4051210000000 1.0
C      1  0.4943490000000  0.5202130000000  0.5958240000000 1.0
C      1  0.4876620000000  0.5856620000000  0.5084120000000 1.0
C      1  0.5109090000000  0.5853000000000  0.4897590000000 1.0
C      1  0.4301790000000  0.4840320000000  0.5445580000000 1.0
C      1  0.5711170000000  0.4835660000000  0.4575480000000 1.0
C      1  0.4291660000000  0.5825990000000  0.5285370000000 1.0
C      1  0.5691000000000  0.5812840000000  0.4703240000000 1.0
C      1  0.5352720000000  0.4898480000000  0.5897400000000 1.0
C      1  0.4657590000000  0.4893200000000  0.4085070000000 1.0
C      1  0.5110350000000  0.4549240000000  0.4302290000000 1.0
C      1  0.4887350000000  0.4530210000000  0.5714090000000 1.0
C      1  0.5356420000000  0.5857430000000  0.5063850000000 1.0
C      1  0.4626600000000  0.5893040000000  0.4926510000000 1.0
C      1  0.5144660000000  0.4097400000000  0.4507930000000 1.0
C      1  0.4849350000000  0.4083300000000  0.5498830000000 1.0
C      1  0.5274820000000  0.4263690000000  0.5644980000000 1.0
C      1  0.4720880000000  0.4272560000000  0.4364930000000 1.0
C      1  0.5293280000000  0.5750210000000  0.5321590000000 1.0
C      1  0.4638830000000  0.5861320000000  0.4648610000000 1.0
C      1  0.5256380000000  0.4983240000000  0.4130670000000 1.0
C      1  0.4774530000000  0.4969460000000  0.5886140000000 1.0
C      1  0.4437090000000  0.4435880000000  0.5093370000000 1.0
C      1  0.5577520000000  0.4422870000000  0.4901930000000 1.0
C      1  0.5605270000000  0.4635590000000  0.5407670000000 1.0
C      1  0.4418220000000  0.4657210000000  0.4605020000000 1.0
C      1  0.5426130000000  0.4275530000000  0.5086860000000 1.0
C      1  0.4602030000000  0.4299410000000  0.4911480000000 1.0
C      1  0.4574600000000  0.4144500000000  0.5485970000000 1.0
C      1  0.5419410000000  0.4153900000000  0.4511040000000 1.0
C      1  0.5235570000000  0.5147020000000  0.6030010000000 1.0
C      1  0.4782520000000  0.5150090000000  0.3967400000000 1.0
C      1  0.5421560000000  0.4796700000000  0.3998980000000 1.0
C      1  0.4593880000000  0.4794420000000  0.6014980000000 1.0
C      1  0.5707600000000  0.5339450000000  0.4638270000000 1.0
C      1  0.4264300000000  0.5355370000000  0.5310760000000 1.0
C      1  0.4264990000000  0.4599590000000  0.4911210000000 1.0
C      1  0.5743970000000  0.4592530000000  0.5078180000000 1.0
C      1  0.4271950000000  0.5555810000000  0.4587600000000 1.0
C      1  0.5723470000000  0.5529590000000  0.5379270000000 1.0
C      1  0.5010590000000  0.4826010000000  0.5026500000000 1.0
END
