TITL C-3577081-279-269 -3.39261862063951e-06 125000 -896.818736718408 0 0 142 (C1) n - 1
REM
REM in /home/bkarasulu/work/CARBON/AIRSS/Generating-Clusters/EDIP-Nigel-Params/with-SteepDescent/Higher-Symm/SD-CG/HFTN-CG
REM
REM
REM
REM
REM
REM ./C.cell (12c818d87b63d06a65506943cc24bca4)
REM
REM compiler GCC version 9.2.1 20190827 (Red Hat 9.2.1-1)
REM options -cpp -mtune=generic -march=x86-64 -g -O0 -fpre-include=/usr/include/finclude/math-vector-fortran.h
REM seed -735785409 -2133598318 1736773577 -1676187685 -417470506 865340885 -1278441435 -669610441 -1590558585 -136238713 2145417192 -1784309215 -71117560 196484131 1914669210 -1280848509 -98966883 -195834243 594523873 1856498472 -2029140982 1320124621 2065728426 -466895317 537072192 1110359778 686657166 1016292554 492365253 -488718936 1232175953 775854140 1920520095
REM
CELL 1.54180   50.00000   50.00000   50.00000   90.00000   90.00000   90.00000
LATT -1
SFAC C  
C      1  0.5588480000000  0.5272850000000  0.4314680000000 1.0
C      1  0.4235070000000  0.5323910000000  0.5400090000000 1.0
C      1  0.5088400000000  0.4879290000000  0.5516420000000 1.0
C      1  0.4325180000000  0.5829100000000  0.5029580000000 1.0
C      1  0.4350820000000  0.5823520000000  0.5328330000000 1.0
C      1  0.4349440000000  0.4636430000000  0.4735330000000 1.0
C      1  0.4739250000000  0.5259540000000  0.5412840000000 1.0
C      1  0.5723490000000  0.4322690000000  0.5300830000000 1.0
C      1  0.4610350000000  0.5863350000000  0.4944480000000 1.0
C      1  0.5163660000000  0.4356860000000  0.4163890000000 1.0
C      1  0.4613000000000  0.4753870000000  0.5442810000000 1.0
C      1  0.5156640000000  0.5922270000000  0.5222750000000 1.0
C      1  0.5098550000000  0.4061990000000  0.4749240000000 1.0
C      1  0.4959940000000  0.5729800000000  0.5704530000000 1.0
C      1  0.3975650000000  0.5270250000000  0.5242040000000 1.0
C      1  0.4755830000000  0.5115890000000  0.5937470000000 1.0
C      1  0.5752880000000  0.5258550000000  0.5597390000000 1.0
C      1  0.4109310000000  0.5067430000000  0.4571850000000 1.0
C      1  0.6096050000000  0.4668730000000  0.5095860000000 1.0
C      1  0.5636800000000  0.5557230000000  0.4346890000000 1.0
C      1  0.4745970000000  0.5432080000000  0.4118440000000 1.0
C      1  0.5521360000000  0.4435270000000  0.5722700000000 1.0
C      1  0.5350300000000  0.4084500000000  0.4906470000000 1.0
C      1  0.4669300000000  0.5665710000000  0.5695810000000 1.0
C      1  0.5063030000000  0.5034060000000  0.3879930000000 1.0
C      1  0.4609160000000  0.4257500000000  0.4848150000000 1.0
C      1  0.5108540000000  0.5533760000000  0.5826370000000 1.0
C      1  0.4972070000000  0.5742290000000  0.5391100000000 1.0
C      1  0.5654470000000  0.4971060000000  0.5562080000000 1.0
C      1  0.5422020000000  0.4155710000000  0.5651090000000 1.0
C      1  0.5236250000000  0.4568860000000  0.4820180000000 1.0
C      1  0.5728810000000  0.5106590000000  0.4502410000000 1.0
C      1  0.4799180000000  0.4508930000000  0.5393720000000 1.0
C      1  0.5412490000000  0.5795860000000  0.5140540000000 1.0
C      1  0.4494760000000  0.4849000000000  0.5181350000000 1.0
C      1  0.5228300000000  0.5055420000000  0.5755040000000 1.0
C      1  0.5233330000000  0.4862470000000  0.4728650000000 1.0
C      1  0.5066520000000  0.5439950000000  0.4177950000000 1.0
C      1  0.5662110000000  0.4950920000000  0.5032140000000 1.0
C      1  0.5539090000000  0.4107310000000  0.5379820000000 1.0
C      1  0.4647650000000  0.4214800000000  0.5591700000000 1.0
C      1  0.4254430000000  0.5253880000000  0.4389180000000 1.0
C      1  0.4374470000000  0.4817960000000  0.4280290000000 1.0
C      1  0.4576630000000  0.5463470000000  0.4360880000000 1.0
C      1  0.4071940000000  0.4844770000000  0.5316060000000 1.0
C      1  0.5083570000000  0.4405210000000  0.5783760000000 1.0
C      1  0.5877260000000  0.4673360000000  0.4674950000000 1.0
C      1  0.5481080000000  0.4916250000000  0.5804630000000 1.0
C      1  0.5036440000000  0.5872700000000  0.4460390000000 1.0
C      1  0.5228890000000  0.4860250000000  0.5250060000000 1.0
C      1  0.4960250000000  0.4480240000000  0.4698120000000 1.0
C      1  0.4601630000000  0.4390360000000  0.4364280000000 1.0
C      1  0.4483970000000  0.5213240000000  0.5232270000000 1.0
C      1  0.4474850000000  0.4384690000000  0.4622810000000 1.0
C      1  0.5323430000000  0.4044770000000  0.5197490000000 1.0
C      1  0.4144610000000  0.5124830000000  0.4862710000000 1.0
C      1  0.4916840000000  0.4529880000000  0.5991740000000 1.0
C      1  0.4745360000000  0.4679860000000  0.3989470000000 1.0
C      1  0.5174250000000  0.5940220000000  0.4727950000000 1.0
C      1  0.5212170000000  0.4783260000000  0.3945170000000 1.0
C      1  0.4350710000000  0.4973960000000  0.5719340000000 1.0
C      1  0.4704890000000  0.5213130000000  0.4504450000000 1.0
C      1  0.5767880000000  0.5448400000000  0.5174180000000 1.0
C      1  0.5693070000000  0.4428700000000  0.5027450000000 1.0
C      1  0.4336010000000  0.5258720000000  0.5674650000000 1.0
C      1  0.4594970000000  0.4137510000000  0.5316920000000 1.0
C      1  0.4855020000000  0.4107610000000  0.4915440000000 1.0
C      1  0.5526110000000  0.5458770000000  0.5593130000000 1.0
C      1  0.5411330000000  0.5784440000000  0.4829310000000 1.0
C      1  0.5827860000000  0.5293790000000  0.4708690000000 1.0
C      1  0.4376150000000  0.5092170000000  0.4181250000000 1.0
C      1  0.4321290000000  0.4600980000000  0.5052490000000 1.0
C      1  0.5269460000000  0.5378680000000  0.5203750000000 1.0
C      1  0.4508970000000  0.4428340000000  0.5720390000000 1.0
C      1  0.4531700000000  0.4593320000000  0.4174930000000 1.0
C      1  0.5677330000000  0.5556140000000  0.4645470000000 1.0
C      1  0.5170460000000  0.5724480000000  0.4235280000000 1.0
C      1  0.4818290000000  0.4965640000000  0.4049760000000 1.0
C      1  0.4939050000000  0.5334630000000  0.4633680000000 1.0
C      1  0.5949960000000  0.5344980000000  0.5390810000000 1.0
C      1  0.4515290000000  0.5123630000000  0.4718640000000 1.0
C      1  0.5839870000000  0.5201440000000  0.4996490000000 1.0
C      1  0.4615340000000  0.5178300000000  0.4022970000000 1.0
C      1  0.5166580000000  0.4986990000000  0.4422490000000 1.0
C      1  0.4962280000000  0.5467320000000  0.5255880000000 1.0
C      1  0.5871240000000  0.4769580000000  0.5528940000000 1.0
C      1  0.4820320000000  0.4978070000000  0.5462500000000 1.0
C      1  0.4217110000000  0.5605020000000  0.5421340000000 1.0
C      1  0.5093360000000  0.4266890000000  0.4531810000000 1.0
C      1  0.5388330000000  0.4422590000000  0.4333300000000 1.0
C      1  0.4668620000000  0.4626800000000  0.5862290000000 1.0
C      1  0.5010100000000  0.4947280000000  0.4940330000000 1.0
C      1  0.5518340000000  0.4309820000000  0.4829630000000 1.0
C      1  0.4311640000000  0.4531020000000  0.5549670000000 1.0
C      1  0.6102600000000  0.5123960000000  0.5266470000000 1.0
C      1  0.5752290000000  0.4494070000000  0.5542590000000 1.0
C      1  0.5028220000000  0.6015540000000  0.4975890000000 1.0
C      1  0.5712310000000  0.4811450000000  0.4500530000000 1.0
C      1  0.4631080000000  0.5352930000000  0.5694610000000 1.0
C      1  0.4885870000000  0.5609610000000  0.4703900000000 1.0
C      1  0.4506190000000  0.5360970000000  0.4963230000000 1.0
C      1  0.5354450000000  0.4884230000000  0.4189250000000 1.0
C      1  0.5084810000000  0.3989870000000  0.5351490000000 1.0
C      1  0.4495970000000  0.5876290000000  0.4677240000000 1.0
C      1  0.5500950000000  0.5539760000000  0.5291260000000 1.0
C      1  0.4609870000000  0.5828980000000  0.5451260000000 1.0
C      1  0.5006470000000  0.5224070000000  0.4888390000000 1.0
C      1  0.4596170000000  0.4814130000000  0.4734390000000 1.0
C      1  0.4744570000000  0.4790980000000  0.4990830000000 1.0
C      1  0.4194820000000  0.4787150000000  0.4511090000000 1.0
C      1  0.4762910000000  0.6105440000000  0.4998220000000 1.0
C      1  0.5370180000000  0.5497360000000  0.4707640000000 1.0
C      1  0.4256620000000  0.5545120000000  0.4936270000000 1.0
C      1  0.5109650000000  0.4737570000000  0.6072440000000 1.0
C      1  0.5030900000000  0.4555730000000  0.3995370000000 1.0
C      1  0.4193450000000  0.4783690000000  0.5560550000000 1.0
C      1  0.4878500000000  0.4514820000000  0.5077250000000 1.0
C      1  0.5042180000000  0.5021200000000  0.5989080000000 1.0
C      1  0.5223670000000  0.5275190000000  0.3967600000000 1.0
C      1  0.5423460000000  0.4648970000000  0.5911170000000 1.0
C      1  0.5529080000000  0.4679300000000  0.4312550000000 1.0
C      1  0.4780270000000  0.4690710000000  0.4524100000000 1.0
C      1  0.4677350000000  0.5720760000000  0.4510570000000 1.0
C      1  0.4751170000000  0.5575240000000  0.4980140000000 1.0
C      1  0.5054460000000  0.4571420000000  0.5539010000000 1.0
C      1  0.6057540000000  0.4842930000000  0.5311050000000 1.0
C      1  0.5467840000000  0.5144610000000  0.4090090000000 1.0
C      1  0.5135980000000  0.4058990000000  0.5636820000000 1.0
C      1  0.3990170000000  0.5011880000000  0.5107930000000 1.0
C      1  0.3993530000000  0.5447540000000  0.5012380000000 1.0
C      1  0.4477810000000  0.4333350000000  0.5099990000000 1.0
C      1  0.5513210000000  0.4938070000000  0.5290360000000 1.0
C      1  0.4561520000000  0.4895320000000  0.5909290000000 1.0
C      1  0.5275690000000  0.5349730000000  0.5706910000000 1.0
C      1  0.5451440000000  0.5032910000000  0.4840900000000 1.0
C      1  0.5180590000000  0.4582550000000  0.5115680000000 1.0
C      1  0.5838430000000  0.4677090000000  0.4958630000000 1.0
C      1  0.4837210000000  0.4019920000000  0.5194190000000 1.0
C      1  0.5166600000000  0.5303180000000  0.4443190000000 1.0
C      1  0.5447720000000  0.5732670000000  0.4244140000000 1.0
C      1  0.4870240000000  0.4951020000000  0.4360560000000 1.0
C      1  0.5299470000000  0.5287820000000  0.4920690000000 1.0
END
