TITL C-3578195-8548-657 -6.68617401876276e-07 125000 -1219.60997272784 0 0 193 (C1) n - 1
REM
REM in /home/bkarasulu/work/CARBON/AIRSS/Generating-Clusters/EDIP-Nigel-Params/with-SteepDescent/Higher-Symm/SD-CG/HFTN-CG
REM
REM
REM
REM
REM
REM ./C.cell (12c818d87b63d06a65506943cc24bca4)
REM
REM compiler GCC version 9.2.1 20190827 (Red Hat 9.2.1-1)
REM options -cpp -mtune=generic -march=x86-64 -g -O0 -fpre-include=/usr/include/finclude/math-vector-fortran.h
REM seed 614439328 299136690 -1208909411 -1711219813 -673672691 -976723966 1366833611 2121257132 1918241152 1046758383 -1071214349 1266747780 -1859441862 -274394234 -2088628033 -990666234 -1088885469 44152192 -236430379 2039359601 1784757411 908977291 -985386496 1543088667 -43466655 -1500723080 -415082743 -576436051 -2079501719 -575454943 -170871482 -108250977 -471134298
REM
CELL 1.54180   50.00000   50.00000   50.00000   90.00000   90.00000   90.00000
LATT -1
SFAC C  
C      1  0.4891430000000  0.4093220000000  0.4739740000000 1.0
C      1  0.4818570000000  0.5604030000000  0.4551340000000 1.0
C      1  0.4693750000000  0.5364660000000  0.4990110000000 1.0
C      1  0.5579790000000  0.5083230000000  0.4103630000000 1.0
C      1  0.5475930000000  0.5072070000000  0.5715360000000 1.0
C      1  0.5076120000000  0.5930250000000  0.4299680000000 1.0
C      1  0.4575180000000  0.5235700000000  0.5573610000000 1.0
C      1  0.3723130000000  0.5004160000000  0.5316380000000 1.0
C      1  0.4068640000000  0.4845630000000  0.4283430000000 1.0
C      1  0.5268240000000  0.3962980000000  0.4996240000000 1.0
C      1  0.4975400000000  0.5160200000000  0.4504180000000 1.0
C      1  0.4042320000000  0.5731780000000  0.5304430000000 1.0
C      1  0.4341530000000  0.5320090000000  0.5740790000000 1.0
C      1  0.5436200000000  0.4633790000000  0.4189690000000 1.0
C      1  0.5361970000000  0.5730860000000  0.5536160000000 1.0
C      1  0.4691950000000  0.4786010000000  0.5193810000000 1.0
C      1  0.4557180000000  0.4752290000000  0.4031080000000 1.0
C      1  0.4899810000000  0.4561220000000  0.4527110000000 1.0
C      1  0.5153390000000  0.6092920000000  0.4541130000000 1.0
C      1  0.4833350000000  0.4710530000000  0.6110840000000 1.0
C      1  0.5477010000000  0.4202190000000  0.5038920000000 1.0
C      1  0.3922820000000  0.4919470000000  0.4532120000000 1.0
C      1  0.5615240000000  0.5453300000000  0.5195610000000 1.0
C      1  0.3930100000000  0.5595410000000  0.5087810000000 1.0
C      1  0.5561970000000  0.4750700000000  0.5104530000000 1.0
C      1  0.5985830000000  0.5673890000000  0.4993340000000 1.0
C      1  0.3881590000000  0.4787520000000  0.5436700000000 1.0
C      1  0.5271340000000  0.4452740000000  0.4026930000000 1.0
C      1  0.4464590000000  0.4082810000000  0.5412620000000 1.0
C      1  0.4643040000000  0.5509650000000  0.4036780000000 1.0
C      1  0.5093820000000  0.4265540000000  0.5889950000000 1.0
C      1  0.5155650000000  0.5090420000000  0.6081810000000 1.0
C      1  0.5943320000000  0.5100850000000  0.5221020000000 1.0
C      1  0.4974450000000  0.4258500000000  0.5328610000000 1.0
C      1  0.4895460000000  0.5583170000000  0.3942250000000 1.0
C      1  0.5151130000000  0.5487860000000  0.5127090000000 1.0
C      1  0.5460940000000  0.5306450000000  0.4521810000000 1.0
C      1  0.4693410000000  0.4106680000000  0.5786730000000 1.0
C      1  0.6015370000000  0.4649410000000  0.4526850000000 1.0
C      1  0.5436690000000  0.4578220000000  0.4505400000000 1.0
C      1  0.4535070000000  0.4445260000000  0.4036700000000 1.0
C      1  0.5322640000000  0.3955430000000  0.4521370000000 1.0
C      1  0.5869870000000  0.4906230000000  0.4429700000000 1.0
C      1  0.4887690000000  0.5037120000000  0.3870000000000 1.0
C      1  0.4761350000000  0.5847890000000  0.4382090000000 1.0
C      1  0.5505640000000  0.5390060000000  0.6026310000000 1.0
C      1  0.4665350000000  0.6038080000000  0.4613000000000 1.0
C      1  0.4433880000000  0.5158280000000  0.5985790000000 1.0
C      1  0.4178840000000  0.5098660000000  0.4172890000000 1.0
C      1  0.5217100000000  0.4439980000000  0.5374560000000 1.0
C      1  0.4937470000000  0.6047140000000  0.4744560000000 1.0
C      1  0.4572880000000  0.4838330000000  0.4411580000000 1.0
C      1  0.5682050000000  0.5479320000000  0.5793150000000 1.0
C      1  0.6007280000000  0.5337930000000  0.5399230000000 1.0
C      1  0.4261110000000  0.4464350000000  0.5314390000000 1.0
C      1  0.4796120000000  0.4322790000000  0.4129250000000 1.0
C      1  0.4461490000000  0.4228590000000  0.4447070000000 1.0
C      1  0.5088130000000  0.5136400000000  0.4043850000000 1.0
C      1  0.5345830000000  0.4203630000000  0.4131630000000 1.0
C      1  0.3918300000000  0.5305390000000  0.5167200000000 1.0
C      1  0.4526030000000  0.5694940000000  0.4235120000000 1.0
C      1  0.4821970000000  0.5606260000000  0.5538650000000 1.0
C      1  0.5475190000000  0.4118440000000  0.4363040000000 1.0
C      1  0.6065370000000  0.5234560000000  0.4760000000000 1.0
C      1  0.4295330000000  0.5611230000000  0.5713810000000 1.0
C      1  0.5123890000000  0.4992770000000  0.4303380000000 1.0
C      1  0.4972050000000  0.5268720000000  0.5038070000000 1.0
C      1  0.4775060000000  0.4269130000000  0.4443700000000 1.0
C      1  0.5250850000000  0.4118140000000  0.5688450000000 1.0
C      1  0.4054540000000  0.5189710000000  0.4611160000000 1.0
C      1  0.4983370000000  0.4551720000000  0.4055810000000 1.0
C      1  0.6051490000000  0.4828350000000  0.5239000000000 1.0
C      1  0.4515900000000  0.4559070000000  0.5168190000000 1.0
C      1  0.4627110000000  0.4399900000000  0.4964690000000 1.0
C      1  0.5439140000000  0.6034930000000  0.4637960000000 1.0
C      1  0.5375970000000  0.5320550000000  0.5283090000000 1.0
C      1  0.5229880000000  0.5640390000000  0.4852160000000 1.0
C      1  0.4300540000000  0.4272380000000  0.4691850000000 1.0
C      1  0.4331310000000  0.5172240000000  0.4729020000000 1.0
C      1  0.5627910000000  0.5724580000000  0.5643290000000 1.0
C      1  0.3928970000000  0.4774360000000  0.4995690000000 1.0
C      1  0.5808120000000  0.4655450000000  0.5292340000000 1.0
C      1  0.4812020000000  0.3897310000000  0.5612630000000 1.0
C      1  0.5583460000000  0.5888860000000  0.4417890000000 1.0
C      1  0.4448370000000  0.4170100000000  0.4936920000000 1.0
C      1  0.4931540000000  0.5679100000000  0.5268700000000 1.0
C      1  0.5346920000000  0.4485850000000  0.5094770000000 1.0
C      1  0.5599620000000  0.5135560000000  0.6143040000000 1.0
C      1  0.4819610000000  0.4753390000000  0.3880350000000 1.0
C      1  0.5319880000000  0.5350280000000  0.5585010000000 1.0
C      1  0.5436260000000  0.4303300000000  0.5541560000000 1.0
C      1  0.5045580000000  0.4595160000000  0.6253900000000 1.0
C      1  0.4493380000000  0.5907340000000  0.4828800000000 1.0
C      1  0.5409670000000  0.4639950000000  0.5942670000000 1.0
C      1  0.4672170000000  0.5142910000000  0.4404110000000 1.0
C      1  0.5560560000000  0.4513120000000  0.5722520000000 1.0
C      1  0.5726680000000  0.5672340000000  0.4821940000000 1.0
C      1  0.5619510000000  0.4330110000000  0.4520010000000 1.0
C      1  0.5062740000000  0.3995890000000  0.5475560000000 1.0
C      1  0.4710560000000  0.5223440000000  0.6070580000000 1.0
C      1  0.5674550000000  0.4237180000000  0.4808460000000 1.0
C      1  0.4547020000000  0.4934540000000  0.5487850000000 1.0
C      1  0.4251910000000  0.5773980000000  0.5483660000000 1.0
C      1  0.4728400000000  0.4349510000000  0.5486560000000 1.0
C      1  0.5957900000000  0.5199400000000  0.4489620000000 1.0
C      1  0.5021740000000  0.5438740000000  0.4407850000000 1.0
C      1  0.5676200000000  0.4892360000000  0.4858900000000 1.0
C      1  0.4217740000000  0.4559430000000  0.4654930000000 1.0
C      1  0.5340640000000  0.5751400000000  0.4303950000000 1.0
C      1  0.5729280000000  0.4605000000000  0.4127730000000 1.0
C      1  0.3744200000000  0.4986020000000  0.5036840000000 1.0
C      1  0.4935320000000  0.5741190000000  0.4802290000000 1.0
C      1  0.4829020000000  0.5352280000000  0.5659660000000 1.0
C      1  0.5105490000000  0.5155360000000  0.4794250000000 1.0
C      1  0.5465320000000  0.5850490000000  0.4879110000000 1.0
C      1  0.4496040000000  0.5132290000000  0.4974890000000 1.0
C      1  0.5623210000000  0.4189040000000  0.5311910000000 1.0
C      1  0.4260040000000  0.4732080000000  0.5750540000000 1.0
C      1  0.4525890000000  0.5350090000000  0.4582970000000 1.0
C      1  0.4980790000000  0.4720480000000  0.4292650000000 1.0
C      1  0.4980440000000  0.5105840000000  0.5286320000000 1.0
C      1  0.4687070000000  0.4728670000000  0.4672750000000 1.0
C      1  0.5050520000000  0.5201750000000  0.5559610000000 1.0
C      1  0.4557800000000  0.6036860000000  0.5138090000000 1.0
C      1  0.5268460000000  0.5541170000000  0.4513670000000 1.0
C      1  0.5407890000000  0.4958050000000  0.5995600000000 1.0
C      1  0.4271800000000  0.5741440000000  0.4689500000000 1.0
C      1  0.4290720000000  0.4663950000000  0.4385410000000 1.0
C      1  0.5190170000000  0.5376190000000  0.6008000000000 1.0
C      1  0.4161520000000  0.5266620000000  0.5326730000000 1.0
C      1  0.5092840000000  0.5431030000000  0.4093180000000 1.0
C      1  0.4803990000000  0.4654850000000  0.5601160000000 1.0
C      1  0.4331420000000  0.4473820000000  0.5637900000000 1.0
C      1  0.5026460000000  0.4818250000000  0.5236610000000 1.0
C      1  0.5877420000000  0.5580170000000  0.5271580000000 1.0
C      1  0.4635700000000  0.5994860000000  0.5640580000000 1.0
C      1  0.5907080000000  0.4350500000000  0.4936310000000 1.0
C      1  0.4803090000000  0.4513880000000  0.5880140000000 1.0
C      1  0.4825020000000  0.6142370000000  0.5160570000000 1.0
C      1  0.4339000000000  0.4402970000000  0.4241500000000 1.0
C      1  0.5298710000000  0.5950730000000  0.5351290000000 1.0
C      1  0.4912400000000  0.4311490000000  0.4988420000000 1.0
C      1  0.5425180000000  0.5046940000000  0.4367700000000 1.0
C      1  0.4666180000000  0.3949020000000  0.4886390000000 1.0
C      1  0.5832680000000  0.5793120000000  0.5462820000000 1.0
C      1  0.4783200000000  0.5786900000000  0.5757950000000 1.0
C      1  0.5386350000000  0.4860720000000  0.5518950000000 1.0
C      1  0.5114870000000  0.4522120000000  0.4925110000000 1.0
C      1  0.4874330000000  0.5462920000000  0.5952220000000 1.0
C      1  0.4729640000000  0.5660790000000  0.5028780000000 1.0
C      1  0.6172060000000  0.4748380000000  0.4997140000000 1.0
C      1  0.5637180000000  0.5380810000000  0.4114360000000 1.0
C      1  0.5857620000000  0.4361890000000  0.5232730000000 1.0
C      1  0.5205210000000  0.4473540000000  0.6057620000000 1.0
C      1  0.4425440000000  0.5045920000000  0.4015060000000 1.0
C      1  0.5858220000000  0.4449140000000  0.4363680000000 1.0
C      1  0.5736430000000  0.5405620000000  0.4414160000000 1.0
C      1  0.4346940000000  0.5556140000000  0.4447480000000 1.0
C      1  0.5018620000000  0.5955910000000  0.5265400000000 1.0
C      1  0.6146310000000  0.5492190000000  0.4846630000000 1.0
C      1  0.4626540000000  0.3847270000000  0.5386230000000 1.0
C      1  0.4465140000000  0.5957540000000  0.5415700000000 1.0
C      1  0.5110250000000  0.4697400000000  0.5496480000000 1.0
C      1  0.4442600000000  0.4885130000000  0.5894930000000 1.0
C      1  0.3987970000000  0.4604630000000  0.5228420000000 1.0
C      1  0.4055850000000  0.5660790000000  0.4846860000000 1.0
C      1  0.4482130000000  0.4307220000000  0.5834730000000 1.0
C      1  0.4889950000000  0.4991920000000  0.6038490000000 1.0
C      1  0.5470610000000  0.5986750000000  0.5134530000000 1.0
C      1  0.5388000000000  0.5555770000000  0.4067710000000 1.0
C      1  0.4104640000000  0.5190320000000  0.5607050000000 1.0
C      1  0.4290730000000  0.4175010000000  0.5204280000000 1.0
C      1  0.5737890000000  0.4700180000000  0.5583100000000 1.0
C      1  0.4115690000000  0.4897090000000  0.5568620000000 1.0
C      1  0.4124950000000  0.5346630000000  0.4360940000000 1.0
C      1  0.4788590000000  0.3818300000000  0.5133100000000 1.0
C      1  0.5146470000000  0.3933400000000  0.4733000000000 1.0
C      1  0.5644680000000  0.5364660000000  0.4924200000000 1.0
C      1  0.4353240000000  0.5065490000000  0.5235900000000 1.0
C      1  0.3973870000000  0.4696160000000  0.4727960000000 1.0
C      1  0.5397690000000  0.5231780000000  0.4802480000000 1.0
C      1  0.5772400000000  0.5684560000000  0.4526210000000 1.0
C      1  0.5165640000000  0.4538720000000  0.4651110000000 1.0
C      1  0.5777130000000  0.5051640000000  0.5712560000000 1.0
C      1  0.4656800000000  0.5215100000000  0.4098450000000 1.0
C      1  0.5395740000000  0.4973060000000  0.5243340000000 1.0
C      1  0.5813090000000  0.4893430000000  0.4133680000000 1.0
C      1  0.5846130000000  0.5140470000000  0.4936590000000 1.0
C      1  0.5587790000000  0.4852730000000  0.4565250000000 1.0
C      1  0.4668800000000  0.4898830000000  0.4920280000000 1.0
C      1  0.6008470000000  0.4601260000000  0.4822010000000 1.0
C      1  0.5088530000000  0.3849400000000  0.5204840000000 1.0
C      1  0.5911070000000  0.5305870000000  0.5687800000000 1.0
END
