TITL C-3577091-527-643 -2.04147726837297e-06 125000 -1130.10208663252 0 0 182 (C1) n - 1
REM
REM in /home/bkarasulu/work/CARBON/AIRSS/Generating-Clusters/EDIP-Nigel-Params/with-SteepDescent/Higher-Symm/SD-CG/HFTN-CG
REM
REM
REM
REM
REM
REM ./C.cell (12c818d87b63d06a65506943cc24bca4)
REM
REM compiler GCC version 9.2.1 20190827 (Red Hat 9.2.1-1)
REM options -cpp -mtune=generic -march=x86-64 -g -O0 -fpre-include=/usr/include/finclude/math-vector-fortran.h
REM seed -1989829651 -1126026804 1010755247 -1716476152 -1111404176 1941466799 -1676190444 1434088254 1186666480 1173216109 412775611 1980131243 625173050 -1381366289 9856499 -855642296 -1004270751 375202331 -1189237506 845199768 850404825 -389623988 1318625105 749041233 -543068090 -1510614435 -944482525 -1998501347 -1267272252 -1895124243 -1686928897 -1683032953 1156261721
REM
CELL 1.54180   50.00000   50.00000   50.00000   90.00000   90.00000   90.00000
LATT -1
SFAC C  
C      1  0.5122470000000  0.4864010000000  0.4770710000000 1.0
C      1  0.4795760000000  0.5157800000000  0.4756890000000 1.0
C      1  0.5146320000000  0.4921590000000  0.5207820000000 1.0
C      1  0.4807460000000  0.5200880000000  0.5198320000000 1.0
C      1  0.5097210000000  0.5168840000000  0.4807630000000 1.0
C      1  0.4805670000000  0.4839180000000  0.4792700000000 1.0
C      1  0.5112780000000  0.5220120000000  0.5110170000000 1.0
C      1  0.4838380000000  0.4877010000000  0.5178840000000 1.0
C      1  0.6004400000000  0.4712950000000  0.5623590000000 1.0
C      1  0.4086610000000  0.5171650000000  0.5621020000000 1.0
C      1  0.6049870000000  0.4686630000000  0.4399580000000 1.0
C      1  0.4031810000000  0.5220990000000  0.4389340000000 1.0
C      1  0.5922500000000  0.5232870000000  0.5614030000000 1.0
C      1  0.3945880000000  0.4664520000000  0.5595810000000 1.0
C      1  0.6058930000000  0.5242540000000  0.4380780000000 1.0
C      1  0.3905750000000  0.4680630000000  0.4397460000000 1.0
C      1  0.5562850000000  0.5961370000000  0.5351980000000 1.0
C      1  0.4567920000000  0.4033820000000  0.5327920000000 1.0
C      1  0.5616620000000  0.6014130000000  0.4712220000000 1.0
C      1  0.4553870000000  0.4006160000000  0.4686790000000 1.0
C      1  0.5421260000000  0.4060680000000  0.5353110000000 1.0
C      1  0.4441920000000  0.5946640000000  0.5379230000000 1.0
C      1  0.5437980000000  0.4008060000000  0.4723840000000 1.0
C      1  0.4373710000000  0.6002870000000  0.4730920000000 1.0
C      1  0.5939050000000  0.4411420000000  0.4442390000000 1.0
C      1  0.4062690000000  0.5520650000000  0.4414980000000 1.0
C      1  0.5892730000000  0.4443370000000  0.5593070000000 1.0
C      1  0.4110250000000  0.5469630000000  0.5633130000000 1.0
C      1  0.5979900000000  0.5531790000000  0.4409610000000 1.0
C      1  0.4065770000000  0.4428080000000  0.4408540000000 1.0
C      1  0.5938350000000  0.5534320000000  0.5592230000000 1.0
C      1  0.4072300000000  0.4402140000000  0.5564520000000 1.0
C      1  0.5582280000000  0.4740440000000  0.5228970000000 1.0
C      1  0.4372500000000  0.5256090000000  0.5214890000000 1.0
C      1  0.5601510000000  0.4737400000000  0.4750510000000 1.0
C      1  0.4342230000000  0.5272980000000  0.4771690000000 1.0
C      1  0.5618790000000  0.5255670000000  0.5217310000000 1.0
C      1  0.4396430000000  0.4726720000000  0.5195590000000 1.0
C      1  0.5631630000000  0.5311950000000  0.4726870000000 1.0
C      1  0.4378920000000  0.4723660000000  0.4752610000000 1.0
C      1  0.4557480000000  0.4482660000000  0.5110610000000 1.0
C      1  0.5491790000000  0.5508840000000  0.5133780000000 1.0
C      1  0.4541440000000  0.4476080000000  0.4814110000000 1.0
C      1  0.5507540000000  0.5558030000000  0.4838450000000 1.0
C      1  0.4501670000000  0.5519400000000  0.5136440000000 1.0
C      1  0.5424780000000  0.4503250000000  0.5121140000000 1.0
C      1  0.4468190000000  0.5542090000000  0.4843830000000 1.0
C      1  0.5453440000000  0.4485710000000  0.4818990000000 1.0
C      1  0.5520540000000  0.5673910000000  0.5888550000000 1.0
C      1  0.4526900000000  0.4402140000000  0.5820380000000 1.0
C      1  0.5500300000000  0.5571040000000  0.4168070000000 1.0
C      1  0.4545950000000  0.4438860000000  0.4137530000000 1.0
C      1  0.5441800000000  0.4441080000000  0.5856580000000 1.0
C      1  0.4598330000000  0.5551310000000  0.5872830000000 1.0
C      1  0.5474510000000  0.4318960000000  0.4199910000000 1.0
C      1  0.4537910000000  0.5603820000000  0.4151350000000 1.0
C      1  0.5970080000000  0.5597480000000  0.4708590000000 1.0
C      1  0.4103760000000  0.4355250000000  0.4700120000000 1.0
C      1  0.5936980000000  0.5585450000000  0.5299800000000 1.0
C      1  0.4126970000000  0.4358650000000  0.5275200000000 1.0
C      1  0.5890930000000  0.4372600000000  0.4733210000000 1.0
C      1  0.4032540000000  0.5586310000000  0.4712300000000 1.0
C      1  0.5850070000000  0.4392030000000  0.5302690000000 1.0
C      1  0.4078030000000  0.5562850000000  0.5346050000000 1.0
C      1  0.4297820000000  0.5732010000000  0.5221450000000 1.0
C      1  0.5596020000000  0.4257690000000  0.5194110000000 1.0
C      1  0.4248830000000  0.5755210000000  0.4852740000000 1.0
C      1  0.5629270000000  0.4231110000000  0.4833770000000 1.0
C      1  0.4387980000000  0.4234030000000  0.5171680000000 1.0
C      1  0.5697890000000  0.5739420000000  0.5197480000000 1.0
C      1  0.4366990000000  0.4220920000000  0.4804970000000 1.0
C      1  0.5735830000000  0.5764980000000  0.4835470000000 1.0
C      1  0.5505610000000  0.4865140000000  0.5496050000000 1.0
C      1  0.4450260000000  0.5136710000000  0.5481580000000 1.0
C      1  0.5511130000000  0.4883180000000  0.4509730000000 1.0
C      1  0.4402130000000  0.5161230000000  0.4500630000000 1.0
C      1  0.5556810000000  0.5160500000000  0.5500950000000 1.0
C      1  0.4468500000000  0.4843470000000  0.5450170000000 1.0
C      1  0.5498130000000  0.5184640000000  0.4484540000000 1.0
C      1  0.4437480000000  0.4858680000000  0.4505660000000 1.0
C      1  0.5368650000000  0.4727640000000  0.5834210000000 1.0
C      1  0.4773840000000  0.5330650000000  0.5968110000000 1.0
C      1  0.5360920000000  0.4547750000000  0.4070270000000 1.0
C      1  0.4676490000000  0.5365960000000  0.4055310000000 1.0
C      1  0.5428860000000  0.5394510000000  0.5917730000000 1.0
C      1  0.4607880000000  0.4640530000000  0.5958630000000 1.0
C      1  0.5435130000000  0.5284540000000  0.4177220000000 1.0
C      1  0.4661150000000  0.4703700000000  0.4069770000000 1.0
C      1  0.5585000000000  0.6202480000000  0.4915260000000 1.0
C      1  0.4612020000000  0.3818450000000  0.4881850000000 1.0
C      1  0.5547940000000  0.6178350000000  0.5180140000000 1.0
C      1  0.4629090000000  0.3832280000000  0.5148390000000 1.0
C      1  0.5381790000000  0.3823320000000  0.4922060000000 1.0
C      1  0.4422560000000  0.6183220000000  0.4937930000000 1.0
C      1  0.5367540000000  0.3845770000000  0.5187910000000 1.0
C      1  0.4459520000000  0.6159950000000  0.5203030000000 1.0
C      1  0.5267010000000  0.5721700000000  0.4288580000000 1.0
C      1  0.4743640000000  0.4217700000000  0.4236310000000 1.0
C      1  0.5287200000000  0.5835190000000  0.5787880000000 1.0
C      1  0.4732510000000  0.4197720000000  0.5794210000000 1.0
C      1  0.5250470000000  0.4137440000000  0.4273900000000 1.0
C      1  0.4733050000000  0.5809950000000  0.4230680000000 1.0
C      1  0.5228590000000  0.4243000000000  0.5806260000000 1.0
C      1  0.4742820000000  0.5797360000000  0.5800150000000 1.0
C      1  0.5694340000000  0.4359670000000  0.5769260000000 1.0
C      1  0.4335200000000  0.5548270000000  0.5778330000000 1.0
C      1  0.5742300000000  0.4295960000000  0.4280860000000 1.0
C      1  0.4286960000000  0.5613150000000  0.4274210000000 1.0
C      1  0.5757500000000  0.5690080000000  0.5737930000000 1.0
C      1  0.4266890000000  0.4330260000000  0.5750550000000 1.0
C      1  0.5760390000000  0.5626600000000  0.4259900000000 1.0
C      1  0.4284870000000  0.4410330000000  0.4232290000000 1.0
C      1  0.6154430000000  0.5092960000000  0.4163160000000 1.0
C      1  0.3902780000000  0.4849550000000  0.4175070000000 1.0
C      1  0.6024710000000  0.5099100000000  0.5845210000000 1.0
C      1  0.3877390000000  0.4783120000000  0.5841000000000 1.0
C      1  0.6150610000000  0.4821480000000  0.4174980000000 1.0
C      1  0.3934190000000  0.5114250000000  0.4141420000000 1.0
C      1  0.6091720000000  0.4837500000000  0.5858870000000 1.0
C      1  0.3985840000000  0.5029950000000  0.5847440000000 1.0
C      1  0.4781100000000  0.5580400000000  0.5205340000000 1.0
C      1  0.5145050000000  0.4478260000000  0.5211290000000 1.0
C      1  0.4693830000000  0.5682390000000  0.4703660000000 1.0
C      1  0.5234680000000  0.4399090000000  0.4635540000000 1.0
C      1  0.4834670000000  0.4437720000000  0.5210030000000 1.0
C      1  0.5216090000000  0.5486890000000  0.5202660000000 1.0
C      1  0.4795760000000  0.4410370000000  0.4675470000000 1.0
C      1  0.5265070000000  0.5704800000000  0.4725710000000 1.0
C      1  0.4110050000000  0.4640600000000  0.5151630000000 1.0
C      1  0.5910990000000  0.5306170000000  0.5162380000000 1.0
C      1  0.4096760000000  0.4640310000000  0.4825160000000 1.0
C      1  0.5921520000000  0.5313700000000  0.4820820000000 1.0
C      1  0.4074870000000  0.5297510000000  0.5181340000000 1.0
C      1  0.5869260000000  0.4669570000000  0.5172960000000 1.0
C      1  0.4049230000000  0.5304420000000  0.4840110000000 1.0
C      1  0.5884190000000  0.4663510000000  0.4835940000000 1.0
C      1  0.4862690000000  0.4545200000000  0.4417540000000 1.0
C      1  0.5133470000000  0.5545650000000  0.4518950000000 1.0
C      1  0.4829060000000  0.4512710000000  0.5517150000000 1.0
C      1  0.5177220000000  0.5541980000000  0.5482080000000 1.0
C      1  0.4821500000000  0.5542810000000  0.4487790000000 1.0
C      1  0.5169440000000  0.4566980000000  0.4401450000000 1.0
C      1  0.4868290000000  0.5533790000000  0.5481370000000 1.0
C      1  0.5138780000000  0.4548910000000  0.5509640000000 1.0
C      1  0.4958570000000  0.5433940000000  0.4032620000000 1.0
C      1  0.5096010000000  0.4495230000000  0.3977430000000 1.0
C      1  0.5009190000000  0.5476870000000  0.6031820000000 1.0
C      1  0.5095370000000  0.4838190000000  0.5902620000000 1.0
C      1  0.4907810000000  0.4700190000000  0.3953820000000 1.0
C      1  0.5149990000000  0.5226850000000  0.4105350000000 1.0
C      1  0.4892010000000  0.4624290000000  0.5939860000000 1.0
C      1  0.5244690000000  0.5359410000000  0.6126540000000 1.0
C      1  0.5322100000000  0.5889770000000  0.5501190000000 1.0
C      1  0.4798920000000  0.4122100000000  0.5510740000000 1.0
C      1  0.5366150000000  0.5937350000000  0.4582660000000 1.0
C      1  0.4800640000000  0.4133760000000  0.4557790000000 1.0
C      1  0.5185450000000  0.4161430000000  0.5514990000000 1.0
C      1  0.4683530000000  0.5872660000000  0.5524340000000 1.0
C      1  0.5190570000000  0.4113040000000  0.4571240000000 1.0
C      1  0.4610630000000  0.5926170000000  0.4580380000000 1.0
C      1  0.4708140000000  0.5251560000000  0.4482110000000 1.0
C      1  0.5225430000000  0.4832540000000  0.4499310000000 1.0
C      1  0.4769400000000  0.5233210000000  0.5539300000000 1.0
C      1  0.5207970000000  0.4853570000000  0.5482740000000 1.0
C      1  0.4731240000000  0.4810230000000  0.4488540000000 1.0
C      1  0.5221570000000  0.5273090000000  0.4563840000000 1.0
C      1  0.4747110000000  0.4795780000000  0.5458470000000 1.0
C      1  0.5302940000000  0.5300930000000  0.5658040000000 1.0
C      1  0.3940040000000  0.5096460000000  0.5368240000000 1.0
C      1  0.6047340000000  0.4829560000000  0.5359810000000 1.0
C      1  0.3904610000000  0.5111190000000  0.4643790000000 1.0
C      1  0.6067110000000  0.4824620000000  0.4655780000000 1.0
C      1  0.3923390000000  0.4801590000000  0.5336220000000 1.0
C      1  0.6052820000000  0.5123480000000  0.5362920000000 1.0
C      1  0.3897700000000  0.4810660000000  0.4663280000000 1.0
C      1  0.6071150000000  0.5120610000000  0.4643520000000 1.0
C      1  0.4965250000000  0.4339500000000  0.5911950000000 1.0
C      1  0.5021160000000  0.5710100000000  0.5860090000000 1.0
C      1  0.5018740000000  0.4251420000000  0.4121730000000 1.0
C      1  0.5006400000000  0.5710630000000  0.4125200000000 1.0
C      1  0.5029300000000  0.5124150000000  0.5765110000000 1.0
C      1  0.4826360000000  0.5049790000000  0.4204870000000 1.0
END
