TITL C-3578207-9274-115 1.27612340348143e-07 125000 -258.516204412191 0 0 43 (C1) n - 1
REM
REM in /home/bkarasulu/work/CARBON/AIRSS/Generating-Clusters/EDIP-Nigel-Params/with-SteepDescent/Higher-Symm/SD-CG/HFTN-CG
REM
REM
REM
REM
REM
REM ./C.cell (12c818d87b63d06a65506943cc24bca4)
REM
REM compiler GCC version 9.2.1 20190827 (Red Hat 9.2.1-1)
REM options -cpp -mtune=generic -march=x86-64 -g -O0 -fpre-include=/usr/include/finclude/math-vector-fortran.h
REM seed -2129815924 1413898140 504459955 -838393001 1466319607 2060908360 392569151 -709295371 -406375528 872605079 -1542552440 963927035 255002442 -1014086902 110329712 1041580862 883351066 1975832590 1655138204 1724116779 714717955 -2000820614 -418291061 -1645776822 -1183438897 -621205491 -273561130 1565922738 -1758896248 216029000 398128444 1758694138 -23555639
REM
CELL 1.54180   50.00000   50.00000   50.00000   90.00000   90.00000   90.00000
LATT -1
SFAC C  
C      1  0.4610790000000  0.4791920000000  0.4543370000000 1.0
C      1  0.5293240000000  0.5463560000000  0.4492610000000 1.0
C      1  0.4607350000000  0.5035240000000  0.4970050000000 1.0
C      1  0.5602330000000  0.5126150000000  0.4912660000000 1.0
C      1  0.4606880000000  0.4962400000000  0.5537720000000 1.0
C      1  0.5693740000000  0.5320740000000  0.4736510000000 1.0
C      1  0.5481610000000  0.5504320000000  0.4716460000000 1.0
C      1  0.5207320000000  0.5345700000000  0.5461150000000 1.0
C      1  0.5314720000000  0.5112790000000  0.5317140000000 1.0
C      1  0.4849270000000  0.5414320000000  0.5144670000000 1.0
C      1  0.5298380000000  0.4318490000000  0.5004040000000 1.0
C      1  0.5111090000000  0.5029040000000  0.4887350000000 1.0
C      1  0.5376920000000  0.4751500000000  0.4861100000000 1.0
C      1  0.4460160000000  0.5244430000000  0.4571470000000 1.0
C      1  0.4625050000000  0.5358260000000  0.5331800000000 1.0
C      1  0.4437470000000  0.5172010000000  0.5187920000000 1.0
C      1  0.4717670000000  0.5234760000000  0.5588980000000 1.0
C      1  0.5157930000000  0.4872110000000  0.5385150000000 1.0
C      1  0.5634350000000  0.4856290000000  0.4847780000000 1.0
C      1  0.4699070000000  0.4778230000000  0.5090530000000 1.0
C      1  0.5138850000000  0.4998760000000  0.4585010000000 1.0
C      1  0.5028420000000  0.4404970000000  0.5403310000000 1.0
C      1  0.4488310000000  0.5000690000000  0.4698790000000 1.0
C      1  0.5422630000000  0.4477490000000  0.5205990000000 1.0
C      1  0.4671500000000  0.4543100000000  0.4947690000000 1.0
C      1  0.4987820000000  0.4768550000000  0.4480100000000 1.0
C      1  0.4358730000000  0.4995240000000  0.5397320000000 1.0
C      1  0.5062000000000  0.4272560000000  0.5153980000000 1.0
C      1  0.5110380000000  0.5527520000000  0.5243240000000 1.0
C      1  0.5056430000000  0.5601080000000  0.4762140000000 1.0
C      1  0.5276180000000  0.5513690000000  0.4968000000000 1.0
C      1  0.4620900000000  0.5459550000000  0.4558290000000 1.0
C      1  0.5250500000000  0.4594310000000  0.5402210000000 1.0
C      1  0.5285280000000  0.4496720000000  0.4768820000000 1.0
C      1  0.5332730000000  0.5191180000000  0.5023410000000 1.0
C      1  0.4690560000000  0.4543270000000  0.4670400000000 1.0
C      1  0.4995540000000  0.5265470000000  0.5630020000000 1.0
C      1  0.4794210000000  0.4781420000000  0.5375810000000 1.0
C      1  0.5071010000000  0.5263700000000  0.4476060000000 1.0
C      1  0.4876960000000  0.5383410000000  0.4671830000000 1.0
C      1  0.4855770000000  0.5209360000000  0.4921880000000 1.0
C      1  0.5058730000000  0.4503160000000  0.4585770000000 1.0
C      1  0.4781170000000  0.4512560000000  0.5481430000000 1.0
END
