TITL C-3578194-7807-573 -4.335335893417e-07 125000 -191.489910102074 0 0 32 (C1) n - 1
REM
REM in /home/bkarasulu/work/CARBON/AIRSS/Generating-Clusters/EDIP-Nigel-Params/with-SteepDescent/Higher-Symm/SD-CG/HFTN-CG
REM
REM
REM
REM
REM
REM ./C.cell (12c818d87b63d06a65506943cc24bca4)
REM
REM compiler GCC version 9.2.1 20190827 (Red Hat 9.2.1-1)
REM options -cpp -mtune=generic -march=x86-64 -g -O0 -fpre-include=/usr/include/finclude/math-vector-fortran.h
REM seed 1322213719 -93506545 -1276772022 -2136422882 1178925704 -892573440 103654235 -1651517076 1916129923 639356786 1721106669 1638710617 1560894073 912555289 2090282980 -301096084 1010523178 -863304406 -1625338388 2028064521 -568889083 1373379666 -829165323 2099811802 -1466550539 1124834677 986590122 -1509170552 -689004327 695382468 -64917372 -522474896 951780985
REM
CELL 1.54180   50.00000   50.00000   50.00000   90.00000   90.00000   90.00000
LATT -1
SFAC C  
C      1  0.4905970000000  0.4807390000000  0.5422440000000 1.0
C      1  0.4680680000000  0.5387580000000  0.5386180000000 1.0
C      1  0.5388250000000  0.5096050000000  0.5397990000000 1.0
C      1  0.4848440000000  0.5476950000000  0.4646890000000 1.0
C      1  0.4835340000000  0.4686000000000  0.4601950000000 1.0
C      1  0.5229180000000  0.4994440000000  0.4571930000000 1.0
C      1  0.5127410000000  0.5483450000000  0.4602230000000 1.0
C      1  0.5164870000000  0.4703580000000  0.4583460000000 1.0
C      1  0.4748260000000  0.4979080000000  0.4618830000000 1.0
C      1  0.5138840000000  0.4650980000000  0.5408080000000 1.0
C      1  0.5152000000000  0.5243640000000  0.5412890000000 1.0
C      1  0.4531150000000  0.5155790000000  0.5435880000000 1.0
C      1  0.5309950000000  0.5543290000000  0.5042910000000 1.0
C      1  0.5451700000000  0.4440480000000  0.5079280000000 1.0
C      1  0.4476730000000  0.4945630000000  0.5247220000000 1.0
C      1  0.5322840000000  0.4454870000000  0.4836970000000 1.0
C      1  0.5326220000000  0.5407670000000  0.4796030000000 1.0
C      1  0.4397890000000  0.5008380000000  0.4982920000000 1.0
C      1  0.4816940000000  0.4498190000000  0.4864160000000 1.0
C      1  0.4695600000000  0.5391110000000  0.4881130000000 1.0
C      1  0.5556160000000  0.4996940000000  0.4961800000000 1.0
C      1  0.4819850000000  0.5481510000000  0.5147840000000 1.0
C      1  0.4652620000000  0.4532210000000  0.5083020000000 1.0
C      1  0.5496120000000  0.4908930000000  0.5220900000000 1.0
C      1  0.4633920000000  0.5100760000000  0.4861490000000 1.0
C      1  0.5365180000000  0.4652930000000  0.5242330000000 1.0
C      1  0.4665110000000  0.4728480000000  0.5278770000000 1.0
C      1  0.5370270000000  0.5120530000000  0.4792270000000 1.0
C      1  0.5103320000000  0.5408180000000  0.5179110000000 1.0
C      1  0.5092540000000  0.4623190000000  0.4894170000000 1.0
C      1  0.4907220000000  0.5096240000000  0.5506730000000 1.0
C      1  0.4975910000000  0.5141130000000  0.4503860000000 1.0
END
