TITL C-3577085-527-604 6.23091797700915e-07 125000 -153.882911949496 0 0 27 (C1) n - 1
REM
REM in /home/bkarasulu/work/CARBON/AIRSS/Generating-Clusters/EDIP-Nigel-Params/with-SteepDescent/Higher-Symm/SD-CG/HFTN-CG
REM
REM
REM
REM
REM
REM ./C.cell (12c818d87b63d06a65506943cc24bca4)
REM
REM compiler GCC version 9.2.1 20190827 (Red Hat 9.2.1-1)
REM options -cpp -mtune=generic -march=x86-64 -g -O0 -fpre-include=/usr/include/finclude/math-vector-fortran.h
REM seed 219406673 1605647388 -1078607255 -1290520938 1377901630 1135286228 -247887492 -754362686 1199079742 349193705 -1183812830 -367654084 1174785366 -846764856 715274595 2099449845 1161616235 -1492818187 -109910144 -285695283 -654248576 882970556 1117125197 1166930690 -749255177 1783141712 906338375 1311437372 2107481290 713156968 -1532220834 -1465136853 -808896891
REM
CELL 1.54180   50.00000   50.00000   50.00000   90.00000   90.00000   90.00000
LATT -1
SFAC C  
C      1  0.4511290000000  0.5093550000000  0.5227280000000 1.0
C      1  0.4810140000000  0.5073100000000  0.5160970000000 1.0
C      1  0.5208330000000  0.5199800000000  0.4819910000000 1.0
C      1  0.5296870000000  0.5256380000000  0.5516090000000 1.0
C      1  0.5249080000000  0.4769660000000  0.5431890000000 1.0
C      1  0.4560360000000  0.5144350000000  0.4641310000000 1.0
C      1  0.4659420000000  0.4696460000000  0.4767540000000 1.0
C      1  0.5416560000000  0.4986800000000  0.5489540000000 1.0
C      1  0.5008960000000  0.5310170000000  0.4622230000000 1.0
C      1  0.4656510000000  0.4828710000000  0.5268960000000 1.0
C      1  0.5002550000000  0.5585030000000  0.5021960000000 1.0
C      1  0.4913600000000  0.4847000000000  0.4710340000000 1.0
C      1  0.5168090000000  0.4671960000000  0.4683780000000 1.0
C      1  0.5070460000000  0.4493360000000  0.4938670000000 1.0
C      1  0.5399720000000  0.5354890000000  0.5253060000000 1.0
C      1  0.4845130000000  0.5479930000000  0.4807240000000 1.0
C      1  0.5115350000000  0.4618900000000  0.5234080000000 1.0
C      1  0.5036920000000  0.4971900000000  0.4978510000000 1.0
C      1  0.5408500000000  0.4878840000000  0.5030720000000 1.0
C      1  0.4603760000000  0.5325160000000  0.4860690000000 1.0
C      1  0.5540990000000  0.5062540000000  0.5212720000000 1.0
C      1  0.5229810000000  0.5416330000000  0.5019590000000 1.0
C      1  0.4504740000000  0.4946190000000  0.4868230000000 1.0
C      1  0.4748630000000  0.4469530000000  0.4935300000000 1.0
C      1  0.5384230000000  0.4865010000000  0.4745920000000 1.0
C      1  0.4812870000000  0.4569050000000  0.5223870000000 1.0
C      1  0.4837120000000  0.5085390000000  0.4529620000000 1.0
END
