TITL C-3577079-311-20 2.28836049130809e-07 125000 -439.535627903642 0 0 72 (Cs) n - 1
REM
REM in /home/bkarasulu/work/CARBON/AIRSS/Generating-Clusters/EDIP-Nigel-Params/with-SteepDescent/Higher-Symm/SD-CG/HFTN-CG
REM
REM
REM
REM
REM
REM ./C.cell (12c818d87b63d06a65506943cc24bca4)
REM
REM compiler GCC version 9.2.1 20190827 (Red Hat 9.2.1-1)
REM options -cpp -mtune=generic -march=x86-64 -g -O0 -fpre-include=/usr/include/finclude/math-vector-fortran.h
REM seed 1582741831 1529950538 1748629950 1980255224 -1952386346 1398619681 474429650 -218805151 -1137395715 -360067197 -786606521 -722659362 -491063513 -1818171726 -307539932 74820321 -1978250478 -1499758608 1541712579 -80859217 317056074 -434406762 164026200 198614328 -2021726578 -2105746251 -1344029467 -1550724902 1032912622 1659854003 505154551 -1589869550 -1370254896
REM
CELL 1.54180   50.00000   50.00000   50.00000   90.00000   90.00000   90.00000
LATT -1
SFAC C  
C      1  0.5381200000000  0.4852800000000  0.5281600000000 1.0
C      1  0.5421770000000  0.5274730000000  0.5006260000000 1.0
C      1  0.5369650000000  0.4844900000000  0.4731150000000 1.0
C      1  0.5381240000000  0.5146830000000  0.5281740000000 1.0
C      1  0.5421690000000  0.4725150000000  0.5006000000000 1.0
C      1  0.5369690000000  0.5155250000000  0.4731290000000 1.0
C      1  0.5572000000000  0.4556520000000  0.5580420000000 1.0
C      1  0.5569770000000  0.5684610000000  0.5093710000000 1.0
C      1  0.5559650000000  0.4730460000000  0.4328130000000 1.0
C      1  0.5572120000000  0.5442790000000  0.5580840000000 1.0
C      1  0.5569590000000  0.4315150000000  0.5093060000000 1.0
C      1  0.5559720000000  0.5270020000000  0.4328390000000 1.0
C      1  0.5087730000000  0.5276960000000  0.4660680000000 1.0
C      1  0.5070830000000  0.4569100000000  0.4927620000000 1.0
C      1  0.5094510000000  0.5197290000000  0.5393180000000 1.0
C      1  0.5087660000000  0.4723340000000  0.4660420000000 1.0
C      1  0.5070950000000  0.5430950000000  0.4928020000000 1.0
C      1  0.5094460000000  0.4802310000000  0.5392990000000 1.0
C      1  0.4281960000000  0.5143830000000  0.4752340000000 1.0
C      1  0.4279780000000  0.4714180000000  0.4999870000000 1.0
C      1  0.4290210000000  0.5142380000000  0.5248700000000 1.0
C      1  0.4281930000000  0.4856600000000  0.4752210000000 1.0
C      1  0.4279850000000  0.5286010000000  0.5000140000000 1.0
C      1  0.4290170000000  0.4857570000000  0.5248570000000 1.0
C      1  0.4770470000000  0.4281090000000  0.4772050000000 1.0
C      1  0.4795160000000  0.5162640000000  0.5729910000000 1.0
C      1  0.4771180000000  0.5559850000000  0.4491620000000 1.0
C      1  0.4770660000000  0.5719180000000  0.4772720000000 1.0
C      1  0.4795120000000  0.4836730000000  0.5729760000000 1.0
C      1  0.4771030000000  0.4440680000000  0.4491090000000 1.0
C      1  0.4809770000000  0.4843240000000  0.5269560000000 1.0
C      1  0.4788960000000  0.5316520000000  0.5000150000000 1.0
C      1  0.4788980000000  0.4845050000000  0.4718970000000 1.0
C      1  0.4809810000000  0.5156560000000  0.5269710000000 1.0
C      1  0.4788880000000  0.4683540000000  0.4999850000000 1.0
C      1  0.4789020000000  0.5155270000000  0.4719110000000 1.0
C      1  0.5597030000000  0.5300140000000  0.4599940000000 1.0
C      1  0.5635630000000  0.4535890000000  0.4938840000000 1.0
C      1  0.5599860000000  0.5185960000000  0.5481570000000 1.0
C      1  0.5596950000000  0.4700080000000  0.4599660000000 1.0
C      1  0.5635750000000  0.5464000000000  0.4939280000000 1.0
C      1  0.5599810000000  0.4813430000000  0.5481390000000 1.0
C      1  0.4338780000000  0.5558850000000  0.4987860000000 1.0
C      1  0.4339260000000  0.4708390000000  0.4522450000000 1.0
C      1  0.4355770000000  0.4733360000000  0.5489850000000 1.0
C      1  0.4338630000000  0.4441340000000  0.4987330000000 1.0
C      1  0.4339340000000  0.5292230000000  0.4522720000000 1.0
C      1  0.4355840000000  0.5266350000000  0.5490100000000 1.0
C      1  0.5055700000000  0.5724290000000  0.4882630000000 1.0
C      1  0.5056590000000  0.4534300000000  0.4428470000000 1.0
C      1  0.5073400000000  0.4721070000000  0.5676700000000 1.0
C      1  0.5055510000000  0.4275810000000  0.4881950000000 1.0
C      1  0.5056710000000  0.5466220000000  0.4428910000000 1.0
C      1  0.5073480000000  0.5278270000000  0.5676960000000 1.0
C      1  0.5347910000000  0.5733240000000  0.5257980000000 1.0
C      1  0.5329810000000  0.4854060000000  0.4228350000000 1.0
C      1  0.5344420000000  0.4406190000000  0.5516250000000 1.0
C      1  0.5347720000000  0.4266420000000  0.5257290000000 1.0
C      1  0.5329850000000  0.5146570000000  0.4228490000000 1.0
C      1  0.5344580000000  0.5593230000000  0.5516810000000 1.0
C      1  0.4638330000000  0.4730120000000  0.5493180000000 1.0
C      1  0.4620770000000  0.5569590000000  0.4990580000000 1.0
C      1  0.4621130000000  0.4704470000000  0.4509250000000 1.0
C      1  0.4638400000000  0.5269510000000  0.5493430000000 1.0
C      1  0.4620620000000  0.4430520000000  0.4990050000000 1.0
C      1  0.4621210000000  0.5296090000000  0.4509530000000 1.0
C      1  0.5103970000000  0.5311640000000  0.4197970000000 1.0
C      1  0.5120080000000  0.4157840000000  0.5130150000000 1.0
C      1  0.5117960000000  0.5556720000000  0.5682070000000 1.0
C      1  0.5103890000000  0.4689080000000  0.4197680000000 1.0
C      1  0.5120300000000  0.5842000000000  0.5130940000000 1.0
C      1  0.5117820000000  0.4442610000000  0.5681540000000 1.0
END
