TITL C-3578204-4308-167 -3.68880229061022e-06 125000 -1158.59640342546 0 0 182 (C1) n - 1
REM
REM in /home/bkarasulu/work/CARBON/AIRSS/Generating-Clusters/EDIP-Nigel-Params/with-SteepDescent/Higher-Symm/SD-CG/HFTN-CG
REM
REM
REM
REM
REM
REM ./C.cell (12c818d87b63d06a65506943cc24bca4)
REM
REM compiler GCC version 9.2.1 20190827 (Red Hat 9.2.1-1)
REM options -cpp -mtune=generic -march=x86-64 -g -O0 -fpre-include=/usr/include/finclude/math-vector-fortran.h
REM seed 1998924986 -2122627878 1850570882 1403883803 548734612 -881226732 1785121127 180377010 95941393 1391219399 -2114005278 1779719535 397691857 -980389181 -271434757 -1153208531 882489363 -381073573 -408665960 716463335 -915075497 834256538 1327445690 -1215419930 68468294 909430775 862565783 -1909647225 638639366 -56815634 292478201 -1175208416 649315614
REM
CELL 1.54180   50.00000   50.00000   50.00000   90.00000   90.00000   90.00000
LATT -1
SFAC C  
C      1  0.4211520000000  0.5501190000000  0.5036600000000 1.0
C      1  0.5371170000000  0.5534100000000  0.4443390000000 1.0
C      1  0.5352630000000  0.5696480000000  0.5708730000000 1.0
C      1  0.5365990000000  0.3957140000000  0.5226910000000 1.0
C      1  0.4596640000000  0.3996300000000  0.5156960000000 1.0
C      1  0.4969730000000  0.3983860000000  0.4603510000000 1.0
C      1  0.5805730000000  0.5112880000000  0.5682150000000 1.0
C      1  0.3938270000000  0.5159380000000  0.5341820000000 1.0
C      1  0.5190250000000  0.5130220000000  0.3960540000000 1.0
C      1  0.5621330000000  0.4310500000000  0.5472420000000 1.0
C      1  0.4241310000000  0.4357280000000  0.5243460000000 1.0
C      1  0.5240870000000  0.4356810000000  0.4360590000000 1.0
C      1  0.4720890000000  0.4775830000000  0.5984040000000 1.0
C      1  0.4192300000000  0.4752570000000  0.4288280000000 1.0
C      1  0.6004580000000  0.4716220000000  0.4691950000000 1.0
C      1  0.5913310000000  0.5221200000000  0.4638050000000 1.0
C      1  0.4813430000000  0.5247360000000  0.5868190000000 1.0
C      1  0.4220050000000  0.5231240000000  0.4405070000000 1.0
C      1  0.5458510000000  0.5027820000000  0.5296450000000 1.0
C      1  0.4438900000000  0.5037030000000  0.5253640000000 1.0
C      1  0.5080750000000  0.5020260000000  0.4458870000000 1.0
C      1  0.3865070000000  0.5047190000000  0.5063440000000 1.0
C      1  0.5480330000000  0.5047860000000  0.4022370000000 1.0
C      1  0.5586790000000  0.5007510000000  0.5862500000000 1.0
C      1  0.5147840000000  0.4260270000000  0.5589510000000 1.0
C      1  0.4276970000000  0.4219150000000  0.4800690000000 1.0
C      1  0.5739350000000  0.4282690000000  0.4421420000000 1.0
C      1  0.5975690000000  0.4883890000000  0.5577700000000 1.0
C      1  0.3941240000000  0.4921470000000  0.5535420000000 1.0
C      1  0.5024390000000  0.4877520000000  0.3917000000000 1.0
C      1  0.5903360000000  0.4798200000000  0.4423000000000 1.0
C      1  0.5009900000000  0.4825850000000  0.6043420000000 1.0
C      1  0.3976210000000  0.4814600000000  0.4486320000000 1.0
C      1  0.4061590000000  0.4455890000000  0.5461810000000 1.0
C      1  0.5051410000000  0.4428060000000  0.4116960000000 1.0
C      1  0.5902770000000  0.4404300000000  0.5541680000000 1.0
C      1  0.5659830000000  0.4314330000000  0.4692740000000 1.0
C      1  0.5005790000000  0.4520320000000  0.5673070000000 1.0
C      1  0.4185840000000  0.4375830000000  0.4570830000000 1.0
C      1  0.3975850000000  0.4768710000000  0.5082610000000 1.0
C      1  0.5427040000000  0.4773400000000  0.4131600000000 1.0
C      1  0.5589490000000  0.4727900000000  0.5748930000000 1.0
C      1  0.5851160000000  0.5742310000000  0.4660150000000 1.0
C      1  0.4853620000000  0.5749300000000  0.5909450000000 1.0
C      1  0.4276390000000  0.5724230000000  0.4433450000000 1.0
C      1  0.5030570000000  0.5215690000000  0.4206540000000 1.0
C      1  0.5666670000000  0.5228660000000  0.5443670000000 1.0
C      1  0.4246190000000  0.5214180000000  0.5425140000000 1.0
C      1  0.4743580000000  0.5940260000000  0.5269790000000 1.0
C      1  0.4907710000000  0.5959050000000  0.4627900000000 1.0
C      1  0.5355230000000  0.5996510000000  0.5068210000000 1.0
C      1  0.5845170000000  0.4040380000000  0.5129300000000 1.0
C      1  0.4512770000000  0.4144330000000  0.5590880000000 1.0
C      1  0.4845780000000  0.4387730000000  0.4571700000000 1.0
C      1  0.5204100000000  0.4134280000000  0.4563250000000 1.0
C      1  0.5628940000000  0.4056090000000  0.5330630000000 1.0
C      1  0.4390830000000  0.4113040000000  0.5331110000000 1.0
C      1  0.4546270000000  0.4761160000000  0.5433740000000 1.0
C      1  0.4865300000000  0.4749470000000  0.4500040000000 1.0
C      1  0.5678530000000  0.4655050000000  0.5072790000000 1.0
C      1  0.5028570000000  0.4325680000000  0.5110180000000 1.0
C      1  0.4779200000000  0.4329500000000  0.4868650000000 1.0
C      1  0.5294180000000  0.4384680000000  0.4990070000000 1.0
C      1  0.6044650000000  0.4988290000000  0.4803120000000 1.0
C      1  0.4604700000000  0.5035900000000  0.5925550000000 1.0
C      1  0.4305180000000  0.5007130000000  0.4217840000000 1.0
C      1  0.4919340000000  0.6185900000000  0.4806460000000 1.0
C      1  0.5128780000000  0.6195490000000  0.5008150000000 1.0
C      1  0.4899120000000  0.6181930000000  0.5190650000000 1.0
C      1  0.4862110000000  0.5684590000000  0.4774040000000 1.0
C      1  0.5302430000000  0.5715970000000  0.4950480000000 1.0
C      1  0.4912770000000  0.5683430000000  0.5278360000000 1.0
C      1  0.5740810000000  0.3874730000000  0.4921210000000 1.0
C      1  0.4744610000000  0.3983150000000  0.5617220000000 1.0
C      1  0.4593540000000  0.4122860000000  0.4386450000000 1.0
C      1  0.5880210000000  0.5097020000000  0.4356660000000 1.0
C      1  0.5080650000000  0.5100300000000  0.5950660000000 1.0
C      1  0.3974730000000  0.5113910000000  0.4556620000000 1.0
C      1  0.5164660000000  0.5962160000000  0.4482900000000 1.0
C      1  0.5348530000000  0.5988780000000  0.5373380000000 1.0
C      1  0.4515650000000  0.5876160000000  0.5081790000000 1.0
C      1  0.5482590000000  0.4811810000000  0.4915890000000 1.0
C      1  0.4845910000000  0.4806500000000  0.5393100000000 1.0
C      1  0.4665010000000  0.4779550000000  0.4728100000000 1.0
C      1  0.5340750000000  0.5163410000000  0.5829270000000 1.0
C      1  0.3946020000000  0.5210650000000  0.4834960000000 1.0
C      1  0.5646260000000  0.5213790000000  0.4208290000000 1.0
C      1  0.5422270000000  0.4287530000000  0.5699860000000 1.0
C      1  0.4082950000000  0.4296090000000  0.5003680000000 1.0
C      1  0.5522240000000  0.4322920000000  0.4234600000000 1.0
C      1  0.4612700000000  0.4411950000000  0.4363160000000 1.0
C      1  0.5990730000000  0.4311200000000  0.5061250000000 1.0
C      1  0.4480900000000  0.4417380000000  0.5704100000000 1.0
C      1  0.5347270000000  0.4848910000000  0.4436180000000 1.0
C      1  0.5430290000000  0.4762930000000  0.5473120000000 1.0
C      1  0.4284590000000  0.4835690000000  0.5031760000000 1.0
C      1  0.5437210000000  0.4513860000000  0.5896280000000 1.0
C      1  0.3903990000000  0.4522910000000  0.4917520000000 1.0
C      1  0.5631640000000  0.4558280000000  0.4093530000000 1.0
C      1  0.5401650000000  0.4179960000000  0.4790750000000 1.0
C      1  0.5095120000000  0.4111470000000  0.5320280000000 1.0
C      1  0.4570460000000  0.4105970000000  0.4864460000000 1.0
C      1  0.5882330000000  0.4582750000000  0.4235380000000 1.0
C      1  0.5179430000000  0.4586960000000  0.6011640000000 1.0
C      1  0.3947840000000  0.4544610000000  0.4628970000000 1.0
C      1  0.5975410000000  0.4795270000000  0.5282890000000 1.0
C      1  0.4192970000000  0.4854700000000  0.5674970000000 1.0
C      1  0.4785280000000  0.4809800000000  0.4075780000000 1.0
C      1  0.4286140000000  0.5503750000000  0.4265320000000 1.0
C      1  0.5987320000000  0.5510330000000  0.4742480000000 1.0
C      1  0.4698830000000  0.5519640000000  0.5947210000000 1.0
C      1  0.4698210000000  0.5255190000000  0.4198880000000 1.0
C      1  0.5903020000000  0.5259980000000  0.5149460000000 1.0
C      1  0.4252420000000  0.5325260000000  0.5793850000000 1.0
C      1  0.4408570000000  0.5492730000000  0.5429170000000 1.0
C      1  0.5086210000000  0.5498080000000  0.4327280000000 1.0
C      1  0.5573090000000  0.5520460000000  0.5375640000000 1.0
C      1  0.4417430000000  0.5550440000000  0.5867570000000 1.0
C      1  0.4543720000000  0.5495300000000  0.4106440000000 1.0
C      1  0.6027540000000  0.5508500000000  0.5034850000000 1.0
C      1  0.4575740000000  0.5009700000000  0.4107460000000 1.0
C      1  0.6056110000000  0.5014970000000  0.5093400000000 1.0
C      1  0.4333130000000  0.5057740000000  0.5826520000000 1.0
C      1  0.4909660000000  0.5435650000000  0.4592950000000 1.0
C      1  0.5488950000000  0.5511490000000  0.5084770000000 1.0
C      1  0.4718130000000  0.5432890000000  0.5357440000000 1.0
C      1  0.4768980000000  0.4524050000000  0.4133870000000 1.0
C      1  0.6050930000000  0.4489550000000  0.5296030000000 1.0
C      1  0.4230590000000  0.4564350000000  0.5669880000000 1.0
C      1  0.4397720000000  0.4887800000000  0.4724320000000 1.0
C      1  0.5549830000000  0.4914370000000  0.4659410000000 1.0
C      1  0.5164310000000  0.4805900000000  0.5636420000000 1.0
C      1  0.5460050000000  0.3927210000000  0.4940930000000 1.0
C      1  0.4833680000000  0.3954940000000  0.5348820000000 1.0
C      1  0.4688020000000  0.3975230000000  0.4611960000000 1.0
C      1  0.5634620000000  0.5917580000000  0.4684220000000 1.0
C      1  0.4911790000000  0.5918610000000  0.5696190000000 1.0
C      1  0.4461570000000  0.5846680000000  0.4596990000000 1.0
C      1  0.5614190000000  0.5190860000000  0.4718560000000 1.0
C      1  0.5014330000000  0.5051560000000  0.5472540000000 1.0
C      1  0.4426990000000  0.5202680000000  0.4640170000000 1.0
C      1  0.4569350000000  0.5702010000000  0.4839040000000 1.0
C      1  0.5371050000000  0.5788220000000  0.4617090000000 1.0
C      1  0.5126640000000  0.5802560000000  0.5517530000000 1.0
C      1  0.5128010000000  0.5953550000000  0.4206880000000 1.0
C      1  0.5565890000000  0.5869290000000  0.5551890000000 1.0
C      1  0.4265020000000  0.5760030000000  0.5188430000000 1.0
C      1  0.4464270000000  0.5402580000000  0.4902140000000 1.0
C      1  0.5370340000000  0.5341410000000  0.4656740000000 1.0
C      1  0.5179990000000  0.5144130000000  0.5249420000000 1.0
C      1  0.5195160000000  0.4654130000000  0.3982510000000 1.0
C      1  0.5876610000000  0.4643370000000  0.5713230000000 1.0
C      1  0.3903340000000  0.4685810000000  0.5364360000000 1.0
C      1  0.4366560000000  0.4586460000000  0.4472260000000 1.0
C      1  0.5840370000000  0.4489440000000  0.4866270000000 1.0
C      1  0.4711640000000  0.4593750000000  0.5747850000000 1.0
C      1  0.5805120000000  0.5709200000000  0.5408900000000 1.0
C      1  0.4251210000000  0.5750980000000  0.5510570000000 1.0
C      1  0.4986900000000  0.5719690000000  0.4156680000000 1.0
C      1  0.5964990000000  0.5742310000000  0.5180030000000 1.0
C      1  0.4319740000000  0.5804120000000  0.5783340000000 1.0
C      1  0.4713210000000  0.5719330000000  0.4094630000000 1.0
C      1  0.5388630000000  0.5425930000000  0.5755150000000 1.0
C      1  0.3975380000000  0.5482910000000  0.4888640000000 1.0
C      1  0.5582620000000  0.5485070000000  0.4249440000000 1.0
C      1  0.4681500000000  0.5993540000000  0.5549250000000 1.0
C      1  0.4665530000000  0.5993810000000  0.4467630000000 1.0
C      1  0.5602970000000  0.6066540000000  0.4925260000000 1.0
C      1  0.5218020000000  0.4609130000000  0.4549430000000 1.0
C      1  0.5498080000000  0.4517720000000  0.5284510000000 1.0
C      1  0.4442340000000  0.4600900000000  0.5168600000000 1.0
C      1  0.4995790000000  0.5093700000000  0.5010490000000 1.0
C      1  0.4666630000000  0.5234740000000  0.5113920000000 1.0
C      1  0.5099680000000  0.5218390000000  0.4709740000000 1.0
C      1  0.4663390000000  0.4584040000000  0.4947580000000 1.0
C      1  0.5252550000000  0.4644420000000  0.4853540000000 1.0
C      1  0.4993160000000  0.4605770000000  0.5237540000000 1.0
C      1  0.5616900000000  0.5242780000000  0.5011270000000 1.0
C      1  0.4844570000000  0.5265940000000  0.5573250000000 1.0
C      1  0.4679080000000  0.5269790000000  0.4498150000000 1.0
C      1  0.5012550000000  0.4775210000000  0.4987930000000 1.0
C      1  0.5026960000000  0.5646030000000  0.5008670000000 1.0
END
