TITL C-3577083-591-436 -3.66193007165979e-06 125000 -1219.96808629647 0 0 194 (C1) n - 1
REM
REM in /home/bkarasulu/work/CARBON/AIRSS/Generating-Clusters/EDIP-Nigel-Params/with-SteepDescent/Higher-Symm/SD-CG/HFTN-CG
REM
REM
REM
REM
REM
REM ./C.cell (12c818d87b63d06a65506943cc24bca4)
REM
REM compiler GCC version 9.2.1 20190827 (Red Hat 9.2.1-1)
REM options -cpp -mtune=generic -march=x86-64 -g -O0 -fpre-include=/usr/include/finclude/math-vector-fortran.h
REM seed 556454233 -1117584426 -224013189 -1571435212 1807655130 1604674858 659641931 -2004377412 -1585161602 -237852641 -2007687923 -1665665052 -2020342951 1703884723 -1097136730 661838169 1428513213 -866118716 -263849982 1021936204 -1386945061 623046137 -1754589915 775805479 -2087352861 -1833331177 -701944359 -450142876 309537425 1012696145 1433145875 -1858418913 134576179
REM
CELL 1.54180   50.00000   50.00000   50.00000   90.00000   90.00000   90.00000
LATT -1
SFAC C  
C      1  0.4256520000000  0.6116640000000  0.4822180000000 1.0
C      1  0.3699370000000  0.4665730000000  0.4886010000000 1.0
C      1  0.4900630000000  0.3677940000000  0.4871760000000 1.0
C      1  0.6235480000000  0.4519190000000  0.4841020000000 1.0
C      1  0.5891600000000  0.6039320000000  0.4902550000000 1.0
C      1  0.5441660000000  0.4935350000000  0.5006580000000 1.0
C      1  0.5244750000000  0.5407010000000  0.4965220000000 1.0
C      1  0.4723500000000  0.5333750000000  0.4842260000000 1.0
C      1  0.4503780000000  0.4874040000000  0.4919910000000 1.0
C      1  0.5086190000000  0.4486580000000  0.4848120000000 1.0
C      1  0.5839840000000  0.5040570000000  0.5727320000000 1.0
C      1  0.5220700000000  0.5677650000000  0.5617080000000 1.0
C      1  0.4433590000000  0.5420480000000  0.5579050000000 1.0
C      1  0.4450630000000  0.4560190000000  0.5662920000000 1.0
C      1  0.5374820000000  0.4151220000000  0.5745790000000 1.0
C      1  0.4417080000000  0.5550450000000  0.5862460000000 1.0
C      1  0.4434540000000  0.4650230000000  0.5954720000000 1.0
C      1  0.5192220000000  0.4231870000000  0.5949140000000 1.0
C      1  0.5761170000000  0.4879810000000  0.5956910000000 1.0
C      1  0.5263590000000  0.5655620000000  0.5924330000000 1.0
C      1  0.5071820000000  0.5461010000000  0.6032680000000 1.0
C      1  0.4472540000000  0.5374200000000  0.6085320000000 1.0
C      1  0.4713100000000  0.4696480000000  0.6053840000000 1.0
C      1  0.5240350000000  0.4432730000000  0.6159990000000 1.0
C      1  0.5579390000000  0.4981890000000  0.6158780000000 1.0
C      1  0.4509990000000  0.4345980000000  0.5277740000000 1.0
C      1  0.5502630000000  0.4270540000000  0.5250980000000 1.0
C      1  0.5869650000000  0.5254730000000  0.5292430000000 1.0
C      1  0.5021740000000  0.5892010000000  0.5221900000000 1.0
C      1  0.4197990000000  0.5253940000000  0.5230730000000 1.0
C      1  0.5302210000000  0.4544600000000  0.5654130000000 1.0
C      1  0.5478530000000  0.5020330000000  0.5591940000000 1.0
C      1  0.5141310000000  0.5386800000000  0.5539770000000 1.0
C      1  0.4684220000000  0.5225580000000  0.5540000000000 1.0
C      1  0.4705600000000  0.4714060000000  0.5566090000000 1.0
C      1  0.5081110000000  0.5299260000000  0.3832830000000 1.0
C      1  0.4803730000000  0.5155640000000  0.3796090000000 1.0
C      1  0.4842330000000  0.4862560000000  0.3873500000000 1.0
C      1  0.5132050000000  0.4806940000000  0.3829420000000 1.0
C      1  0.5278740000000  0.5068760000000  0.3846960000000 1.0
C      1  0.4716970000000  0.5403110000000  0.4379360000000 1.0
C      1  0.4547960000000  0.4943200000000  0.4380130000000 1.0
C      1  0.4916390000000  0.4604880000000  0.4386240000000 1.0
C      1  0.5372030000000  0.4855730000000  0.4442510000000 1.0
C      1  0.5382070000000  0.5671120000000  0.4528950000000 1.0
C      1  0.4480140000000  0.4308080000000  0.4297450000000 1.0
C      1  0.5484720000000  0.4234620000000  0.4341490000000 1.0
C      1  0.5783730000000  0.5236590000000  0.4291020000000 1.0
C      1  0.4984660000000  0.5797690000000  0.4218000000000 1.0
C      1  0.4071660000000  0.5340580000000  0.4313690000000 1.0
C      1  0.5625850000000  0.5490780000000  0.5672200000000 1.0
C      1  0.4727930000000  0.5752560000000  0.5597610000000 1.0
C      1  0.4298260000000  0.4968280000000  0.5584090000000 1.0
C      1  0.4745730000000  0.4162510000000  0.5695100000000 1.0
C      1  0.5735120000000  0.4464830000000  0.5682960000000 1.0
C      1  0.4821080000000  0.5938930000000  0.4786760000000 1.0
C      1  0.4017450000000  0.5160760000000  0.4795870000000 1.0
C      1  0.4569900000000  0.4193840000000  0.4804590000000 1.0
C      1  0.5613960000000  0.4379590000000  0.4827630000000 1.0
C      1  0.5817180000000  0.5425380000000  0.4835580000000 1.0
C      1  0.5148430000000  0.5497970000000  0.4072300000000 1.0
C      1  0.4581750000000  0.5254350000000  0.3966540000000 1.0
C      1  0.4481660000000  0.4529120000000  0.4118450000000 1.0
C      1  0.5220760000000  0.4611640000000  0.4031800000000 1.0
C      1  0.5532090000000  0.5078970000000  0.4036680000000 1.0
C      1  0.5479830000000  0.4736920000000  0.5463870000000 1.0
C      1  0.5371550000000  0.5235900000000  0.5412070000000 1.0
C      1  0.4895810000000  0.5360410000000  0.5368710000000 1.0
C      1  0.4578730000000  0.4956370000000  0.5434570000000 1.0
C      1  0.5072030000000  0.4364520000000  0.5488660000000 1.0
C      1  0.4806300000000  0.5571980000000  0.6077020000000 1.0
C      1  0.4565360000000  0.5113710000000  0.6010320000000 1.0
C      1  0.4854780000000  0.4456610000000  0.6126330000000 1.0
C      1  0.5463990000000  0.4613690000000  0.6149570000000 1.0
C      1  0.5470740000000  0.5243050000000  0.6106840000000 1.0
C      1  0.4062510000000  0.5015390000000  0.5079180000000 1.0
C      1  0.4700650000000  0.4178000000000  0.5089520000000 1.0
C      1  0.5700790000000  0.4551810000000  0.5069140000000 1.0
C      1  0.5692540000000  0.5537390000000  0.5102460000000 1.0
C      1  0.4690760000000  0.5809390000000  0.5027190000000 1.0
C      1  0.4344810000000  0.5954780000000  0.4610750000000 1.0
C      1  0.3865150000000  0.4713000000000  0.4662800000000 1.0
C      1  0.4944230000000  0.3864230000000  0.4669840000000 1.0
C      1  0.6034460000000  0.4601560000000  0.4663640000000 1.0
C      1  0.5767860000000  0.5888270000000  0.4704250000000 1.0
C      1  0.5078050000000  0.5249230000000  0.5814080000000 1.0
C      1  0.4798400000000  0.5119640000000  0.5806130000000 1.0
C      1  0.4852280000000  0.4815210000000  0.5811110000000 1.0
C      1  0.5151920000000  0.4760940000000  0.5827430000000 1.0
C      1  0.5295600000000  0.5023370000000  0.5838390000000 1.0
C      1  0.4509740000000  0.5967570000000  0.5204560000000 1.0
C      1  0.3912510000000  0.4831690000000  0.5291790000000 1.0
C      1  0.4769430000000  0.3931570000000  0.5261580000000 1.0
C      1  0.5947850000000  0.4485210000000  0.5233900000000 1.0
C      1  0.5776250000000  0.5766930000000  0.5286520000000 1.0
C      1  0.3797570000000  0.4598480000000  0.5144120000000 1.0
C      1  0.4962240000000  0.3747840000000  0.5138240000000 1.0
C      1  0.6199480000000  0.4596180000000  0.5111640000000 1.0
C      1  0.5754510000000  0.6032410000000  0.5149660000000 1.0
C      1  0.4242420000000  0.6007560000000  0.5083980000000 1.0
C      1  0.5338510000000  0.4487470000000  0.4689500000000 1.0
C      1  0.5611630000000  0.5238760000000  0.4696960000000 1.0
C      1  0.4967430000000  0.5711720000000  0.4679590000000 1.0
C      1  0.4291510000000  0.5224320000000  0.4680810000000 1.0
C      1  0.4594850000000  0.4490100000000  0.4724380000000 1.0
C      1  0.4702610000000  0.4012410000000  0.4590430000000 1.0
C      1  0.5832040000000  0.4390110000000  0.4616670000000 1.0
C      1  0.5894670000000  0.5631720000000  0.4628660000000 1.0
C      1  0.4626920000000  0.6006910000000  0.4535710000000 1.0
C      1  0.3873990000000  0.4997800000000  0.4586620000000 1.0
C      1  0.5331970000000  0.6102500000000  0.4863350000000 1.0
C      1  0.4014690000000  0.5661350000000  0.4836180000000 1.0
C      1  0.4078020000000  0.4318810000000  0.4855690000000 1.0
C      1  0.5376240000000  0.3920830000000  0.4919020000000 1.0
C      1  0.6147400000000  0.5033350000000  0.4880900000000 1.0
C      1  0.4697720000000  0.5161020000000  0.4227990000000 1.0
C      1  0.4692890000000  0.4717650000000  0.4199340000000 1.0
C      1  0.5133500000000  0.4777190000000  0.4272300000000 1.0
C      1  0.5408220000000  0.5138320000000  0.4316810000000 1.0
C      1  0.5137710000000  0.5292570000000  0.4298410000000 1.0
C      1  0.4731860000000  0.4163070000000  0.4338700000000 1.0
C      1  0.5687050000000  0.4431020000000  0.4367110000000 1.0
C      1  0.5808270000000  0.5536110000000  0.4349520000000 1.0
C      1  0.4696470000000  0.5865720000000  0.4268140000000 1.0
C      1  0.4017850000000  0.5058870000000  0.4333030000000 1.0
C      1  0.4483030000000  0.5784380000000  0.5434470000000 1.0
C      1  0.4142890000000  0.4717000000000  0.5474460000000 1.0
C      1  0.4894330000000  0.4022570000000  0.5503810000000 1.0
C      1  0.5853670000000  0.4639280000000  0.5474360000000 1.0
C      1  0.5592250000000  0.5745870000000  0.5521270000000 1.0
C      1  0.4017950000000  0.4390590000000  0.5134140000000 1.0
C      1  0.5229630000000  0.3877530000000  0.5181400000000 1.0
C      1  0.6182520000000  0.4894480000000  0.5142570000000 1.0
C      1  0.5459900000000  0.6103170000000  0.5138500000000 1.0
C      1  0.4107230000000  0.5738330000000  0.5102780000000 1.0
C      1  0.4506440000000  0.4286480000000  0.5571240000000 1.0
C      1  0.5576980000000  0.4244140000000  0.5564820000000 1.0
C      1  0.5822990000000  0.5291590000000  0.5586710000000 1.0
C      1  0.4988780000000  0.5851860000000  0.5517030000000 1.0
C      1  0.4203270000000  0.5238860000000  0.5513250000000 1.0
C      1  0.5204700000000  0.4199840000000  0.5242230000000 1.0
C      1  0.5901530000000  0.4949050000000  0.5241370000000 1.0
C      1  0.5331710000000  0.5848700000000  0.5238570000000 1.0
C      1  0.4323140000000  0.5536330000000  0.5181450000000 1.0
C      1  0.4262190000000  0.4547800000000  0.5225750000000 1.0
C      1  0.4549440000000  0.5605050000000  0.4239440000000 1.0
C      1  0.4252910000000  0.4859730000000  0.4303070000000 1.0
C      1  0.4995560000000  0.4326050000000  0.4308850000000 1.0
C      1  0.5638480000000  0.4732730000000  0.4325640000000 1.0
C      1  0.5555300000000  0.5668520000000  0.4282900000000 1.0
C      1  0.4243230000000  0.4675220000000  0.4079000000000 1.0
C      1  0.5093400000000  0.4356770000000  0.4034550000000 1.0
C      1  0.5654420000000  0.4815600000000  0.4048310000000 1.0
C      1  0.5423990000000  0.5576820000000  0.4053250000000 1.0
C      1  0.4520320000000  0.5528500000000  0.3961700000000 1.0
C      1  0.6053250000000  0.5293780000000  0.4952010000000 1.0
C      1  0.5038120000000  0.6112390000000  0.4905490000000 1.0
C      1  0.3886220000000  0.5413480000000  0.4832320000000 1.0
C      1  0.4289370000000  0.4139560000000  0.4826230000000 1.0
C      1  0.5592790000000  0.4113410000000  0.4986690000000 1.0
C      1  0.5130920000000  0.5814210000000  0.4466700000000 1.0
C      1  0.4290380000000  0.5443230000000  0.4475430000000 1.0
C      1  0.4364440000000  0.4575910000000  0.4541360000000 1.0
C      1  0.5245080000000  0.4256220000000  0.4498980000000 1.0
C      1  0.5773440000000  0.5028440000000  0.4536640000000 1.0
C      1  0.5320360000000  0.5380600000000  0.4664420000000 1.0
C      1  0.4910040000000  0.5425300000000  0.4609260000000 1.0
C      1  0.4544290000000  0.5079610000000  0.4712940000000 1.0
C      1  0.4870820000000  0.4629210000000  0.4691750000000 1.0
C      1  0.5277220000000  0.4869630000000  0.4744180000000 1.0
C      1  0.5735990000000  0.4844180000000  0.5001970000000 1.0
C      1  0.5423610000000  0.5656050000000  0.5020300000000 1.0
C      1  0.4516770000000  0.5570140000000  0.4931210000000 1.0
C      1  0.4245670000000  0.4764870000000  0.4988680000000 1.0
C      1  0.5031310000000  0.4239200000000  0.4983400000000 1.0
C      1  0.4904770000000  0.4589970000000  0.5378440000000 1.0
C      1  0.5333010000000  0.4747980000000  0.5208790000000 1.0
C      1  0.5397810000000  0.5208970000000  0.5120210000000 1.0
C      1  0.4944680000000  0.5286520000000  0.5077300000000 1.0
C      1  0.4652580000000  0.4940320000000  0.5142570000000 1.0
C      1  0.5925560000000  0.4871140000000  0.4755350000000 1.0
C      1  0.5479320000000  0.5835950000000  0.4767300000000 1.0
C      1  0.4288140000000  0.5668900000000  0.4700170000000 1.0
C      1  0.4132330000000  0.4596760000000  0.4747060000000 1.0
C      1  0.5154230000000  0.4055010000000  0.4757200000000 1.0
C      1  0.4347690000000  0.4934110000000  0.5898200000000 1.0
C      1  0.4914220000000  0.4294530000000  0.5894690000000 1.0
C      1  0.5647580000000  0.4615210000000  0.5920450000000 1.0
C      1  0.5506840000000  0.5484950000000  0.5940800000000 1.0
C      1  0.4655760000000  0.5718400000000  0.5875570000000 1.0
C      1  0.4989190000000  0.5052670000000  0.4182450000000 1.0
C      1  0.4975690000000  0.4906430000000  0.4777920000000 1.0
C      1  0.4925560000000  0.4981590000000  0.5064020000000 1.0
C      1  0.5060930000000  0.4806770000000  0.5262860000000 1.0
END
