TITL C-3577077-324-92 -5.38476307049658e-07 125000 -1008.78775931625 0 0 160 (C1) n - 1
REM
REM in /home/bkarasulu/work/CARBON/AIRSS/Generating-Clusters/EDIP-Nigel-Params/with-SteepDescent/Higher-Symm/SD-CG/HFTN-CG
REM
REM
REM
REM
REM
REM ./C.cell (12c818d87b63d06a65506943cc24bca4)
REM
REM compiler GCC version 9.2.1 20190827 (Red Hat 9.2.1-1)
REM options -cpp -mtune=generic -march=x86-64 -g -O0 -fpre-include=/usr/include/finclude/math-vector-fortran.h
REM seed 57790806 -788650001 1761477520 -1432970870 216942704 -1800614750 -310946904 838605104 1445880738 -1689592409 -1380632538 -1665436260 1714738691 -249421055 605270592 269798539 -1515135626 269819054 -1774671612 -365671670 -434188511 -2085600992 -469089443 1926239835 -1908215751 -1624311744 -1341720583 1459247663 -2146740977 883830364 -1165223786 -1174907643 -770742604
REM
CELL 1.54180   50.00000   50.00000   50.00000   90.00000   90.00000   90.00000
LATT -1
SFAC C  
C      1  0.3998710000000  0.5323370000000  0.4538010000000 1.0
C      1  0.4082890000000  0.5185170000000  0.5516350000000 1.0
C      1  0.4113940000000  0.4425270000000  0.4877370000000 1.0
C      1  0.5458560000000  0.4590230000000  0.5290320000000 1.0
C      1  0.5400690000000  0.4917440000000  0.4460620000000 1.0
C      1  0.5496350000000  0.5473720000000  0.5239520000000 1.0
C      1  0.4946600000000  0.5538440000000  0.5125410000000 1.0
C      1  0.4944230000000  0.4618940000000  0.5402320000000 1.0
C      1  0.4900910000000  0.4845890000000  0.4445370000000 1.0
C      1  0.5784080000000  0.5567090000000  0.4832130000000 1.0
C      1  0.5698330000000  0.4965690000000  0.5570230000000 1.0
C      1  0.5618640000000  0.4491910000000  0.4581650000000 1.0
C      1  0.4259040000000  0.5666720000000  0.5545120000000 1.0
C      1  0.4280690000000  0.4167180000000  0.5341040000000 1.0
C      1  0.4259930000000  0.5173030000000  0.4106920000000 1.0
C      1  0.5181160000000  0.5742550000000  0.5878400000000 1.0
C      1  0.5216150000000  0.3897400000000  0.5219370000000 1.0
C      1  0.5222820000000  0.5368990000000  0.3936020000000 1.0
C      1  0.5119960000000  0.5941260000000  0.5654450000000 1.0
C      1  0.5160060000000  0.3983640000000  0.5505870000000 1.0
C      1  0.5121940000000  0.5096430000000  0.3843850000000 1.0
C      1  0.4816360000000  0.4983340000000  0.5783280000000 1.0
C      1  0.4732780000000  0.4314910000000  0.4484180000000 1.0
C      1  0.4801310000000  0.5802520000000  0.4654470000000 1.0
C      1  0.5998760000000  0.5411560000000  0.5243460000000 1.0
C      1  0.5969790000000  0.4709930000000  0.5244160000000 1.0
C      1  0.5867620000000  0.4860170000000  0.4621520000000 1.0
C      1  0.4925540000000  0.4626870000000  0.5881400000000 1.0
C      1  0.4892930000000  0.4446700000000  0.4252600000000 1.0
C      1  0.4943920000000  0.5951610000000  0.4876980000000 1.0
C      1  0.4913050000000  0.5380350000000  0.4589050000000 1.0
C      1  0.4901660000000  0.5167820000000  0.5521880000000 1.0
C      1  0.4891570000000  0.4448410000000  0.4877750000000 1.0
C      1  0.4489980000000  0.4466980000000  0.5261800000000 1.0
C      1  0.4447010000000  0.5044940000000  0.4415580000000 1.0
C      1  0.4479950000000  0.5466430000000  0.5308390000000 1.0
C      1  0.5683860000000  0.4818980000000  0.4864470000000 1.0
C      1  0.5844310000000  0.5204400000000  0.5082740000000 1.0
C      1  0.5776100000000  0.4916580000000  0.5126530000000 1.0
C      1  0.5313240000000  0.5060180000000  0.4892150000000 1.0
C      1  0.5312940000000  0.5073810000000  0.5191470000000 1.0
C      1  0.5276310000000  0.4758000000000  0.4876480000000 1.0
C      1  0.5787920000000  0.4655280000000  0.4414760000000 1.0
C      1  0.5908670000000  0.5663850000000  0.5083490000000 1.0
C      1  0.5888190000000  0.4723300000000  0.5532170000000 1.0
C      1  0.5599550000000  0.4497310000000  0.5021520000000 1.0
C      1  0.5547620000000  0.5190680000000  0.4577480000000 1.0
C      1  0.5618800000000  0.5312390000000  0.5494460000000 1.0
C      1  0.4411310000000  0.4463300000000  0.5752930000000 1.0
C      1  0.4350220000000  0.4655110000000  0.4116360000000 1.0
C      1  0.4383320000000  0.5904730000000  0.5091510000000 1.0
C      1  0.5521460000000  0.4895130000000  0.5309780000000 1.0
C      1  0.5363140000000  0.4658910000000  0.4612900000000 1.0
C      1  0.5610960000000  0.5342730000000  0.4953380000000 1.0
C      1  0.5889270000000  0.5449710000000  0.5528140000000 1.0
C      1  0.5883290000000  0.4436650000000  0.5133180000000 1.0
C      1  0.5829500000000  0.5126980000000  0.4480370000000 1.0
C      1  0.4819500000000  0.5913560000000  0.5626450000000 1.0
C      1  0.4857500000000  0.3985000000000  0.5512640000000 1.0
C      1  0.4819010000000  0.5112040000000  0.3864810000000 1.0
C      1  0.5788150000000  0.5062900000000  0.4184350000000 1.0
C      1  0.5801900000000  0.5736770000000  0.5541600000000 1.0
C      1  0.5840210000000  0.4252060000000  0.5364860000000 1.0
C      1  0.4367330000000  0.4734890000000  0.5349810000000 1.0
C      1  0.4308600000000  0.4813490000000  0.4580360000000 1.0
C      1  0.4352680000000  0.5421860000000  0.5026200000000 1.0
C      1  0.4303240000000  0.5863770000000  0.5354400000000 1.0
C      1  0.4327960000000  0.4239880000000  0.5607500000000 1.0
C      1  0.4279070000000  0.4908210000000  0.4025060000000 1.0
C      1  0.3976020000000  0.5157950000000  0.4766260000000 1.0
C      1  0.4017810000000  0.5086390000000  0.5262630000000 1.0
C      1  0.4022730000000  0.4683280000000  0.4947570000000 1.0
C      1  0.4976450000000  0.4011260000000  0.5041560000000 1.0
C      1  0.4990600000000  0.5475550000000  0.4119520000000 1.0
C      1  0.4967210000000  0.5517870000000  0.5842270000000 1.0
C      1  0.4900260000000  0.4123610000000  0.4666100000000 1.0
C      1  0.4958570000000  0.5729260000000  0.4411360000000 1.0
C      1  0.4918040000000  0.5216660000000  0.5974180000000 1.0
C      1  0.4594880000000  0.5273470000000  0.4598030000000 1.0
C      1  0.4611570000000  0.5202680000000  0.5402570000000 1.0
C      1  0.4589800000000  0.4470370000000  0.4957360000000 1.0
C      1  0.4037120000000  0.4869280000000  0.4715280000000 1.0
C      1  0.4067470000000  0.5270270000000  0.5030790000000 1.0
C      1  0.4089830000000  0.4799030000000  0.5219660000000 1.0
C      1  0.5174630000000  0.5578290000000  0.5317200000000 1.0
C      1  0.5172100000000  0.4448200000000  0.5333480000000 1.0
C      1  0.5133780000000  0.4985900000000  0.4321750000000 1.0
C      1  0.4503520000000  0.4962160000000  0.5795580000000 1.0
C      1  0.4435000000000  0.4353080000000  0.4503840000000 1.0
C      1  0.4520200000000  0.5754160000000  0.4648960000000 1.0
C      1  0.4712020000000  0.4850290000000  0.3964940000000 1.0
C      1  0.4738350000000  0.5953090000000  0.5343890000000 1.0
C      1  0.4763790000000  0.4210660000000  0.5680260000000 1.0
C      1  0.5677630000000  0.4036180000000  0.5304560000000 1.0
C      1  0.5712550000000  0.5262650000000  0.4006600000000 1.0
C      1  0.5645810000000  0.5799550000000  0.5760540000000 1.0
C      1  0.4848880000000  0.4917730000000  0.4724460000000 1.0
C      1  0.4885140000000  0.5263330000000  0.5052550000000 1.0
C      1  0.4879880000000  0.4815330000000  0.5202130000000 1.0
C      1  0.5154730000000  0.4766200000000  0.5967850000000 1.0
C      1  0.5149650000000  0.4319100000000  0.4275560000000 1.0
C      1  0.5200280000000  0.5985880000000  0.4750860000000 1.0
C      1  0.4463820000000  0.5380390000000  0.4131620000000 1.0
C      1  0.4451640000000  0.5568920000000  0.5736330000000 1.0
C      1  0.4476420000000  0.4036490000000  0.5165040000000 1.0
C      1  0.5212050000000  0.5858210000000  0.4483050000000 1.0
C      1  0.5164110000000  0.5056750000000  0.6041970000000 1.0
C      1  0.5153620000000  0.4146060000000  0.4515510000000 1.0
C      1  0.5562700000000  0.4916540000000  0.5824410000000 1.0
C      1  0.5616640000000  0.4216780000000  0.4508850000000 1.0
C      1  0.5612440000000  0.5773030000000  0.4715800000000 1.0
C      1  0.4473170000000  0.4106490000000  0.4889020000000 1.0
C      1  0.4399240000000  0.5569860000000  0.4344900000000 1.0
C      1  0.4390160000000  0.5323150000000  0.5867190000000 1.0
C      1  0.5670600000000  0.5733220000000  0.5264740000000 1.0
C      1  0.5720900000000  0.4465520000000  0.5542970000000 1.0
C      1  0.5601290000000  0.4825720000000  0.4244410000000 1.0
C      1  0.5018160000000  0.5177130000000  0.4799080000000 1.0
C      1  0.5020600000000  0.5068460000000  0.5258630000000 1.0
C      1  0.4978430000000  0.4727880000000  0.4918450000000 1.0
C      1  0.5474010000000  0.3999620000000  0.5120410000000 1.0
C      1  0.5473620000000  0.5367110000000  0.4098800000000 1.0
C      1  0.5451030000000  0.5630540000000  0.5860300000000 1.0
C      1  0.5168100000000  0.4858020000000  0.4038680000000 1.0
C      1  0.5202500000000  0.5890280000000  0.5346580000000 1.0
C      1  0.5215780000000  0.4286360000000  0.5594440000000 1.0
C      1  0.5425010000000  0.4692570000000  0.4038850000000 1.0
C      1  0.5469610000000  0.5946590000000  0.5196930000000 1.0
C      1  0.5464450000000  0.4432830000000  0.5703970000000 1.0
C      1  0.4934800000000  0.4656740000000  0.4015340000000 1.0
C      1  0.4975160000000  0.6016910000000  0.5179210000000 1.0
C      1  0.4993240000000  0.4350780000000  0.5799700000000 1.0
C      1  0.5403610000000  0.4228160000000  0.4941570000000 1.0
C      1  0.5408490000000  0.5402720000000  0.4391890000000 1.0
C      1  0.5406760000000  0.5369620000000  0.5720400000000 1.0
C      1  0.4177610000000  0.5165170000000  0.5773610000000 1.0
C      1  0.4286140000000  0.4251990000000  0.4736990000000 1.0
C      1  0.4249210000000  0.5436300000000  0.4554140000000 1.0
C      1  0.5432260000000  0.5908540000000  0.4904620000000 1.0
C      1  0.5392580000000  0.4688960000000  0.5827250000000 1.0
C      1  0.5357940000000  0.4429320000000  0.4117680000000 1.0
C      1  0.4364720000000  0.5698770000000  0.4895360000000 1.0
C      1  0.4381660000000  0.4727790000000  0.5648740000000 1.0
C      1  0.4301680000000  0.4586380000000  0.4388570000000 1.0
C      1  0.5101970000000  0.5310820000000  0.4360220000000 1.0
C      1  0.5109380000000  0.5408370000000  0.5589780000000 1.0
C      1  0.5107160000000  0.4292310000000  0.5046830000000 1.0
C      1  0.4728450000000  0.5656440000000  0.5733420000000 1.0
C      1  0.4756930000000  0.4028630000000  0.5241160000000 1.0
C      1  0.4741280000000  0.5335190000000  0.4039770000000 1.0
C      1  0.4567520000000  0.5240840000000  0.4904450000000 1.0
C      1  0.4579120000000  0.4932700000000  0.5247400000000 1.0
C      1  0.4518130000000  0.4753600000000  0.4802620000000 1.0
C      1  0.4645780000000  0.4842780000000  0.4282280000000 1.0
C      1  0.4684520000000  0.5681640000000  0.5192250000000 1.0
C      1  0.4700210000000  0.4470800000000  0.5495660000000 1.0
C      1  0.5418040000000  0.5149960000000  0.5922440000000 1.0
C      1  0.5403020000000  0.4115750000000  0.4658910000000 1.0
C      1  0.5452640000000  0.5691920000000  0.4477400000000 1.0
C      1  0.4493740000000  0.4977930000000  0.4981830000000 1.0
END
