TITL C-3578203-1966-258 5.81377523185267e-06 125000 -1083.29810346375 0 0 173 (C1) n - 1
REM
REM in /home/bkarasulu/work/CARBON/AIRSS/Generating-Clusters/EDIP-Nigel-Params/with-SteepDescent/Higher-Symm/SD-CG/HFTN-CG
REM
REM
REM
REM
REM
REM ./C.cell (12c818d87b63d06a65506943cc24bca4)
REM
REM compiler GCC version 9.2.1 20190827 (Red Hat 9.2.1-1)
REM options -cpp -mtune=generic -march=x86-64 -g -O0 -fpre-include=/usr/include/finclude/math-vector-fortran.h
REM seed 369851177 925877328 279117424 -1779017445 -1746532568 -1483090683 745440357 -529783559 -666817952 -1625441538 -906916746 1046416966 -887916911 -265233253 591194588 151266773 711367162 644579575 919407485 1404418999 -397992396 1173558325 112287260 -1768510410 1780293425 -505696989 -1217052433 77673473 -238029131 -698540680 883469555 2129615933 469748720
REM
CELL 1.54180   50.00000   50.00000   50.00000   90.00000   90.00000   90.00000
LATT -1
SFAC C  
C      1  0.4522800000000  0.3933340000000  0.4837590000000 1.0
C      1  0.5868410000000  0.4224500000000  0.4876600000000 1.0
C      1  0.6006620000000  0.5575090000000  0.4841170000000 1.0
C      1  0.4767230000000  0.6132220000000  0.4816200000000 1.0
C      1  0.3830110000000  0.5114510000000  0.4844760000000 1.0
C      1  0.4578790000000  0.3939390000000  0.5123040000000 1.0
C      1  0.5882130000000  0.4187530000000  0.5162010000000 1.0
C      1  0.5930550000000  0.5579730000000  0.5121950000000 1.0
C      1  0.4746470000000  0.6089140000000  0.5101370000000 1.0
C      1  0.3863900000000  0.5089810000000  0.5131490000000 1.0
C      1  0.5426090000000  0.4492140000000  0.4158920000000 1.0
C      1  0.5593270000000  0.5256150000000  0.4193730000000 1.0
C      1  0.4952890000000  0.5679080000000  0.4127960000000 1.0
C      1  0.4327900000000  0.5177260000000  0.4131010000000 1.0
C      1  0.4652040000000  0.4480780000000  0.4212090000000 1.0
C      1  0.5469610000000  0.4483050000000  0.5899060000000 1.0
C      1  0.5609350000000  0.5264950000000  0.5872710000000 1.0
C      1  0.4897130000000  0.5676350000000  0.5855600000000 1.0
C      1  0.4391780000000  0.5097110000000  0.5771290000000 1.0
C      1  0.4689270000000  0.4404250000000  0.5846400000000 1.0
C      1  0.4778240000000  0.5391460000000  0.5843370000000 1.0
C      1  0.4559840000000  0.4873670000000  0.5847200000000 1.0
C      1  0.4964250000000  0.4495580000000  0.5915110000000 1.0
C      1  0.5429760000000  0.4791340000000  0.5878810000000 1.0
C      1  0.5326140000000  0.5363340000000  0.5913560000000 1.0
C      1  0.4756220000000  0.5446290000000  0.4114320000000 1.0
C      1  0.4530910000000  0.4957260000000  0.4164730000000 1.0
C      1  0.4929000000000  0.4592150000000  0.4193960000000 1.0
C      1  0.5412460000000  0.4792150000000  0.4164930000000 1.0
C      1  0.5351910000000  0.5382950000000  0.4083530000000 1.0
C      1  0.5402570000000  0.4005100000000  0.5156310000000 1.0
C      1  0.6061280000000  0.5069820000000  0.5119090000000 1.0
C      1  0.5269660000000  0.6057320000000  0.5112540000000 1.0
C      1  0.4048630000000  0.5580900000000  0.5117760000000 1.0
C      1  0.4225030000000  0.4320400000000  0.5155100000000 1.0
C      1  0.5395700000000  0.4059090000000  0.4869850000000 1.0
C      1  0.6002840000000  0.5071990000000  0.4836760000000 1.0
C      1  0.5255240000000  0.6009070000000  0.4824890000000 1.0
C      1  0.4113170000000  0.5530700000000  0.4837680000000 1.0
C      1  0.4220760000000  0.4337180000000  0.4867380000000 1.0
C      1  0.5235940000000  0.4888350000000  0.6094670000000 1.0
C      1  0.5156760000000  0.5177780000000  0.6085760000000 1.0
C      1  0.4860000000000  0.5215650000000  0.6082350000000 1.0
C      1  0.4759460000000  0.4926970000000  0.6067680000000 1.0
C      1  0.4985650000000  0.4722480000000  0.6104760000000 1.0
C      1  0.5218690000000  0.4903450000000  0.3958010000000 1.0
C      1  0.5165510000000  0.5197770000000  0.3925340000000 1.0
C      1  0.4859880000000  0.5243050000000  0.3912090000000 1.0
C      1  0.4742770000000  0.4971810000000  0.3943900000000 1.0
C      1  0.4959400000000  0.4766690000000  0.3954550000000 1.0
C      1  0.5970480000000  0.4836830000000  0.4668850000000 1.0
C      1  0.5470110000000  0.5913480000000  0.4651770000000 1.0
C      1  0.4264210000000  0.5708210000000  0.4653200000000 1.0
C      1  0.4103150000000  0.4553360000000  0.4705150000000 1.0
C      1  0.5167640000000  0.4028470000000  0.4687140000000 1.0
C      1  0.6001020000000  0.4836130000000  0.5297940000000 1.0
C      1  0.5463880000000  0.5918690000000  0.5298830000000 1.0
C      1  0.4260490000000  0.5694870000000  0.5294720000000 1.0
C      1  0.4137110000000  0.4535620000000  0.5330960000000 1.0
C      1  0.5154410000000  0.4019640000000  0.5315800000000 1.0
C      1  0.4432140000000  0.4125520000000  0.5554360000000 1.0
C      1  0.5637060000000  0.4115950000000  0.5588860000000 1.0
C      1  0.5887910000000  0.5250170000000  0.5516750000000 1.0
C      1  0.5031360000000  0.5961830000000  0.5509760000000 1.0
C      1  0.4075000000000  0.5324890000000  0.5525120000000 1.0
C      1  0.4368110000000  0.4180920000000  0.4452460000000 1.0
C      1  0.5614270000000  0.4182390000000  0.4480170000000 1.0
C      1  0.5990640000000  0.5314910000000  0.4441170000000 1.0
C      1  0.5012100000000  0.6031550000000  0.4430940000000 1.0
C      1  0.4003510000000  0.5312680000000  0.4452830000000 1.0
C      1  0.4811140000000  0.5795430000000  0.5603380000000 1.0
C      1  0.4174250000000  0.5067670000000  0.5596330000000 1.0
C      1  0.4670090000000  0.4172420000000  0.5685840000000 1.0
C      1  0.5681350000000  0.4383040000000  0.5709320000000 1.0
C      1  0.5739030000000  0.5427090000000  0.5676260000000 1.0
C      1  0.4841060000000  0.5877370000000  0.4289030000000 1.0
C      1  0.4119810000000  0.5115770000000  0.4310250000000 1.0
C      1  0.4618860000000  0.4227480000000  0.4335490000000 1.0
C      1  0.5633300000000  0.4406840000000  0.4329320000000 1.0
C      1  0.5763070000000  0.5424920000000  0.4337500000000 1.0
C      1  0.5212250000000  0.4228540000000  0.5545820000000 1.0
C      1  0.5836030000000  0.4965900000000  0.5552200000000 1.0
C      1  0.5290470000000  0.5830090000000  0.5557910000000 1.0
C      1  0.4290240000000  0.5524270000000  0.5558960000000 1.0
C      1  0.4278890000000  0.4545390000000  0.5583350000000 1.0
C      1  0.5175280000000  0.4176740000000  0.4439710000000 1.0
C      1  0.5850000000000  0.4893130000000  0.4412740000000 1.0
C      1  0.5379150000000  0.5794410000000  0.4399360000000 1.0
C      1  0.4321860000000  0.5604630000000  0.4387930000000 1.0
C      1  0.4220170000000  0.4599100000000  0.4440910000000 1.0
C      1  0.4744500000000  0.5136500000000  0.5370820000000 1.0
C      1  0.4790210000000  0.4845590000000  0.5286090000000 1.0
C      1  0.5140710000000  0.4682500000000  0.5233090000000 1.0
C      1  0.5381410000000  0.5034640000000  0.5386290000000 1.0
C      1  0.5020250000000  0.5365040000000  0.5215190000000 1.0
C      1  0.4810910000000  0.5169890000000  0.4816670000000 1.0
C      1  0.4786510000000  0.4887290000000  0.4790950000000 1.0
C      1  0.5042810000000  0.4780270000000  0.4816650000000 1.0
C      1  0.5223160000000  0.5000500000000  0.4917820000000 1.0
C      1  0.5110230000000  0.5217090000000  0.4732440000000 1.0
C      1  0.5163940000000  0.4387590000000  0.4242870000000 1.0
C      1  0.5654860000000  0.4968640000000  0.4215690000000 1.0
C      1  0.5232290000000  0.5620380000000  0.4215230000000 1.0
C      1  0.4442600000000  0.5451590000000  0.4172020000000 1.0
C      1  0.4443220000000  0.4673390000000  0.4269010000000 1.0
C      1  0.5207860000000  0.4336780000000  0.5840060000000 1.0
C      1  0.5666940000000  0.4977050000000  0.5812010000000 1.0
C      1  0.5203430000000  0.5705700000000  0.5840000000000 1.0
C      1  0.4491330000000  0.5364870000000  0.5734780000000 1.0
C      1  0.4473020000000  0.4600390000000  0.5789810000000 1.0
C      1  0.4690900000000  0.5602300000000  0.4705100000000 1.0
C      1  0.4330770000000  0.4925990000000  0.4778300000000 1.0
C      1  0.4852740000000  0.4339470000000  0.4695430000000 1.0
C      1  0.5573100000000  0.4671160000000  0.4789320000000 1.0
C      1  0.5495070000000  0.5475370000000  0.4687510000000 1.0
C      1  0.4657810000000  0.5603470000000  0.5148610000000 1.0
C      1  0.4348660000000  0.4910900000000  0.5222040000000 1.0
C      1  0.4856060000000  0.4321850000000  0.5187490000000 1.0
C      1  0.5623250000000  0.4617380000000  0.5227640000000 1.0
C      1  0.5456040000000  0.5467980000000  0.5184220000000 1.0
C      1  0.4766220000000  0.5582890000000  0.5410930000000 1.0
C      1  0.4440960000000  0.5179440000000  0.5337680000000 1.0
C      1  0.4668160000000  0.4433650000000  0.5405640000000 1.0
C      1  0.5508710000000  0.4461540000000  0.5461060000000 1.0
C      1  0.5456650000000  0.5323410000000  0.5448870000000 1.0
C      1  0.4955680000000  0.5630020000000  0.4562070000000 1.0
C      1  0.4380790000000  0.5157560000000  0.4590090000000 1.0
C      1  0.4570510000000  0.4460280000000  0.4639190000000 1.0
C      1  0.5387120000000  0.4527140000000  0.4601370000000 1.0
C      1  0.5634860000000  0.5201940000000  0.4630890000000 1.0
C      1  0.4931300000000  0.5232930000000  0.5628990000000 1.0
C      1  0.4824680000000  0.4693210000000  0.5542730000000 1.0
C      1  0.5117060000000  0.4616220000000  0.5514330000000 1.0
C      1  0.5255220000000  0.4854900000000  0.5636720000000 1.0
C      1  0.5207350000000  0.5396940000000  0.5612510000000 1.0
C      1  0.4833410000000  0.5333000000000  0.4382360000000 1.0
C      1  0.4644730000000  0.5071540000000  0.4420730000000 1.0
C      1  0.4953830000000  0.4827240000000  0.4394580000000 1.0
C      1  0.5287360000000  0.4800030000000  0.4446780000000 1.0
C      1  0.5300950000000  0.5123130000000  0.4496110000000 1.0
C      1  0.5579640000000  0.4908130000000  0.5195000000000 1.0
C      1  0.5201210000000  0.5530000000000  0.5066120000000 1.0
C      1  0.4437870000000  0.5400050000000  0.5102610000000 1.0
C      1  0.4551310000000  0.4710430000000  0.5153030000000 1.0
C      1  0.5105930000000  0.4439790000000  0.5090140000000 1.0
C      1  0.5524110000000  0.4954000000000  0.4888030000000 1.0
C      1  0.5200600000000  0.5495360000000  0.4771330000000 1.0
C      1  0.4570920000000  0.5340440000000  0.4799180000000 1.0
C      1  0.4551500000000  0.4732950000000  0.4841070000000 1.0
C      1  0.5100430000000  0.4492950000000  0.4795200000000 1.0
C      1  0.4324710000000  0.4109140000000  0.4723550000000 1.0
C      1  0.5647430000000  0.4098380000000  0.4739910000000 1.0
C      1  0.6052340000000  0.5322650000000  0.4709830000000 1.0
C      1  0.5023190000000  0.6111590000000  0.4692320000000 1.0
C      1  0.3929830000000  0.5350410000000  0.4713090000000 1.0
C      1  0.4390180000000  0.4113250000000  0.5277320000000 1.0
C      1  0.5651240000000  0.4077240000000  0.5301000000000 1.0
C      1  0.5971640000000  0.5314790000000  0.5251710000000 1.0
C      1  0.5005520000000  0.6026130000000  0.5230630000000 1.0
C      1  0.3949940000000  0.5341620000000  0.5262230000000 1.0
C      1  0.5901590000000  0.4568160000000  0.5139600000000 1.0
C      1  0.5636980000000  0.5695480000000  0.5133970000000 1.0
C      1  0.4532010000000  0.5868900000000  0.5084090000000 1.0
C      1  0.4074820000000  0.4807590000000  0.5185170000000 1.0
C      1  0.4875280000000  0.4037540000000  0.5129820000000 1.0
C      1  0.5857790000000  0.4592520000000  0.4816470000000 1.0
C      1  0.5649730000000  0.5709090000000  0.4800870000000 1.0
C      1  0.4520100000000  0.5839880000000  0.4768070000000 1.0
C      1  0.4066040000000  0.4816560000000  0.4857290000000 1.0
C      1  0.4887040000000  0.4053970000000  0.4803620000000 1.0
C      1  0.5054050000000  0.5142470000000  0.4294540000000 1.0
C      1  0.4978750000000  0.4963470000000  0.5745200000000 1.0
C      1  0.5146910000000  0.5076290000000  0.5200710000000 1.0
END
