TITL C-3577082-504-54 4.68076136304372e-07 125000 -502.3235000698 0 0 82 (C1) n - 1
REM
REM in /home/bkarasulu/work/CARBON/AIRSS/Generating-Clusters/EDIP-Nigel-Params/with-SteepDescent/Higher-Symm/SD-CG/HFTN-CG
REM
REM
REM
REM
REM
REM ./C.cell (12c818d87b63d06a65506943cc24bca4)
REM
REM compiler GCC version 9.2.1 20190827 (Red Hat 9.2.1-1)
REM options -cpp -mtune=generic -march=x86-64 -g -O0 -fpre-include=/usr/include/finclude/math-vector-fortran.h
REM seed 728161669 1641335428 -1442550419 1744935014 -485889899 190518843 -1903264132 309244354 -645150261 -996235324 1690019259 53787389 99920233 1585509245 442341359 1907205067 660213441 -1188531058 -338714144 1983020083 -272572293 1850682914 -2110994476 -1029023787 -729777085 -1657984049 -1521694360 579230574 -563634375 635259423 -2065115015 118678942 -512937670
REM
CELL 1.54180   50.00000   50.00000   50.00000   90.00000   90.00000   90.00000
LATT -1
SFAC C  
C      1  0.5420890000000  0.5592770000000  0.4655350000000 1.0
C      1  0.4233960000000  0.5067460000000  0.4660550000000 1.0
C      1  0.5341130000000  0.4296370000000  0.4654100000000 1.0
C      1  0.5356830000000  0.4927440000000  0.5860740000000 1.0
C      1  0.4895850000000  0.5324520000000  0.5845130000000 1.0
C      1  0.4790560000000  0.4742200000000  0.5836210000000 1.0
C      1  0.5106530000000  0.4734790000000  0.4525500000000 1.0
C      1  0.5144150000000  0.5202660000000  0.4515590000000 1.0
C      1  0.4716520000000  0.5008620000000  0.4516330000000 1.0
C      1  0.4958370000000  0.5748610000000  0.5018460000000 1.0
C      1  0.4358530000000  0.4579110000000  0.5022880000000 1.0
C      1  0.5700250000000  0.4670170000000  0.5015220000000 1.0
C      1  0.5506900000000  0.5210720000000  0.5446940000000 1.0
C      1  0.4562110000000  0.5320200000000  0.5445720000000 1.0
C      1  0.4978040000000  0.4450160000000  0.5476480000000 1.0
C      1  0.4201140000000  0.5073020000000  0.5139320000000 1.0
C      1  0.5328280000000  0.4365930000000  0.5091060000000 1.0
C      1  0.5459520000000  0.5637280000000  0.5128310000000 1.0
C      1  0.4385960000000  0.4658950000000  0.4448910000000 1.0
C      1  0.5578270000000  0.4655370000000  0.4435780000000 1.0
C      1  0.5001640000000  0.5660290000000  0.4434650000000 1.0
C      1  0.4810350000000  0.5739490000000  0.5273100000000 1.0
C      1  0.4462220000000  0.4444830000000  0.5281920000000 1.0
C      1  0.5766080000000  0.4793920000000  0.5275150000000 1.0
C      1  0.5334740000000  0.5136770000000  0.5677180000000 1.0
C      1  0.4713230000000  0.5204960000000  0.5671250000000 1.0
C      1  0.4998590000000  0.4588630000000  0.5735350000000 1.0
C      1  0.5617070000000  0.4380970000000  0.5027040000000 1.0
C      1  0.5254410000000  0.5837910000000  0.5033540000000 1.0
C      1  0.4129310000000  0.4791420000000  0.5047410000000 1.0
C      1  0.5786200000000  0.4502160000000  0.4588120000000 1.0
C      1  0.5050080000000  0.5910210000000  0.4593300000000 1.0
C      1  0.4143260000000  0.4579760000000  0.4605700000000 1.0
C      1  0.4333570000000  0.5747690000000  0.4669310000000 1.0
C      1  0.4704620000000  0.4101460000000  0.4741620000000 1.0
C      1  0.5969090000000  0.5213940000000  0.4650930000000 1.0
C      1  0.5852510000000  0.5331020000000  0.4875570000000 1.0
C      1  0.4280460000000  0.5574420000000  0.4881470000000 1.0
C      1  0.4889180000000  0.4265860000000  0.4869600000000 1.0
C      1  0.5139160000000  0.5464300000000  0.4627630000000 1.0
C      1  0.4485500000000  0.4885820000000  0.4631370000000 1.0
C      1  0.5345400000000  0.4619340000000  0.4633110000000 1.0
C      1  0.4722830000000  0.5637630000000  0.4393580000000 1.0
C      1  0.4552760000000  0.4433590000000  0.4404610000000 1.0
C      1  0.5681210000000  0.4914190000000  0.4386480000000 1.0
C      1  0.5250890000000  0.4390260000000  0.5370940000000 1.0
C      1  0.5396510000000  0.5473560000000  0.5363210000000 1.0
C      1  0.4391510000000  0.5093150000000  0.5362400000000 1.0
C      1  0.5886300000000  0.4720630000000  0.4776290000000 1.0
C      1  0.4816190000000  0.5894850000000  0.4788840000000 1.0
C      1  0.4282840000000  0.4387280000000  0.4796090000000 1.0
C      1  0.4542330000000  0.5464160000000  0.4979590000000 1.0
C      1  0.4784860000000  0.4447470000000  0.5080240000000 1.0
C      1  0.5637360000000  0.5144570000000  0.4978250000000 1.0
C      1  0.4708150000000  0.4891520000000  0.5137830000000 1.0
C      1  0.5225510000000  0.4783330000000  0.5179650000000 1.0
C      1  0.5059280000000  0.5285380000000  0.5154240000000 1.0
C      1  0.4976470000000  0.5468110000000  0.4906490000000 1.0
C      1  0.4554440000000  0.4770400000000  0.4909960000000 1.0
C      1  0.5425570000000  0.4765060000000  0.4918340000000 1.0
C      1  0.4225560000000  0.5254790000000  0.4898390000000 1.0
C      1  0.5176440000000  0.4214670000000  0.4888600000000 1.0
C      1  0.5595870000000  0.5520110000000  0.4889170000000 1.0
C      1  0.5268880000000  0.4699070000000  0.5725020000000 1.0
C      1  0.5133630000000  0.5344970000000  0.5700560000000 1.0
C      1  0.4639870000000  0.4927280000000  0.5694950000000 1.0
C      1  0.4614700000000  0.5731710000000  0.4637050000000 1.0
C      1  0.4510810000000  0.4277590000000  0.4636770000000 1.0
C      1  0.5828360000000  0.4969730000000  0.4621140000000 1.0
C      1  0.5277270000000  0.5080630000000  0.5094490000000 1.0
C      1  0.4777970000000  0.5180880000000  0.5087750000000 1.0
C      1  0.4939730000000  0.4710350000000  0.5119120000000 1.0
C      1  0.5131520000000  0.5502490000000  0.5464010000000 1.0
C      1  0.4503030000000  0.4846970000000  0.5457770000000 1.0
C      1  0.5391600000000  0.4616310000000  0.5480520000000 1.0
C      1  0.4727710000000  0.4316100000000  0.5367400000000 1.0
C      1  0.5685770000000  0.5064220000000  0.5258950000000 1.0
C      1  0.4601940000000  0.5547440000000  0.5258530000000 1.0
C      1  0.4054520000000  0.4830910000000  0.4754330000000 1.0
C      1  0.5635310000000  0.4287440000000  0.4741730000000 1.0
C      1  0.5313490000000  0.5867940000000  0.4737940000000 1.0
C      1  0.4988430000000  0.4979570000000  0.4479040000000 1.0
END
