TITL C-3578199-7832-365 4.3159794013797e-07 125000 -877.580355279592 0 0 140 (C1) n - 1
REM
REM in /home/bkarasulu/work/CARBON/AIRSS/Generating-Clusters/EDIP-Nigel-Params/with-SteepDescent/Higher-Symm/SD-CG/HFTN-CG
REM
REM
REM
REM
REM
REM ./C.cell (12c818d87b63d06a65506943cc24bca4)
REM
REM compiler GCC version 9.2.1 20190827 (Red Hat 9.2.1-1)
REM options -cpp -mtune=generic -march=x86-64 -g -O0 -fpre-include=/usr/include/finclude/math-vector-fortran.h
REM seed 1426662202 377415101 -2050947008 -733660095 2038356614 -1643463781 1634050805 543294480 -1402792716 -872541477 -1427002264 845015240 -557290714 -1680587542 -34067280 1731895532 -874592761 1138804369 -992256662 297234792 -591393440 -1261415841 1391692998 -1197974697 1622024119 -1068035699 -1199250687 -1064571025 1084322078 -681940837 978315065 1484033111 -2089682177
REM
CELL 1.54180   50.00000   50.00000   50.00000   90.00000   90.00000   90.00000
LATT -1
SFAC C  
C      1  0.5954590000000  0.5137930000000  0.4883090000000 1.0
C      1  0.5679650000000  0.4697170000000  0.4605750000000 1.0
C      1  0.4029250000000  0.4898560000000  0.5376630000000 1.0
C      1  0.5647810000000  0.5030110000000  0.4582970000000 1.0
C      1  0.5530590000000  0.4828350000000  0.5619250000000 1.0
C      1  0.4586660000000  0.5203030000000  0.5437410000000 1.0
C      1  0.5512090000000  0.5427770000000  0.4179950000000 1.0
C      1  0.4678630000000  0.4761460000000  0.5347950000000 1.0
C      1  0.5356420000000  0.5179980000000  0.4512510000000 1.0
C      1  0.4719020000000  0.5443990000000  0.4151730000000 1.0
C      1  0.3952940000000  0.5015200000000  0.5109280000000 1.0
C      1  0.4918980000000  0.4643320000000  0.5220920000000 1.0
C      1  0.4372390000000  0.5041960000000  0.5719950000000 1.0
C      1  0.4823260000000  0.4938000000000  0.4851650000000 1.0
C      1  0.5706060000000  0.5436160000000  0.4412680000000 1.0
C      1  0.4658070000000  0.4986900000000  0.4027620000000 1.0
C      1  0.4493760000000  0.4270910000000  0.5324610000000 1.0
C      1  0.5914830000000  0.5061050000000  0.5481850000000 1.0
C      1  0.5180760000000  0.4529850000000  0.5916380000000 1.0
C      1  0.5887460000000  0.4853730000000  0.4970520000000 1.0
C      1  0.5675550000000  0.4330600000000  0.5017160000000 1.0
C      1  0.4203240000000  0.5277060000000  0.4743200000000 1.0
C      1  0.4464440000000  0.4683990000000  0.4883630000000 1.0
C      1  0.5130460000000  0.4801280000000  0.4113250000000 1.0
C      1  0.5177070000000  0.5694720000000  0.4515900000000 1.0
C      1  0.5285580000000  0.4802170000000  0.4888060000000 1.0
C      1  0.4242390000000  0.5740590000000  0.5002040000000 1.0
C      1  0.4529750000000  0.5054920000000  0.4431250000000 1.0
C      1  0.4535290000000  0.4792220000000  0.4219500000000 1.0
C      1  0.5638380000000  0.4579530000000  0.4322290000000 1.0
C      1  0.5407400000000  0.4908010000000  0.4028000000000 1.0
C      1  0.4699860000000  0.4552570000000  0.4292580000000 1.0
C      1  0.5717280000000  0.5046170000000  0.5716600000000 1.0
C      1  0.5180710000000  0.6059090000000  0.4967520000000 1.0
C      1  0.5186870000000  0.5683010000000  0.5461350000000 1.0
C      1  0.5571160000000  0.4821440000000  0.5046080000000 1.0
C      1  0.5715880000000  0.4634870000000  0.5452870000000 1.0
C      1  0.4292250000000  0.4422930000000  0.4590100000000 1.0
C      1  0.4913040000000  0.4329060000000  0.5603020000000 1.0
C      1  0.5110000000000  0.5197210000000  0.5108290000000 1.0
C      1  0.4116650000000  0.5540490000000  0.5160450000000 1.0
C      1  0.5270160000000  0.5278180000000  0.5919190000000 1.0
C      1  0.4354070000000  0.4484300000000  0.5472550000000 1.0
C      1  0.4926690000000  0.5357230000000  0.4661910000000 1.0
C      1  0.4022450000000  0.5348920000000  0.5579360000000 1.0
C      1  0.5392160000000  0.4394760000000  0.4342080000000 1.0
C      1  0.5381510000000  0.5233590000000  0.5036600000000 1.0
C      1  0.4883430000000  0.4045380000000  0.5171220000000 1.0
C      1  0.4521580000000  0.5522970000000  0.5818100000000 1.0
C      1  0.5154230000000  0.4207860000000  0.5740110000000 1.0
C      1  0.5358400000000  0.5655570000000  0.4113650000000 1.0
C      1  0.5234650000000  0.4103690000000  0.4701650000000 1.0
C      1  0.5939310000000  0.4671800000000  0.4742760000000 1.0
C      1  0.5369630000000  0.5534280000000  0.5025600000000 1.0
C      1  0.4981700000000  0.5321250000000  0.4183750000000 1.0
C      1  0.5555870000000  0.5306420000000  0.5746710000000 1.0
C      1  0.4109180000000  0.5086150000000  0.5590990000000 1.0
C      1  0.5629820000000  0.5568920000000  0.4672330000000 1.0
C      1  0.5340910000000  0.4147350000000  0.5526200000000 1.0
C      1  0.4748420000000  0.4150610000000  0.5415550000000 1.0
C      1  0.4757460000000  0.4672690000000  0.4777750000000 1.0
C      1  0.4763150000000  0.5547050000000  0.5116390000000 1.0
C      1  0.5617670000000  0.4749010000000  0.4106780000000 1.0
C      1  0.4574860000000  0.5355320000000  0.4978080000000 1.0
C      1  0.5557800000000  0.4521050000000  0.5225450000000 1.0
C      1  0.4737840000000  0.4159730000000  0.4620050000000 1.0
C      1  0.5864520000000  0.5185740000000  0.4452110000000 1.0
C      1  0.4743250000000  0.5839730000000  0.5038950000000 1.0
C      1  0.5338440000000  0.4771120000000  0.5850430000000 1.0
C      1  0.3974830000000  0.4781790000000  0.4907040000000 1.0
C      1  0.5602100000000  0.4059710000000  0.5026850000000 1.0
C      1  0.5301850000000  0.4370620000000  0.5333080000000 1.0
C      1  0.5334630000000  0.3994110000000  0.4965860000000 1.0
C      1  0.4441100000000  0.5452740000000  0.4725770000000 1.0
C      1  0.5009840000000  0.4141950000000  0.4502630000000 1.0
C      1  0.5155340000000  0.4698510000000  0.4411720000000 1.0
C      1  0.5519150000000  0.4438690000000  0.4779130000000 1.0
C      1  0.5444340000000  0.5637380000000  0.5329360000000 1.0
C      1  0.4735250000000  0.4467430000000  0.5805190000000 1.0
C      1  0.4526340000000  0.5240570000000  0.4096780000000 1.0
C      1  0.5140620000000  0.5818720000000  0.4094320000000 1.0
C      1  0.6075340000000  0.5200930000000  0.4635810000000 1.0
C      1  0.5626020000000  0.5820040000000  0.5087030000000 1.0
C      1  0.4391830000000  0.5746560000000  0.4757340000000 1.0
C      1  0.4938080000000  0.5034690000000  0.4110200000000 1.0
C      1  0.5131210000000  0.5390350000000  0.4448180000000 1.0
C      1  0.4547360000000  0.4334830000000  0.4459040000000 1.0
C      1  0.4760620000000  0.4209200000000  0.4934530000000 1.0
C      1  0.4429390000000  0.5153060000000  0.5160720000000 1.0
C      1  0.4937780000000  0.5874600000000  0.4514650000000 1.0
C      1  0.5047420000000  0.4922370000000  0.5036480000000 1.0
C      1  0.4735280000000  0.5477280000000  0.5428970000000 1.0
C      1  0.4487010000000  0.4271770000000  0.5036110000000 1.0
C      1  0.4213460000000  0.4675260000000  0.5283270000000 1.0
C      1  0.5148320000000  0.5011300000000  0.5835950000000 1.0
C      1  0.4146760000000  0.5248780000000  0.5047290000000 1.0
C      1  0.5345920000000  0.4965440000000  0.5422810000000 1.0
C      1  0.5619360000000  0.5449900000000  0.5485480000000 1.0
C      1  0.5524560000000  0.5068910000000  0.5213720000000 1.0
C      1  0.4653950000000  0.5886050000000  0.4767670000000 1.0
C      1  0.5466040000000  0.5183320000000  0.4043080000000 1.0
C      1  0.5107040000000  0.4289930000000  0.4249950000000 1.0
C      1  0.5890280000000  0.5358950000000  0.5061310000000 1.0
C      1  0.4244220000000  0.4351230000000  0.4885070000000 1.0
C      1  0.4968220000000  0.6000290000000  0.5139180000000 1.0
C      1  0.5048460000000  0.5468460000000  0.5849390000000 1.0
C      1  0.4862140000000  0.4674090000000  0.4496980000000 1.0
C      1  0.4802730000000  0.5009450000000  0.5447120000000 1.0
C      1  0.4370800000000  0.4787250000000  0.5848870000000 1.0
C      1  0.5464670000000  0.4228660000000  0.4576980000000 1.0
C      1  0.4937520000000  0.4490510000000  0.4101720000000 1.0
C      1  0.5785250000000  0.5608320000000  0.4923490000000 1.0
C      1  0.4518970000000  0.4621900000000  0.5676700000000 1.0
C      1  0.4793710000000  0.5097550000000  0.4615380000000 1.0
C      1  0.4449450000000  0.4824140000000  0.5155150000000 1.0
C      1  0.4445760000000  0.5243340000000  0.5936420000000 1.0
C      1  0.4784070000000  0.5435310000000  0.5993980000000 1.0
C      1  0.5754890000000  0.5249570000000  0.5311930000000 1.0
C      1  0.4905830000000  0.4628120000000  0.5983920000000 1.0
C      1  0.5175940000000  0.4019840000000  0.5211580000000 1.0
C      1  0.5226120000000  0.4514800000000  0.4870240000000 1.0
C      1  0.5072780000000  0.4520080000000  0.5430650000000 1.0
C      1  0.4921630000000  0.4482440000000  0.4948790000000 1.0
C      1  0.5090920000000  0.5096290000000  0.5539180000000 1.0
C      1  0.5422240000000  0.5769000000000  0.4662600000000 1.0
C      1  0.4716410000000  0.5134660000000  0.6072450000000 1.0
C      1  0.4156440000000  0.5557860000000  0.5453490000000 1.0
C      1  0.5281370000000  0.4896010000000  0.4602910000000 1.0
C      1  0.4415640000000  0.5634960000000  0.5568330000000 1.0
C      1  0.4684800000000  0.5721440000000  0.4143680000000 1.0
C      1  0.4268880000000  0.5037540000000  0.4583930000000 1.0
C      1  0.5926690000000  0.4804140000000  0.5332470000000 1.0
C      1  0.4883570000000  0.4926210000000  0.5941640000000 1.0
C      1  0.5048800000000  0.5908370000000  0.5386970000000 1.0
C      1  0.4212970000000  0.4771320000000  0.4707960000000 1.0
C      1  0.5426880000000  0.5948380000000  0.4891830000000 1.0
C      1  0.4065940000000  0.4536270000000  0.5054840000000 1.0
C      1  0.4897780000000  0.5882200000000  0.4226280000000 1.0
C      1  0.5027560000000  0.5446410000000  0.5553350000000 1.0
C      1  0.5005950000000  0.5439790000000  0.4955100000000 1.0
END
