TITL C-3578198-8939-100 -2.73008549333191e-06 125000 -984.618415154694 0 0 160 (C1) n - 1
REM
REM in /home/bkarasulu/work/CARBON/AIRSS/Generating-Clusters/EDIP-Nigel-Params/with-SteepDescent/Higher-Symm/SD-CG/HFTN-CG
REM
REM
REM
REM
REM
REM ./C.cell (12c818d87b63d06a65506943cc24bca4)
REM
REM compiler GCC version 9.2.1 20190827 (Red Hat 9.2.1-1)
REM options -cpp -mtune=generic -march=x86-64 -g -O0 -fpre-include=/usr/include/finclude/math-vector-fortran.h
REM seed -1073537453 -225460407 -1459273121 -2115685603 1750661381 -2082176160 729805662 -1819316434 -417772406 399363552 -100515771 524334331 -371359421 -1596331922 -1641884394 1074975652 -2143942958 -1295443599 1140595315 394826465 418607664 -2144770704 -404575684 -668736759 -1364804076 1543373425 -164639872 -233628596 -649196180 1164463616 -206205848 620453246 -914858764
REM
CELL 1.54180   50.00000   50.00000   50.00000   90.00000   90.00000   90.00000
LATT -1
SFAC C  
C      1  0.4900020000000  0.5811920000000  0.5221570000000 1.0
C      1  0.4325190000000  0.5391290000000  0.5197170000000 1.0
C      1  0.4217900000000  0.4694510000000  0.5140860000000 1.0
C      1  0.4796730000000  0.4291550000000  0.5097310000000 1.0
C      1  0.5627000000000  0.4424020000000  0.5130910000000 1.0
C      1  0.5812590000000  0.4904090000000  0.5141900000000 1.0
C      1  0.5571420000000  0.5591760000000  0.5241270000000 1.0
C      1  0.5116610000000  0.5943100000000  0.4449470000000 1.0
C      1  0.4408540000000  0.5580150000000  0.4391860000000 1.0
C      1  0.4072010000000  0.4878530000000  0.4359780000000 1.0
C      1  0.4503930000000  0.4184770000000  0.4362320000000 1.0
C      1  0.5369800000000  0.4096040000000  0.4409420000000 1.0
C      1  0.5835760000000  0.4722330000000  0.4319110000000 1.0
C      1  0.5760430000000  0.5507150000000  0.4416750000000 1.0
C      1  0.4154600000000  0.5148210000000  0.4727030000000 1.0
C      1  0.4321220000000  0.4444370000000  0.4695550000000 1.0
C      1  0.4992260000000  0.4052020000000  0.4721940000000 1.0
C      1  0.5773040000000  0.4433770000000  0.4650570000000 1.0
C      1  0.5804780000000  0.5190210000000  0.4726680000000 1.0
C      1  0.5337360000000  0.5769050000000  0.4807150000000 1.0
C      1  0.4611860000000  0.5745120000000  0.4766090000000 1.0
C      1  0.5105330000000  0.4033150000000  0.5609650000000 1.0
C      1  0.5783390000000  0.4439390000000  0.5609420000000 1.0
C      1  0.6005860000000  0.5287560000000  0.5651660000000 1.0
C      1  0.5392030000000  0.5933600000000  0.5701840000000 1.0
C      1  0.4498660000000  0.5877660000000  0.5665930000000 1.0
C      1  0.4025930000000  0.5124060000000  0.5661300000000 1.0
C      1  0.4265010000000  0.4267010000000  0.5589690000000 1.0
C      1  0.5790560000000  0.5685590000000  0.5425750000000 1.0
C      1  0.4986920000000  0.6035020000000  0.5410210000000 1.0
C      1  0.4190960000000  0.5572980000000  0.5398780000000 1.0
C      1  0.4007210000000  0.4713860000000  0.5357700000000 1.0
C      1  0.4676710000000  0.4118330000000  0.5318820000000 1.0
C      1  0.5459670000000  0.4283330000000  0.5343900000000 1.0
C      1  0.5999680000000  0.4748390000000  0.5307170000000 1.0
C      1  0.4669410000000  0.4738370000000  0.3960720000000 1.0
C      1  0.4845650000000  0.4518340000000  0.3958690000000 1.0
C      1  0.5120460000000  0.4558260000000  0.3868810000000 1.0
C      1  0.5274270000000  0.5024580000000  0.4050760000000 1.0
C      1  0.5249050000000  0.5314520000000  0.4035440000000 1.0
C      1  0.4947620000000  0.5390540000000  0.4058540000000 1.0
C      1  0.4789870000000  0.5153090000000  0.4049900000000 1.0
C      1  0.5247000000000  0.4080530000000  0.5346240000000 1.0
C      1  0.5894310000000  0.4477220000000  0.5327000000000 1.0
C      1  0.5993810000000  0.5471540000000  0.5431750000000 1.0
C      1  0.5276500000000  0.6020980000000  0.5453290000000 1.0
C      1  0.4341360000000  0.5806660000000  0.5445890000000 1.0
C      1  0.3943780000000  0.4976280000000  0.5437890000000 1.0
C      1  0.4390680000000  0.4227250000000  0.5323280000000 1.0
C      1  0.5843520000000  0.5217280000000  0.4439050000000 1.0
C      1  0.5385500000000  0.5836170000000  0.4522390000000 1.0
C      1  0.4626880000000  0.5777580000000  0.4473770000000 1.0
C      1  0.4119530000000  0.5168300000000  0.4427410000000 1.0
C      1  0.4297210000000  0.4416870000000  0.4403820000000 1.0
C      1  0.5005970000000  0.4018800000000  0.4434080000000 1.0
C      1  0.5661100000000  0.4494740000000  0.4389040000000 1.0
C      1  0.4271360000000  0.4733860000000  0.5804550000000 1.0
C      1  0.4708760000000  0.4304580000000  0.5785170000000 1.0
C      1  0.5320860000000  0.4431360000000  0.5803840000000 1.0
C      1  0.5794550000000  0.4890020000000  0.5818960000000 1.0
C      1  0.5618680000000  0.5519500000000  0.5879890000000 1.0
C      1  0.4955070000000  0.5810060000000  0.5874960000000 1.0
C      1  0.4387690000000  0.5445160000000  0.5858940000000 1.0
C      1  0.4756090000000  0.4187620000000  0.4830590000000 1.0
C      1  0.5597760000000  0.4295150000000  0.4844930000000 1.0
C      1  0.5883390000000  0.4934800000000  0.4854450000000 1.0
C      1  0.5582780000000  0.5664290000000  0.4946270000000 1.0
C      1  0.4814270000000  0.5892070000000  0.4938230000000 1.0
C      1  0.4217470000000  0.5390900000000  0.4902690000000 1.0
C      1  0.4138040000000  0.4615680000000  0.4860080000000 1.0
C      1  0.5233180000000  0.5371450000000  0.5540120000000 1.0
C      1  0.4919220000000  0.5418230000000  0.5561500000000 1.0
C      1  0.4761240000000  0.5185850000000  0.5641600000000 1.0
C      1  0.4624310000000  0.4972970000000  0.5488500000000 1.0
C      1  0.4924880000000  0.4694860000000  0.5531570000000 1.0
C      1  0.5106850000000  0.4868640000000  0.5684620000000 1.0
C      1  0.5344070000000  0.5000730000000  0.5582920000000 1.0
C      1  0.4567600000000  0.5115620000000  0.4256990000000 1.0
C      1  0.4542470000000  0.4803310000000  0.4224540000000 1.0
C      1  0.4892800000000  0.4434610000000  0.4236220000000 1.0
C      1  0.5240330000000  0.4467590000000  0.4156580000000 1.0
C      1  0.5427340000000  0.4958060000000  0.4307720000000 1.0
C      1  0.5292700000000  0.5395480000000  0.4336870000000 1.0
C      1  0.4985630000000  0.5471860000000  0.4356110000000 1.0
C      1  0.4269560000000  0.4685790000000  0.4254260000000 1.0
C      1  0.4793020000000  0.4166120000000  0.4282950000000 1.0
C      1  0.5483370000000  0.4301510000000  0.4234240000000 1.0
C      1  0.5726130000000  0.4985670000000  0.4268870000000 1.0
C      1  0.5494290000000  0.5612770000000  0.4353750000000 1.0
C      1  0.4906780000000  0.5758660000000  0.4364460000000 1.0
C      1  0.4334890000000  0.5314260000000  0.4268490000000 1.0
C      1  0.5333250000000  0.5149790000000  0.4513820000000 1.0
C      1  0.4897040000000  0.5284240000000  0.4580830000000 1.0
C      1  0.4647870000000  0.5153840000000  0.4541000000000 1.0
C      1  0.4641940000000  0.4909280000000  0.4698110000000 1.0
C      1  0.4724550000000  0.4704430000000  0.4457870000000 1.0
C      1  0.5247940000000  0.4493290000000  0.4657890000000 1.0
C      1  0.5245240000000  0.4656160000000  0.4398180000000 1.0
C      1  0.4801810000000  0.5919810000000  0.5643270000000 1.0
C      1  0.4213590000000  0.5360180000000  0.5624490000000 1.0
C      1  0.4180420000000  0.4565060000000  0.5573370000000 1.0
C      1  0.4857940000000  0.4203120000000  0.5551080000000 1.0
C      1  0.5490970000000  0.4480800000000  0.5565690000000 1.0
C      1  0.5951540000000  0.5000420000000  0.5594860000000 1.0
C      1  0.5627480000000  0.5745060000000  0.5689320000000 1.0
C      1  0.5217670000000  0.5233930000000  0.6080490000000 1.0
C      1  0.4959190000000  0.5331650000000  0.6181210000000 1.0
C      1  0.4735830000000  0.5154250000000  0.6234920000000 1.0
C      1  0.4691360000000  0.4906890000000  0.6088250000000 1.0
C      1  0.4890710000000  0.4692800000000  0.6153500000000 1.0
C      1  0.5146070000000  0.4776400000000  0.6274540000000 1.0
C      1  0.5322660000000  0.4983100000000  0.6184490000000 1.0
C      1  0.4333580000000  0.5621900000000  0.4765430000000 1.0
C      1  0.4037220000000  0.4864130000000  0.4737400000000 1.0
C      1  0.4479640000000  0.4195250000000  0.4741170000000 1.0
C      1  0.5319610000000  0.4205880000000  0.4686410000000 1.0
C      1  0.5917590000000  0.4691870000000  0.4694470000000 1.0
C      1  0.5766860000000  0.5481740000000  0.4797890000000 1.0
C      1  0.5085850000000  0.5946640000000  0.4828260000000 1.0
C      1  0.5554180000000  0.5302240000000  0.5244150000000 1.0
C      1  0.5120750000000  0.5629480000000  0.5169500000000 1.0
C      1  0.4603450000000  0.5467980000000  0.5177300000000 1.0
C      1  0.4353810000000  0.4957960000000  0.5113090000000 1.0
C      1  0.4673380000000  0.4555810000000  0.5119350000000 1.0
C      1  0.5085660000000  0.4358520000000  0.5129280000000 1.0
C      1  0.5538810000000  0.4759420000000  0.5159950000000 1.0
C      1  0.4428880000000  0.4522200000000  0.5267030000000 1.0
C      1  0.5064250000000  0.4433240000000  0.5444730000000 1.0
C      1  0.5462890000000  0.4757690000000  0.5442710000000 1.0
C      1  0.5807480000000  0.5172270000000  0.5274240000000 1.0
C      1  0.5315770000000  0.5648750000000  0.5379950000000 1.0
C      1  0.4730170000000  0.5627850000000  0.5393340000000 1.0
C      1  0.4353240000000  0.5095420000000  0.5371270000000 1.0
C      1  0.5186650000000  0.4685320000000  0.5902240000000 1.0
C      1  0.5500650000000  0.4980790000000  0.5853760000000 1.0
C      1  0.5370840000000  0.5346780000000  0.5836070000000 1.0
C      1  0.4966190000000  0.5517390000000  0.5854580000000 1.0
C      1  0.4646650000000  0.5298920000000  0.5893460000000 1.0
C      1  0.4557310000000  0.4819220000000  0.5786940000000 1.0
C      1  0.4775560000000  0.4594030000000  0.5790950000000 1.0
C      1  0.5860760000000  0.5381700000000  0.5870740000000 1.0
C      1  0.5209180000000  0.5917210000000  0.5912240000000 1.0
C      1  0.4422250000000  0.5721400000000  0.5883320000000 1.0
C      1  0.4103980000000  0.4949160000000  0.5862600000000 1.0
C      1  0.4444650000000  0.4221610000000  0.5798640000000 1.0
C      1  0.5234440000000  0.4164900000000  0.5824170000000 1.0
C      1  0.5861460000000  0.4619910000000  0.5807870000000 1.0
C      1  0.5307910000000  0.5196180000000  0.5141490000000 1.0
C      1  0.5061090000000  0.5348360000000  0.5125600000000 1.0
C      1  0.4777570000000  0.5270660000000  0.5064900000000 1.0
C      1  0.4635960000000  0.4998540000000  0.4996730000000 1.0
C      1  0.4813470000000  0.4817750000000  0.5153980000000 1.0
C      1  0.5125330000000  0.4566470000000  0.4901320000000 1.0
C      1  0.5312690000000  0.4932870000000  0.5063370000000 1.0
C      1  0.5066130000000  0.4848060000000  0.4937230000000 1.0
C      1  0.4993880000000  0.4837440000000  0.4393900000000 1.0
C      1  0.4982750000000  0.4919030000000  0.4082700000000 1.0
C      1  0.5185320000000  0.4925230000000  0.3494540000000 1.0
C      1  0.5154570000000  0.4780660000000  0.3705610000000 1.0
C      1  0.5071710000000  0.5042370000000  0.4622390000000 1.0
END
