TITL C-3578207-9274-524 -1.9774453282435e-06 125000 -589.739389477227 0 0 96 (C1) n - 1
REM
REM in /home/bkarasulu/work/CARBON/AIRSS/Generating-Clusters/EDIP-Nigel-Params/with-SteepDescent/Higher-Symm/SD-CG/HFTN-CG
REM
REM
REM
REM
REM
REM ./C.cell (12c818d87b63d06a65506943cc24bca4)
REM
REM compiler GCC version 9.2.1 20190827 (Red Hat 9.2.1-1)
REM options -cpp -mtune=generic -march=x86-64 -g -O0 -fpre-include=/usr/include/finclude/math-vector-fortran.h
REM seed -1509712480 -1276219829 -584409010 -1923530917 -1495929923 -970206815 661593353 -1607928835 546904243 1324686054 650907584 -2139357561 551875361 66695371 729850595 634217257 1704075230 -2012816316 2098205066 -617521588 -1804401548 -871419621 -2122879182 -228345950 1477635584 1898365257 2029981314 1505143735 -1251393309 -692319094 -469686348 1904214966 1876525724
REM
CELL 1.54180   50.00000   50.00000   50.00000   90.00000   90.00000   90.00000
LATT -1
SFAC C  
C      1  0.4846650000000  0.4741490000000  0.4122150000000 1.0
C      1  0.4899260000000  0.5229400000000  0.4294020000000 1.0
C      1  0.5278230000000  0.4973430000000  0.4220780000000 1.0
C      1  0.5159260000000  0.4729920000000  0.4104840000000 1.0
C      1  0.5149520000000  0.5234550000000  0.4152550000000 1.0
C      1  0.4754630000000  0.4965630000000  0.4293020000000 1.0
C      1  0.5431850000000  0.4524660000000  0.5100280000000 1.0
C      1  0.4363490000000  0.4816510000000  0.5109270000000 1.0
C      1  0.5209960000000  0.5622490000000  0.5093500000000 1.0
C      1  0.4560740000000  0.4512990000000  0.5099440000000 1.0
C      1  0.5624450000000  0.4830450000000  0.5108010000000 1.0
C      1  0.4846530000000  0.5640600000000  0.5106020000000 1.0
C      1  0.4334490000000  0.4434540000000  0.4889070000000 1.0
C      1  0.4845600000000  0.5870060000000  0.4887300000000 1.0
C      1  0.5825840000000  0.4708010000000  0.4896380000000 1.0
C      1  0.5659810000000  0.4444460000000  0.4894930000000 1.0
C      1  0.5156860000000  0.5858270000000  0.4881840000000 1.0
C      1  0.4166420000000  0.4697060000000  0.4891550000000 1.0
C      1  0.5289710000000  0.4018940000000  0.5174320000000 1.0
C      1  0.3978320000000  0.5206470000000  0.5183400000000 1.0
C      1  0.5706740000000  0.5764970000000  0.5182780000000 1.0
C      1  0.4715000000000  0.4014130000000  0.5175430000000 1.0
C      1  0.5996720000000  0.5232800000000  0.5182770000000 1.0
C      1  0.4314210000000  0.5781130000000  0.5179860000000 1.0
C      1  0.5141230000000  0.4696840000000  0.5818780000000 1.0
C      1  0.4664630000000  0.5028010000000  0.5802160000000 1.0
C      1  0.5191180000000  0.5274750000000  0.5810580000000 1.0
C      1  0.4853510000000  0.4698190000000  0.5816210000000 1.0
C      1  0.5334030000000  0.5025100000000  0.5812530000000 1.0
C      1  0.4811020000000  0.5276390000000  0.5800020000000 1.0
C      1  0.5637540000000  0.5563230000000  0.4996250000000 1.0
C      1  0.5154890000000  0.4195360000000  0.4997460000000 1.0
C      1  0.4152790000000  0.5312110000000  0.4990380000000 1.0
C      1  0.4306350000000  0.5574660000000  0.4989750000000 1.0
C      1  0.4846800000000  0.4191980000000  0.4997720000000 1.0
C      1  0.5796750000000  0.5301890000000  0.4996540000000 1.0
C      1  0.4379560000000  0.5038870000000  0.4576070000000 1.0
C      1  0.5327320000000  0.5502010000000  0.4552050000000 1.0
C      1  0.5269260000000  0.4472600000000  0.4554780000000 1.0
C      1  0.5613700000000  0.5039790000000  0.4569470000000 1.0
C      1  0.4653530000000  0.5514090000000  0.4574140000000 1.0
C      1  0.4729280000000  0.4470930000000  0.4553870000000 1.0
C      1  0.4865100000000  0.5431430000000  0.5555180000000 1.0
C      1  0.5442070000000  0.4902540000000  0.5567280000000 1.0
C      1  0.4694110000000  0.4650560000000  0.5572130000000 1.0
C      1  0.5151850000000  0.5434830000000  0.5565470000000 1.0
C      1  0.4555760000000  0.4901610000000  0.5559080000000 1.0
C      1  0.5302560000000  0.4652430000000  0.5575450000000 1.0
C      1  0.4774630000000  0.4700900000000  0.4992550000000 1.0
C      1  0.4865070000000  0.5358120000000  0.5003190000000 1.0
C      1  0.5369470000000  0.4955150000000  0.4997530000000 1.0
C      1  0.5215770000000  0.4707430000000  0.4992300000000 1.0
C      1  0.5152290000000  0.5341660000000  0.4990640000000 1.0
C      1  0.4617050000000  0.4943170000000  0.5004600000000 1.0
C      1  0.5844840000000  0.5329930000000  0.5632030000000 1.0
C      1  0.4867900000000  0.4082150000000  0.5631320000000 1.0
C      1  0.4295740000000  0.5564870000000  0.5613950000000 1.0
C      1  0.4159680000000  0.5333250000000  0.5615710000000 1.0
C      1  0.5136860000000  0.4082560000000  0.5630930000000 1.0
C      1  0.5726910000000  0.5571590000000  0.5629150000000 1.0
C      1  0.4801930000000  0.5289540000000  0.4722220000000 1.0
C      1  0.5339480000000  0.5023280000000  0.4706460000000 1.0
C      1  0.4845220000000  0.4713090000000  0.4699480000000 1.0
C      1  0.5180970000000  0.5278430000000  0.4700700000000 1.0
C      1  0.4648970000000  0.5028260000000  0.4721320000000 1.0
C      1  0.5146830000000  0.4712700000000  0.4698590000000 1.0
C      1  0.5295470000000  0.4162260000000  0.5416340000000 1.0
C      1  0.4139900000000  0.5152410000000  0.5405280000000 1.0
C      1  0.5580510000000  0.5682160000000  0.5419700000000 1.0
C      1  0.4707150000000  0.4158130000000  0.5417000000000 1.0
C      1  0.5854800000000  0.5158690000000  0.5412740000000 1.0
C      1  0.4442410000000  0.5669880000000  0.5402230000000 1.0
C      1  0.4640830000000  0.5391430000000  0.4297330000000 1.0
C      1  0.5547190000000  0.5103070000000  0.4284770000000 1.0
C      1  0.4841590000000  0.4468430000000  0.4265260000000 1.0
C      1  0.5384940000000  0.5398940000000  0.4265360000000 1.0
C      1  0.4478520000000  0.5100520000000  0.4300390000000 1.0
C      1  0.5159410000000  0.4465480000000  0.4265600000000 1.0
C      1  0.5157830000000  0.4225800000000  0.4689140000000 1.0
C      1  0.4215540000000  0.5268240000000  0.4687510000000 1.0
C      1  0.5597110000000  0.5539300000000  0.4685030000000 1.0
C      1  0.4843410000000  0.4224480000000  0.4688760000000 1.0
C      1  0.5763560000000  0.5271580000000  0.4692060000000 1.0
C      1  0.4374550000000  0.5542240000000  0.4688110000000 1.0
C      1  0.4420030000000  0.4487330000000  0.4596610000000 1.0
C      1  0.4830680000000  0.5766910000000  0.4599480000000 1.0
C      1  0.5747980000000  0.4765160000000  0.4605920000000 1.0
C      1  0.5578080000000  0.4492550000000  0.4600650000000 1.0
C      1  0.5152810000000  0.5757700000000  0.4590200000000 1.0
C      1  0.4249680000000  0.4759890000000  0.4604050000000 1.0
C      1  0.5670480000000  0.4937980000000  0.5388080000000 1.0
C      1  0.4628360000000  0.4433390000000  0.5385100000000 1.0
C      1  0.4726440000000  0.5624300000000  0.5383900000000 1.0
C      1  0.4319290000000  0.4927440000000  0.5387880000000 1.0
C      1  0.5366880000000  0.4439420000000  0.5384420000000 1.0
C      1  0.5305870000000  0.5605650000000  0.5381630000000 1.0
END
