TITL C-3577083-591-614 -3.48132792310176e-06 125000 -892.094087643677 0 0 143 (C1) n - 1
REM
REM in /home/bkarasulu/work/CARBON/AIRSS/Generating-Clusters/EDIP-Nigel-Params/with-SteepDescent/Higher-Symm/SD-CG/HFTN-CG
REM
REM
REM
REM
REM
REM ./C.cell (12c818d87b63d06a65506943cc24bca4)
REM
REM compiler GCC version 9.2.1 20190827 (Red Hat 9.2.1-1)
REM options -cpp -mtune=generic -march=x86-64 -g -O0 -fpre-include=/usr/include/finclude/math-vector-fortran.h
REM seed -288396011 -311156026 1499092250 -1465225598 631556797 -359235633 1660887431 -1712755425 -70531139 -490199570 452419120 1498399157 -835645977 -1172106198 -1133567357 -516562904 1516127385 710566624 -1688174013 -575527926 -880763975 -1627526486 1152722888 -504493560 -2143032354 1608481064 1572882847 -229644105 354441547 -556204594 1978954523 -274198594 1581507757
REM
CELL 1.54180   50.00000   50.00000   50.00000   90.00000   90.00000   90.00000
LATT -1
SFAC C  
C      1  0.5124660000000  0.4978340000000  0.5451790000000 1.0
C      1  0.4805830000000  0.5034410000000  0.5423180000000 1.0
C      1  0.4582680000000  0.4882480000000  0.5769840000000 1.0
C      1  0.5436530000000  0.5325120000000  0.5651170000000 1.0
C      1  0.5184030000000  0.5373810000000  0.4878320000000 1.0
C      1  0.4792540000000  0.4547900000000  0.4815340000000 1.0
C      1  0.4346860000000  0.4290710000000  0.4632390000000 1.0
C      1  0.5660330000000  0.5676830000000  0.4631650000000 1.0
C      1  0.5146180000000  0.5199380000000  0.4083710000000 1.0
C      1  0.4875390000000  0.4786060000000  0.4103880000000 1.0
C      1  0.6078000000000  0.4803620000000  0.5311970000000 1.0
C      1  0.3922500000000  0.5208210000000  0.5300930000000 1.0
C      1  0.5811370000000  0.4415500000000  0.5400570000000 1.0
C      1  0.4145980000000  0.5638240000000  0.5407160000000 1.0
C      1  0.4906870000000  0.4970620000000  0.4863580000000 1.0
C      1  0.5117750000000  0.5109100000000  0.5005370000000 1.0
C      1  0.5030320000000  0.4867790000000  0.5926640000000 1.0
C      1  0.4936730000000  0.5148340000000  0.5976070000000 1.0
C      1  0.4901760000000  0.3936880000000  0.5514930000000 1.0
C      1  0.5160100000000  0.5970310000000  0.5593950000000 1.0
C      1  0.5246310000000  0.4938010000000  0.5738970000000 1.0
C      1  0.4682420000000  0.5143190000000  0.5828210000000 1.0
C      1  0.5876830000000  0.4689920000000  0.5467600000000 1.0
C      1  0.4110640000000  0.5353490000000  0.5445830000000 1.0
C      1  0.5324660000000  0.5566700000000  0.4321080000000 1.0
C      1  0.4686590000000  0.4393780000000  0.4304660000000 1.0
C      1  0.4262290000000  0.4533370000000  0.4489650000000 1.0
C      1  0.5765910000000  0.5458020000000  0.4462810000000 1.0
C      1  0.4508790000000  0.4643180000000  0.4841500000000 1.0
C      1  0.5486160000000  0.5349120000000  0.4866590000000 1.0
C      1  0.5099140000000  0.4048930000000  0.5661720000000 1.0
C      1  0.4903560000000  0.5975640000000  0.5687620000000 1.0
C      1  0.4807850000000  0.5513380000000  0.4323190000000 1.0
C      1  0.5206860000000  0.4472430000000  0.4317510000000 1.0
C      1  0.5841420000000  0.5198320000000  0.5141900000000 1.0
C      1  0.4180920000000  0.4796350000000  0.5158060000000 1.0
C      1  0.4264580000000  0.4357060000000  0.4905540000000 1.0
C      1  0.5737310000000  0.5624640000000  0.4907860000000 1.0
C      1  0.5658840000000  0.4264520000000  0.4821890000000 1.0
C      1  0.4370240000000  0.5712550000000  0.4843760000000 1.0
C      1  0.5782260000000  0.4744830000000  0.4902320000000 1.0
C      1  0.4220320000000  0.5241370000000  0.4904380000000 1.0
C      1  0.4082810000000  0.5432960000000  0.4494430000000 1.0
C      1  0.5912960000000  0.4566320000000  0.4484320000000 1.0
C      1  0.4622950000000  0.4321280000000  0.5544840000000 1.0
C      1  0.5525260000000  0.5611300000000  0.5602130000000 1.0
C      1  0.4084700000000  0.4586570000000  0.4948490000000 1.0
C      1  0.5921210000000  0.5394720000000  0.4924410000000 1.0
C      1  0.4558670000000  0.5354910000000  0.4300700000000 1.0
C      1  0.5452630000000  0.4633840000000  0.4285080000000 1.0
C      1  0.4942300000000  0.4511160000000  0.4196110000000 1.0
C      1  0.5075120000000  0.5465880000000  0.4201200000000 1.0
C      1  0.4409650000000  0.5749530000000  0.5475390000000 1.0
C      1  0.5542900000000  0.4314340000000  0.5446350000000 1.0
C      1  0.5941920000000  0.4273340000000  0.5183210000000 1.0
C      1  0.4048880000000  0.5759890000000  0.5162650000000 1.0
C      1  0.4128160000000  0.5166170000000  0.4616230000000 1.0
C      1  0.5843750000000  0.4823860000000  0.4608280000000 1.0
C      1  0.5110370000000  0.4323380000000  0.5717340000000 1.0
C      1  0.4836740000000  0.5710160000000  0.5748560000000 1.0
C      1  0.4773610000000  0.6051090000000  0.4877200000000 1.0
C      1  0.5254030000000  0.3935740000000  0.4857640000000 1.0
C      1  0.5944660000000  0.4919620000000  0.5095240000000 1.0
C      1  0.4069780000000  0.5073570000000  0.5105150000000 1.0
C      1  0.5737110000000  0.4095880000000  0.5057930000000 1.0
C      1  0.4272700000000  0.5912860000000  0.5041510000000 1.0
C      1  0.5098100000000  0.5608060000000  0.5080050000000 1.0
C      1  0.4890920000000  0.4375240000000  0.5045290000000 1.0
C      1  0.5891840000000  0.4453130000000  0.4851100000000 1.0
C      1  0.4123980000000  0.5538900000000  0.4860000000000 1.0
C      1  0.5636740000000  0.4988080000000  0.4467980000000 1.0
C      1  0.4327290000000  0.5017250000000  0.4468970000000 1.0
C      1  0.5147280000000  0.5338520000000  0.5901520000000 1.0
C      1  0.4820850000000  0.4723020000000  0.5777170000000 1.0
C      1  0.3950480000000  0.4939710000000  0.4609970000000 1.0
C      1  0.6025350000000  0.5038160000000  0.4577020000000 1.0
C      1  0.5320970000000  0.4492690000000  0.5568850000000 1.0
C      1  0.4622560000000  0.5562360000000  0.5598420000000 1.0
C      1  0.5670100000000  0.4454970000000  0.4375530000000 1.0
C      1  0.4340040000000  0.5532610000000  0.4395430000000 1.0
C      1  0.5466700000000  0.5800860000000  0.5206570000000 1.0
C      1  0.4717110000000  0.4126650000000  0.5099460000000 1.0
C      1  0.5517070000000  0.4066830000000  0.5269040000000 1.0
C      1  0.4470840000000  0.5962970000000  0.5267340000000 1.0
C      1  0.5537370000000  0.5206970000000  0.5121130000000 1.0
C      1  0.4491680000000  0.4793730000000  0.5100030000000 1.0
C      1  0.4766110000000  0.5375100000000  0.5372270000000 1.0
C      1  0.5182840000000  0.4647400000000  0.5333090000000 1.0
C      1  0.5078930000000  0.5560880000000  0.5731830000000 1.0
C      1  0.4839440000000  0.4441170000000  0.5714690000000 1.0
C      1  0.4748750000000  0.5957980000000  0.5152970000000 1.0
C      1  0.5252490000000  0.4034500000000  0.5131420000000 1.0
C      1  0.5727770000000  0.5587970000000  0.5396510000000 1.0
C      1  0.4382760000000  0.4471650000000  0.5473060000000 1.0
C      1  0.5156150000000  0.4866570000000  0.4513920000000 1.0
C      1  0.4839700000000  0.5151370000000  0.4575220000000 1.0
C      1  0.4713110000000  0.3916190000000  0.4909880000000 1.0
C      1  0.5303890000000  0.5927020000000  0.5005040000000 1.0
C      1  0.4354990000000  0.4931540000000  0.5603210000000 1.0
C      1  0.5692670000000  0.5154970000000  0.5614140000000 1.0
C      1  0.4678810000000  0.5034080000000  0.5064220000000 1.0
C      1  0.5367820000000  0.4963920000000  0.5082920000000 1.0
C      1  0.4602240000000  0.4841440000000  0.4173770000000 1.0
C      1  0.5440930000000  0.5152790000000  0.4108840000000 1.0
C      1  0.5401490000000  0.5043560000000  0.4651240000000 1.0
C      1  0.4529950000000  0.4924110000000  0.4658280000000 1.0
C      1  0.4750330000000  0.5742220000000  0.4499420000000 1.0
C      1  0.5268640000000  0.4233120000000  0.4475460000000 1.0
C      1  0.5350040000000  0.4523040000000  0.5106420000000 1.0
C      1  0.4624110000000  0.5470380000000  0.5119620000000 1.0
C      1  0.4683390000000  0.4069020000000  0.5393800000000 1.0
C      1  0.5344920000000  0.5797110000000  0.5468880000000 1.0
C      1  0.5478820000000  0.4733260000000  0.4948810000000 1.0
C      1  0.4521950000000  0.5256150000000  0.4949780000000 1.0
C      1  0.4501310000000  0.5117570000000  0.4140890000000 1.0
C      1  0.5524750000000  0.4867320000000  0.4121300000000 1.0
C      1  0.4228670000000  0.4716620000000  0.5451880000000 1.0
C      1  0.5849060000000  0.5318970000000  0.5416410000000 1.0
C      1  0.4903610000000  0.4547090000000  0.5288080000000 1.0
C      1  0.5062930000000  0.5474220000000  0.5363850000000 1.0
C      1  0.4494440000000  0.5356850000000  0.5769170000000 1.0
C      1  0.5448130000000  0.4726620000000  0.5717090000000 1.0
C      1  0.5906590000000  0.5284090000000  0.4652930000000 1.0
C      1  0.4098770000000  0.4700750000000  0.4676510000000 1.0
C      1  0.5101190000000  0.4054440000000  0.4642360000000 1.0
C      1  0.4923430000000  0.5917290000000  0.4667210000000 1.0
C      1  0.5146070000000  0.5259790000000  0.4576350000000 1.0
C      1  0.4817100000000  0.4735360000000  0.4549140000000 1.0
C      1  0.4808020000000  0.5685790000000  0.5015220000000 1.0
C      1  0.5183710000000  0.4299630000000  0.4989260000000 1.0
C      1  0.4281460000000  0.5212620000000  0.5628370000000 1.0
C      1  0.5669260000000  0.4859270000000  0.5580230000000 1.0
C      1  0.5557230000000  0.4238690000000  0.4542690000000 1.0
C      1  0.4460690000000  0.5746710000000  0.4562840000000 1.0
C      1  0.4662050000000  0.4720680000000  0.5365550000000 1.0
C      1  0.5275090000000  0.5253820000000  0.5397510000000 1.0
C      1  0.5206110000000  0.5865430000000  0.4737540000000 1.0
C      1  0.4805910000000  0.4036450000000  0.4672870000000 1.0
C      1  0.4481220000000  0.4599600000000  0.4293720000000 1.0
C      1  0.5539400000000  0.5376140000000  0.4284810000000 1.0
C      1  0.5379490000000  0.5718070000000  0.4562930000000 1.0
C      1  0.4629530000000  0.4234690000000  0.4547040000000 1.0
C      1  0.5008590000000  0.5000530000000  0.4257080000000 1.0
END
