TITL C-3578198-8939-551 1.67636658875246e-06 125000 -592.897938815158 0 0 98 (C1) n - 1
REM
REM in /home/bkarasulu/work/CARBON/AIRSS/Generating-Clusters/EDIP-Nigel-Params/with-SteepDescent/Higher-Symm/SD-CG/HFTN-CG
REM
REM
REM
REM
REM
REM ./C.cell (12c818d87b63d06a65506943cc24bca4)
REM
REM compiler GCC version 9.2.1 20190827 (Red Hat 9.2.1-1)
REM options -cpp -mtune=generic -march=x86-64 -g -O0 -fpre-include=/usr/include/finclude/math-vector-fortran.h
REM seed -500149997 1385395123 -588107977 682752828 -2008525222 -1763872889 663540137 1815045734 -1068999430 1535219090 1213559863 -343916998 378768038 -55451273 -534515482 1152684300 -1919235346 -381903167 -235488312 1758048433 -1602070696 1012897826 -1334702116 -1449076182 -1925900507 748230856 1802530649 -650130489 430189289 1649198063 1358964203 702072192 1455761553
REM
CELL 1.54180   50.00000   50.00000   50.00000   90.00000   90.00000   90.00000
LATT -1
SFAC C  
C      1  0.5164040000000  0.5085820000000  0.4216620000000 1.0
C      1  0.4843490000000  0.5045100000000  0.5716430000000 1.0
C      1  0.4675300000000  0.4985520000000  0.4280360000000 1.0
C      1  0.5309110000000  0.4991140000000  0.5860690000000 1.0
C      1  0.4394140000000  0.5267750000000  0.4558690000000 1.0
C      1  0.5461930000000  0.5221750000000  0.5405690000000 1.0
C      1  0.5658780000000  0.5250400000000  0.4576780000000 1.0
C      1  0.4390150000000  0.5377170000000  0.5413340000000 1.0
C      1  0.4814110000000  0.4810710000000  0.5236020000000 1.0
C      1  0.5299210000000  0.4776820000000  0.4704770000000 1.0
C      1  0.5277890000000  0.4807620000000  0.5257170000000 1.0
C      1  0.4789960000000  0.4830020000000  0.4717820000000 1.0
C      1  0.4169500000000  0.4904020000000  0.4871350000000 1.0
C      1  0.5819210000000  0.4866910000000  0.5173550000000 1.0
C      1  0.5890930000000  0.4875030000000  0.4885020000000 1.0
C      1  0.4201760000000  0.4926360000000  0.5162270000000 1.0
C      1  0.5376460000000  0.5629870000000  0.4733520000000 1.0
C      1  0.4492620000000  0.5818770000000  0.5193010000000 1.0
C      1  0.4569450000000  0.5713070000000  0.4690890000000 1.0
C      1  0.5289670000000  0.5622390000000  0.5220850000000 1.0
C      1  0.5679850000000  0.5049900000000  0.5341560000000 1.0
C      1  0.4211680000000  0.5089060000000  0.4668930000000 1.0
C      1  0.4250300000000  0.5147450000000  0.5328700000000 1.0
C      1  0.5846630000000  0.5081120000000  0.4699790000000 1.0
C      1  0.4565410000000  0.4671090000000  0.4573570000000 1.0
C      1  0.5456580000000  0.4685540000000  0.5465260000000 1.0
C      1  0.5458060000000  0.4735520000000  0.4451580000000 1.0
C      1  0.4615340000000  0.4714030000000  0.5432530000000 1.0
C      1  0.4647520000000  0.4380890000000  0.4561120000000 1.0
C      1  0.5384350000000  0.4393060000000  0.5467700000000 1.0
C      1  0.5421750000000  0.4436370000000  0.4446530000000 1.0
C      1  0.4687090000000  0.4421560000000  0.5478050000000 1.0
C      1  0.5938080000000  0.4609420000000  0.4796890000000 1.0
C      1  0.4205020000000  0.4665640000000  0.5273190000000 1.0
C      1  0.4180160000000  0.4632090000000  0.4794590000000 1.0
C      1  0.5841780000000  0.4595750000000  0.5262230000000 1.0
C      1  0.5520840000000  0.5457910000000  0.5254560000000 1.0
C      1  0.4398690000000  0.5489450000000  0.4732220000000 1.0
C      1  0.4293850000000  0.5590460000000  0.5218640000000 1.0
C      1  0.5622070000000  0.5478460000000  0.4758590000000 1.0
C      1  0.4553940000000  0.4257810000000  0.5290600000000 1.0
C      1  0.5474240000000  0.4315620000000  0.4701280000000 1.0
C      1  0.5427470000000  0.4273320000000  0.5204610000000 1.0
C      1  0.4543160000000  0.4242370000000  0.4785780000000 1.0
C      1  0.5380200000000  0.4903130000000  0.4234670000000 1.0
C      1  0.4621360000000  0.4881270000000  0.5660930000000 1.0
C      1  0.4492650000000  0.4773350000000  0.4314150000000 1.0
C      1  0.5457330000000  0.4822080000000  0.5710620000000 1.0
C      1  0.5375450000000  0.5143550000000  0.4600640000000 1.0
C      1  0.4682290000000  0.5379450000000  0.5319490000000 1.0
C      1  0.4661040000000  0.5186170000000  0.4487080000000 1.0
C      1  0.5174450000000  0.5125110000000  0.5331940000000 1.0
C      1  0.5262140000000  0.5672260000000  0.4470770000000 1.0
C      1  0.4746070000000  0.5681240000000  0.5274650000000 1.0
C      1  0.4739550000000  0.5728560000000  0.4455310000000 1.0
C      1  0.5172850000000  0.5704830000000  0.5479790000000 1.0
C      1  0.5087210000000  0.4470620000000  0.4087140000000 1.0
C      1  0.5094840000000  0.4439950000000  0.5902800000000 1.0
C      1  0.5828080000000  0.4455550000000  0.5011410000000 1.0
C      1  0.4232650000000  0.4500780000000  0.5041610000000 1.0
C      1  0.5162650000000  0.5306050000000  0.4433930000000 1.0
C      1  0.5057070000000  0.5491920000000  0.5649010000000 1.0
C      1  0.4931300000000  0.4923890000000  0.4166110000000 1.0
C      1  0.5039870000000  0.4928710000000  0.5895630000000 1.0
C      1  0.5366720000000  0.5149850000000  0.4909840000000 1.0
C      1  0.4654830000000  0.5275730000000  0.5021710000000 1.0
C      1  0.4435120000000  0.4299110000000  0.5039960000000 1.0
C      1  0.5575140000000  0.4320290000000  0.4966630000000 1.0
C      1  0.5009990000000  0.5780830000000  0.4438350000000 1.0
C      1  0.4902160000000  0.5806530000000  0.5487720000000 1.0
C      1  0.4985050000000  0.4396680000000  0.5425610000000 1.0
C      1  0.4955260000000  0.4372080000000  0.4555820000000 1.0
C      1  0.5037210000000  0.4622720000000  0.5226720000000 1.0
C      1  0.5022150000000  0.4640520000000  0.4723180000000 1.0
C      1  0.4549550000000  0.5900840000000  0.4910440000000 1.0
C      1  0.5309180000000  0.5784680000000  0.4976010000000 1.0
C      1  0.5662680000000  0.5372980000000  0.5021370000000 1.0
C      1  0.4296600000000  0.5420320000000  0.4983390000000 1.0
C      1  0.4993100000000  0.4671850000000  0.5991580000000 1.0
C      1  0.4964590000000  0.4695920000000  0.4010210000000 1.0
C      1  0.5153490000000  0.4313300000000  0.5662030000000 1.0
C      1  0.5157780000000  0.4355700000000  0.4330640000000 1.0
C      1  0.4775590000000  0.4983100000000  0.4989980000000 1.0
C      1  0.5416350000000  0.4858580000000  0.4987760000000 1.0
C      1  0.4937020000000  0.5253090000000  0.5514960000000 1.0
C      1  0.4876690000000  0.5384900000000  0.4558990000000 1.0
C      1  0.4891860000000  0.5419770000000  0.4877050000000 1.0
C      1  0.5052680000000  0.6168980000000  0.5102860000000 1.0
C      1  0.5093200000000  0.5204720000000  0.5031930000000 1.0
C      1  0.4856920000000  0.3527730000000  0.5196120000000 1.0
C      1  0.4924930000000  0.3749620000000  0.5088760000000 1.0
C      1  0.5001150000000  0.6629160000000  0.5339200000000 1.0
C      1  0.5070050000000  0.5941270000000  0.4946590000000 1.0
C      1  0.5071930000000  0.4214800000000  0.4861050000000 1.0
C      1  0.5033400000000  0.4487500000000  0.4972580000000 1.0
C      1  0.4980980000000  0.3985900000000  0.4984220000000 1.0
C      1  0.4875150000000  0.5713090000000  0.4998830000000 1.0
C      1  0.5024080000000  0.6406640000000  0.5215320000000 1.0
END
