TITL C-3577084-3642-274 -6.08636949842047e-07 125000 -713.542624882283 0 0 113 (C1) n - 1
REM
REM in /home/bkarasulu/work/CARBON/AIRSS/Generating-Clusters/EDIP-Nigel-Params/with-SteepDescent/Higher-Symm/SD-CG/HFTN-CG
REM
REM
REM
REM
REM
REM ./C.cell (12c818d87b63d06a65506943cc24bca4)
REM
REM compiler GCC version 9.2.1 20190827 (Red Hat 9.2.1-1)
REM options -cpp -mtune=generic -march=x86-64 -g -O0 -fpre-include=/usr/include/finclude/math-vector-fortran.h
REM seed -511052209 56710456 1877461804 -1121066937 1966739787 -714501480 -16173459 -466759340 1923762765 -1529358835 -189355951 1985231458 1228567891 -1527502288 2061786318 653505213 1550558325 -1935351673 -2024817934 804847697 1158465373 -948751209 -2085037436 -492847390 -216322523 -575518485 1354825888 1802405190 741978224 -2015568015 919749538 1835568234 1630996379
REM
CELL 1.54180   50.00000   50.00000   50.00000   90.00000   90.00000   90.00000
LATT -1
SFAC C  
C      1  0.5859310000000  0.4933530000000  0.5144190000000 1.0
C      1  0.5558300000000  0.5605820000000  0.5146280000000 1.0
C      1  0.4865990000000  0.5855150000000  0.5159600000000 1.0
C      1  0.4261770000000  0.5439330000000  0.5160400000000 1.0
C      1  0.4201210000000  0.4703220000000  0.5151100000000 1.0
C      1  0.4734880000000  0.4199160000000  0.5158030000000 1.0
C      1  0.5477330000000  0.4298570000000  0.5136030000000 1.0
C      1  0.5301790000000  0.5627900000000  0.4329840000000 1.0
C      1  0.4695090000000  0.5615610000000  0.4332560000000 1.0
C      1  0.4345930000000  0.5141390000000  0.4331000000000 1.0
C      1  0.4468350000000  0.4552110000000  0.4321250000000 1.0
C      1  0.5034720000000  0.4281450000000  0.4311370000000 1.0
C      1  0.5565490000000  0.4578590000000  0.4315840000000 1.0
C      1  0.5694500000000  0.5242030000000  0.4302330000000 1.0
C      1  0.5296990000000  0.4937220000000  0.4128320000000 1.0
C      1  0.5272440000000  0.5219770000000  0.4027360000000 1.0
C      1  0.5004870000000  0.5360200000000  0.4030640000000 1.0
C      1  0.4768210000000  0.5195140000000  0.4092820000000 1.0
C      1  0.4704840000000  0.4907660000000  0.4092370000000 1.0
C      1  0.4868010000000  0.4663880000000  0.4061180000000 1.0
C      1  0.5161530000000  0.4685580000000  0.4071240000000 1.0
C      1  0.5732910000000  0.4691680000000  0.4757180000000 1.0
C      1  0.5746730000000  0.5402870000000  0.4765570000000 1.0
C      1  0.5148300000000  0.5810310000000  0.4775470000000 1.0
C      1  0.4453120000000  0.5649180000000  0.4773070000000 1.0
C      1  0.4205100000000  0.4977780000000  0.4772510000000 1.0
C      1  0.4548420000000  0.4381200000000  0.4771380000000 1.0
C      1  0.5224910000000  0.4260610000000  0.4755440000000 1.0
C      1  0.5224870000000  0.5520630000000  0.5479560000000 1.0
C      1  0.4718350000000  0.5534460000000  0.5475040000000 1.0
C      1  0.4407430000000  0.5130300000000  0.5502700000000 1.0
C      1  0.4536690000000  0.4630530000000  0.5476530000000 1.0
C      1  0.5006300000000  0.4450170000000  0.5471080000000 1.0
C      1  0.5453180000000  0.4658750000000  0.5432820000000 1.0
C      1  0.5552700000000  0.5145680000000  0.5436110000000 1.0
C      1  0.4510320000000  0.4331600000000  0.5058860000000 1.0
C      1  0.5222510000000  0.4233560000000  0.5042380000000 1.0
C      1  0.5768730000000  0.4688790000000  0.5045010000000 1.0
C      1  0.5670190000000  0.5374090000000  0.5041200000000 1.0
C      1  0.5112310000000  0.5770570000000  0.5059320000000 1.0
C      1  0.4466400000000  0.5600720000000  0.5061390000000 1.0
C      1  0.4228300000000  0.4965030000000  0.5059000000000 1.0
C      1  0.4708580000000  0.4899780000000  0.4537800000000 1.0
C      1  0.4863970000000  0.4631070000000  0.4577240000000 1.0
C      1  0.5178800000000  0.4658440000000  0.4564430000000 1.0
C      1  0.5391060000000  0.4929980000000  0.4611820000000 1.0
C      1  0.5262590000000  0.5191190000000  0.4490400000000 1.0
C      1  0.5029310000000  0.5363700000000  0.4560820000000 1.0
C      1  0.4758430000000  0.5216220000000  0.4556720000000 1.0
C      1  0.5294610000000  0.5167920000000  0.4933170000000 1.0
C      1  0.5061190000000  0.5389410000000  0.4867590000000 1.0
C      1  0.4788160000000  0.5303280000000  0.4994050000000 1.0
C      1  0.4624730000000  0.5050990000000  0.4881240000000 1.0
C      1  0.4710090000000  0.4789110000000  0.5022180000000 1.0
C      1  0.4924810000000  0.4608170000000  0.4895140000000 1.0
C      1  0.5207000000000  0.4744050000000  0.4965090000000 1.0
C      1  0.5830080000000  0.4922260000000  0.4640580000000 1.0
C      1  0.5625520000000  0.5638520000000  0.4677980000000 1.0
C      1  0.4902340000000  0.5878620000000  0.4664660000000 1.0
C      1  0.4265010000000  0.5475560000000  0.4663410000000 1.0
C      1  0.4201610000000  0.4721920000000  0.4663340000000 1.0
C      1  0.4742010000000  0.4214100000000  0.4664330000000 1.0
C      1  0.5484310000000  0.4271210000000  0.4656150000000 1.0
C      1  0.5765390000000  0.5179690000000  0.5232920000000 1.0
C      1  0.5315640000000  0.5690540000000  0.5249070000000 1.0
C      1  0.4640950000000  0.5727250000000  0.5259020000000 1.0
C      1  0.4237900000000  0.5179740000000  0.5256000000000 1.0
C      1  0.4369530000000  0.4507510000000  0.5255510000000 1.0
C      1  0.4989010000000  0.4302170000000  0.5206820000000 1.0
C      1  0.5620680000000  0.4517010000000  0.5231760000000 1.0
C      1  0.4822920000000  0.5299400000000  0.5298940000000 1.0
C      1  0.4677290000000  0.5075620000000  0.5402820000000 1.0
C      1  0.4730830000000  0.4808010000000  0.5317830000000 1.0
C      1  0.4995700000000  0.4734130000000  0.5403290000000 1.0
C      1  0.5238860000000  0.4808480000000  0.5261900000000 1.0
C      1  0.5303900000000  0.5104310000000  0.5247000000000 1.0
C      1  0.5105250000000  0.5276550000000  0.5371940000000 1.0
C      1  0.5446030000000  0.5359750000000  0.5896610000000 1.0
C      1  0.4985910000000  0.5573770000000  0.5914650000000 1.0
C      1  0.4527640000000  0.5365760000000  0.5928010000000 1.0
C      1  0.4429600000000  0.4858990000000  0.5925920000000 1.0
C      1  0.4767160000000  0.4479240000000  0.5910190000000 1.0
C      1  0.5278300000000  0.4486120000000  0.5889210000000 1.0
C      1  0.5563860000000  0.4885470000000  0.5874080000000 1.0
C      1  0.5564400000000  0.5131640000000  0.6003350000000 1.0
C      1  0.5233360000000  0.5494790000000  0.6015920000000 1.0
C      1  0.4744680000000  0.5504250000000  0.6033320000000 1.0
C      1  0.4452250000000  0.5116970000000  0.6028550000000 1.0
C      1  0.4579350000000  0.4647570000000  0.6027290000000 1.0
C      1  0.5027430000000  0.4451680000000  0.6006170000000 1.0
C      1  0.5473560000000  0.4653080000000  0.5996670000000 1.0
C      1  0.4603350000000  0.5322040000000  0.4307850000000 1.0
C      1  0.4503610000000  0.4862160000000  0.4307360000000 1.0
C      1  0.4776670000000  0.4464140000000  0.4272980000000 1.0
C      1  0.5258140000000  0.4504310000000  0.4293910000000 1.0
C      1  0.5538440000000  0.4891310000000  0.4315020000000 1.0
C      1  0.5412530000000  0.5342630000000  0.4272450000000 1.0
C      1  0.5000350000000  0.5573690000000  0.4255110000000 1.0
C      1  0.5465310000000  0.5388720000000  0.5609850000000 1.0
C      1  0.4975990000000  0.5617210000000  0.5628810000000 1.0
C      1  0.4487370000000  0.5397020000000  0.5641550000000 1.0
C      1  0.4379500000000  0.4848800000000  0.5640180000000 1.0
C      1  0.4739220000000  0.4444540000000  0.5623820000000 1.0
C      1  0.5283390000000  0.4459270000000  0.5600150000000 1.0
C      1  0.5582460000000  0.4884600000000  0.5586070000000 1.0
C      1  0.5755950000000  0.5181240000000  0.4574910000000 1.0
C      1  0.5362590000000  0.5703760000000  0.4603660000000 1.0
C      1  0.4679330000000  0.5724110000000  0.4599550000000 1.0
C      1  0.4241340000000  0.5205120000000  0.4593470000000 1.0
C      1  0.4359750000000  0.4504620000000  0.4587110000000 1.0
C      1  0.5006090000000  0.4182060000000  0.4581850000000 1.0
C      1  0.5653690000000  0.4477780000000  0.4575260000000 1.0
C      1  0.5039350000000  0.4993040000000  0.4816150000000 1.0
END
