TITL C-3578207-9274-830 -5.71721281900852e-06 125000 -1195.89487506443 0 0 193 (C1) n - 1
REM
REM in /home/bkarasulu/work/CARBON/AIRSS/Generating-Clusters/EDIP-Nigel-Params/with-SteepDescent/Higher-Symm/SD-CG/HFTN-CG
REM
REM
REM
REM
REM
REM ./C.cell (12c818d87b63d06a65506943cc24bca4)
REM
REM compiler GCC version 9.2.1 20190827 (Red Hat 9.2.1-1)
REM options -cpp -mtune=generic -march=x86-64 -g -O0 -fpre-include=/usr/include/finclude/math-vector-fortran.h
REM seed 212867581 -2043796615 2098410425 -1674991786 -527276413 888353229 1404913289 -1806288027 -283428348 -1556252364 706821812 1047014965 1136576412 2120801080 -1526505837 -1344472218 1900320327 -307918049 -1936743028 -792261968 874217929 1562756015 -1456218239 999553238 -522727431 2003223299 1575941865 -151582205 -1250402255 -1030756563 557137748 1104901933 1987643521
REM
CELL 1.54180   50.00000   50.00000   50.00000   90.00000   90.00000   90.00000
LATT -1
SFAC C  
C      1  0.4510100000000  0.4597650000000  0.4393730000000 1.0
C      1  0.4288200000000  0.4595660000000  0.5258540000000 1.0
C      1  0.4997230000000  0.4655020000000  0.5808420000000 1.0
C      1  0.5712990000000  0.4549100000000  0.5207700000000 1.0
C      1  0.5396990000000  0.4566150000000  0.4388160000000 1.0
C      1  0.4549740000000  0.5434170000000  0.4412570000000 1.0
C      1  0.4282250000000  0.5378020000000  0.5278110000000 1.0
C      1  0.5042810000000  0.5472090000000  0.5782130000000 1.0
C      1  0.5744280000000  0.5433130000000  0.5149880000000 1.0
C      1  0.5421840000000  0.5398860000000  0.4335490000000 1.0
C      1  0.6052460000000  0.5330680000000  0.5699060000000 1.0
C      1  0.6022850000000  0.5265700000000  0.4191790000000 1.0
C      1  0.4616920000000  0.5318340000000  0.3817720000000 1.0
C      1  0.3720080000000  0.5277620000000  0.5032590000000 1.0
C      1  0.4604060000000  0.5200750000000  0.6240010000000 1.0
C      1  0.6074560000000  0.4730980000000  0.5733350000000 1.0
C      1  0.6005820000000  0.4663950000000  0.4235530000000 1.0
C      1  0.4676630000000  0.4738090000000  0.3926230000000 1.0
C      1  0.3683190000000  0.4705120000000  0.4996900000000 1.0
C      1  0.4657520000000  0.4667510000000  0.6264730000000 1.0
C      1  0.5210170000000  0.5353100000000  0.5229250000000 1.0
C      1  0.5234520000000  0.5308520000000  0.4932320000000 1.0
C      1  0.5006000000000  0.5408290000000  0.4765050000000 1.0
C      1  0.4745150000000  0.5429050000000  0.4951470000000 1.0
C      1  0.4860660000000  0.5427720000000  0.5258430000000 1.0
C      1  0.5115330000000  0.4616350000000  0.5187330000000 1.0
C      1  0.5209000000000  0.4624000000000  0.4902990000000 1.0
C      1  0.4960350000000  0.4584780000000  0.4719090000000 1.0
C      1  0.4703110000000  0.4605840000000  0.4914810000000 1.0
C      1  0.4841000000000  0.4739910000000  0.5165370000000 1.0
C      1  0.4196710000000  0.4277500000000  0.4602280000000 1.0
C      1  0.4468960000000  0.4234120000000  0.5645030000000 1.0
C      1  0.5240300000000  0.4261640000000  0.5814410000000 1.0
C      1  0.5828320000000  0.4262470000000  0.4891250000000 1.0
C      1  0.5150930000000  0.4258720000000  0.4186660000000 1.0
C      1  0.4215370000000  0.5739970000000  0.4622540000000 1.0
C      1  0.4377000000000  0.5706940000000  0.5652830000000 1.0
C      1  0.5435610000000  0.5778250000000  0.5648520000000 1.0
C      1  0.5768930000000  0.5689540000000  0.4986240000000 1.0
C      1  0.5265320000000  0.5655050000000  0.4260910000000 1.0
C      1  0.5923210000000  0.4451710000000  0.4399780000000 1.0
C      1  0.4704310000000  0.4449790000000  0.3884260000000 1.0
C      1  0.3818090000000  0.4486380000000  0.4890020000000 1.0
C      1  0.4608370000000  0.4451920000000  0.6094290000000 1.0
C      1  0.5903030000000  0.4508390000000  0.5717700000000 1.0
C      1  0.5942090000000  0.5490710000000  0.4343440000000 1.0
C      1  0.4735170000000  0.5546010000000  0.3930900000000 1.0
C      1  0.3861730000000  0.5510390000000  0.4956000000000 1.0
C      1  0.4549260000000  0.5443340000000  0.6113620000000 1.0
C      1  0.5886550000000  0.5555790000000  0.5659460000000 1.0
C      1  0.4689190000000  0.5858280000000  0.4692270000000 1.0
C      1  0.4575240000000  0.5828810000000  0.5198450000000 1.0
C      1  0.5021520000000  0.5860150000000  0.5421500000000 1.0
C      1  0.5510580000000  0.6078510000000  0.5010010000000 1.0
C      1  0.5299040000000  0.6015170000000  0.4545180000000 1.0
C      1  0.4674460000000  0.4183790000000  0.4668940000000 1.0
C      1  0.4580810000000  0.4188430000000  0.5171410000000 1.0
C      1  0.5162000000000  0.3919960000000  0.5501950000000 1.0
C      1  0.5495140000000  0.4043490000000  0.5151820000000 1.0
C      1  0.5187900000000  0.4126740000000  0.4650100000000 1.0
C      1  0.4488270000000  0.5742430000000  0.4484490000000 1.0
C      1  0.4326990000000  0.5701360000000  0.5348820000000 1.0
C      1  0.5145790000000  0.5742650000000  0.5664290000000 1.0
C      1  0.5697430000000  0.5906820000000  0.5183200000000 1.0
C      1  0.5436340000000  0.5887200000000  0.4324550000000 1.0
C      1  0.4465480000000  0.4282870000000  0.4463430000000 1.0
C      1  0.4362500000000  0.4280410000000  0.5362450000000 1.0
C      1  0.5036850000000  0.4069580000000  0.5711310000000 1.0
C      1  0.5766350000000  0.4165800000000  0.5170550000000 1.0
C      1  0.5344560000000  0.4184570000000  0.4397620000000 1.0
C      1  0.5110080000000  0.4735250000000  0.3996580000000 1.0
C      1  0.4091400000000  0.4794360000000  0.4562340000000 1.0
C      1  0.4339630000000  0.4739340000000  0.5713380000000 1.0
C      1  0.5487620000000  0.4772730000000  0.5874830000000 1.0
C      1  0.5946280000000  0.4768320000000  0.4815220000000 1.0
C      1  0.5113390000000  0.5212530000000  0.4031500000000 1.0
C      1  0.4114360000000  0.5238380000000  0.4581180000000 1.0
C      1  0.4316230000000  0.5182770000000  0.5728500000000 1.0
C      1  0.5478840000000  0.5262010000000  0.5835750000000 1.0
C      1  0.5965980000000  0.5209240000000  0.4777720000000 1.0
C      1  0.4862410000000  0.5093300000000  0.6248770000000 1.0
C      1  0.6138340000000  0.5159180000000  0.5496690000000 1.0
C      1  0.5840980000000  0.5101470000000  0.4061390000000 1.0
C      1  0.4420270000000  0.5163670000000  0.3936660000000 1.0
C      1  0.3760400000000  0.5108240000000  0.5251500000000 1.0
C      1  0.4894410000000  0.4815180000000  0.6304610000000 1.0
C      1  0.6142530000000  0.4874990000000  0.5506960000000 1.0
C      1  0.5831840000000  0.4815960000000  0.4081930000000 1.0
C      1  0.4431750000000  0.4879530000000  0.3952080000000 1.0
C      1  0.3767790000000  0.4824120000000  0.5233350000000 1.0
C      1  0.4704840000000  0.4727140000000  0.5421700000000 1.0
C      1  0.5302960000000  0.4780090000000  0.5399310000000 1.0
C      1  0.5444290000000  0.4791730000000  0.4825810000000 1.0
C      1  0.4949600000000  0.4767440000000  0.4477920000000 1.0
C      1  0.4466100000000  0.4771010000000  0.4846330000000 1.0
C      1  0.4726740000000  0.5254310000000  0.5470890000000 1.0
C      1  0.5257540000000  0.5116940000000  0.5404760000000 1.0
C      1  0.5487340000000  0.5231650000000  0.4799990000000 1.0
C      1  0.4984620000000  0.5232520000000  0.4511860000000 1.0
C      1  0.4522100000000  0.5234340000000  0.4878920000000 1.0
C      1  0.4596490000000  0.5704830000000  0.4931070000000 1.0
C      1  0.4783180000000  0.5710880000000  0.5367140000000 1.0
C      1  0.5216730000000  0.5893730000000  0.5202240000000 1.0
C      1  0.5401130000000  0.5895800000000  0.4797370000000 1.0
C      1  0.4987080000000  0.5832710000000  0.4646640000000 1.0
C      1  0.4571620000000  0.4317220000000  0.4913830000000 1.0
C      1  0.4834240000000  0.4194920000000  0.5293830000000 1.0
C      1  0.5294580000000  0.4137470000000  0.5354180000000 1.0
C      1  0.5326580000000  0.4196620000000  0.4911920000000 1.0
C      1  0.4937920000000  0.4294730000000  0.4600860000000 1.0
C      1  0.3909170000000  0.4309600000000  0.5092250000000 1.0
C      1  0.4847490000000  0.4306350000000  0.6091620000000 1.0
C      1  0.5931210000000  0.4327530000000  0.5486370000000 1.0
C      1  0.5706030000000  0.4285610000000  0.4296770000000 1.0
C      1  0.4521950000000  0.4307920000000  0.4076280000000 1.0
C      1  0.3973510000000  0.5661450000000  0.5187100000000 1.0
C      1  0.4771800000000  0.5610400000000  0.6141480000000 1.0
C      1  0.5940830000000  0.5707540000000  0.5416190000000 1.0
C      1  0.5737530000000  0.5673020000000  0.4226810000000 1.0
C      1  0.4552550000000  0.5711460000000  0.4097640000000 1.0
C      1  0.4744590000000  0.5422930000000  0.5718780000000 1.0
C      1  0.5491130000000  0.5482330000000  0.5324810000000 1.0
C      1  0.5590530000000  0.5427530000000  0.4600340000000 1.0
C      1  0.4848120000000  0.5418470000000  0.4336520000000 1.0
C      1  0.4275260000000  0.5356950000000  0.4976610000000 1.0
C      1  0.4783530000000  0.4548240000000  0.5641350000000 1.0
C      1  0.5540060000000  0.4582450000000  0.5477200000000 1.0
C      1  0.5583020000000  0.4604220000000  0.4632950000000 1.0
C      1  0.4787820000000  0.4620300000000  0.4277850000000 1.0
C      1  0.4232040000000  0.4628670000000  0.4950460000000 1.0
C      1  0.5008460000000  0.5663390000000  0.4405010000000 1.0
C      1  0.4297630000000  0.5655620000000  0.4903570000000 1.0
C      1  0.4667370000000  0.5694440000000  0.5636250000000 1.0
C      1  0.5465900000000  0.5784400000000  0.5344960000000 1.0
C      1  0.5613870000000  0.5701220000000  0.4739920000000 1.0
C      1  0.4896010000000  0.4330690000000  0.4311260000000 1.0
C      1  0.4268930000000  0.4328780000000  0.4889280000000 1.0
C      1  0.4799940000000  0.4224430000000  0.5581260000000 1.0
C      1  0.5394810000000  0.4321560000000  0.5558160000000 1.0
C      1  0.5561710000000  0.4367120000000  0.4834920000000 1.0
C      1  0.6109540000000  0.4732670000000  0.5261840000000 1.0
C      1  0.5589220000000  0.4682420000000  0.4011530000000 1.0
C      1  0.4225270000000  0.4737240000000  0.4090590000000 1.0
C      1  0.3901040000000  0.4661650000000  0.5439430000000 1.0
C      1  0.5152480000000  0.4680390000000  0.6222750000000 1.0
C      1  0.6144710000000  0.5280480000000  0.5239460000000 1.0
C      1  0.5610250000000  0.5245540000000  0.3971960000000 1.0
C      1  0.4251950000000  0.5306390000000  0.4115700000000 1.0
C      1  0.3911170000000  0.5230690000000  0.5458160000000 1.0
C      1  0.5094630000000  0.5259170000000  0.6193180000000 1.0
C      1  0.4036360000000  0.4876180000000  0.4280050000000 1.0
C      1  0.4037880000000  0.4788610000000  0.5680490000000 1.0
C      1  0.5396230000000  0.4854560000000  0.6145530000000 1.0
C      1  0.6167020000000  0.4844900000000  0.4998030000000 1.0
C      1  0.5365910000000  0.4819950000000  0.3878010000000 1.0
C      1  0.4054320000000  0.5176040000000  0.4293820000000 1.0
C      1  0.4030070000000  0.5091600000000  0.5690220000000 1.0
C      1  0.5365800000000  0.5156280000000  0.6119970000000 1.0
C      1  0.6179860000000  0.5142220000000  0.4979550000000 1.0
C      1  0.5359820000000  0.5118870000000  0.3879880000000 1.0
C      1  0.5968510000000  0.5459460000000  0.4629400000000 1.0
C      1  0.5023730000000  0.5496710000000  0.3998100000000 1.0
C      1  0.4008670000000  0.5505850000000  0.4677580000000 1.0
C      1  0.4382460000000  0.5450990000000  0.5855190000000 1.0
C      1  0.5593030000000  0.5519020000000  0.5697200000000 1.0
C      1  0.5951110000000  0.4487840000000  0.4699950000000 1.0
C      1  0.5010570000000  0.4462400000000  0.3910150000000 1.0
C      1  0.3992540000000  0.4517150000000  0.4639650000000 1.0
C      1  0.4515340000000  0.4495230000000  0.5806370000000 1.0
C      1  0.5649200000000  0.4536400000000  0.5847270000000 1.0
C      1  0.6081330000000  0.4450980000000  0.5277050000000 1.0
C      1  0.5559630000000  0.4402770000000  0.4079150000000 1.0
C      1  0.4273470000000  0.4453890000000  0.4116350000000 1.0
C      1  0.3985490000000  0.4379310000000  0.5361110000000 1.0
C      1  0.5082770000000  0.4455240000000  0.6004760000000 1.0
C      1  0.6104930000000  0.5560960000000  0.5237690000000 1.0
C      1  0.5607770000000  0.5527860000000  0.4016050000000 1.0
C      1  0.4298570000000  0.5585780000000  0.4131190000000 1.0
C      1  0.3947230000000  0.5511940000000  0.5432740000000 1.0
C      1  0.5029950000000  0.5517350000000  0.6075350000000 1.0
C      1  0.5699760000000  0.4818170000000  0.5002710000000 1.0
C      1  0.5192560000000  0.4798480000000  0.4304530000000 1.0
C      1  0.4393170000000  0.4837700000000  0.4573170000000 1.0
C      1  0.4430050000000  0.4817140000000  0.5434300000000 1.0
C      1  0.5230540000000  0.4814170000000  0.5713150000000 1.0
C      1  0.5726110000000  0.5175020000000  0.4965760000000 1.0
C      1  0.5211480000000  0.5153280000000  0.4320630000000 1.0
C      1  0.4424070000000  0.5193400000000  0.4593190000000 1.0
C      1  0.4441630000000  0.5161200000000  0.5450290000000 1.0
C      1  0.5214990000000  0.5193080000000  0.5705250000000 1.0
C      1  0.5092970000000  0.4297540000000  0.5182320000000 1.0
C      1  0.5156260000000  0.5741150000000  0.4919850000000 1.0
C      1  0.4872640000000  0.5000900000000  0.5104310000000 1.0
END
