TITL C-3577091-527-416 -3.28919042954521e-06 125000 -921.685041988017 0 0 148 (C1) n - 1
REM
REM in /home/bkarasulu/work/CARBON/AIRSS/Generating-Clusters/EDIP-Nigel-Params/with-SteepDescent/Higher-Symm/SD-CG/HFTN-CG
REM
REM
REM
REM
REM
REM ./C.cell (12c818d87b63d06a65506943cc24bca4)
REM
REM compiler GCC version 9.2.1 20190827 (Red Hat 9.2.1-1)
REM options -cpp -mtune=generic -march=x86-64 -g -O0 -fpre-include=/usr/include/finclude/math-vector-fortran.h
REM seed 869032519 129237056 -1516565240 -205369243 -1446628487 -687497685 -1020566196 -1471451109 2094019474 452566069 72719950 -578473645 557440137 506149415 -61245093 1347937498 237894246 -877847750 -1602180003 -717825351 -947331140 367321775 467898227 1863983304 -227913264 2143953844 51138474 -1718490664 1041617554 -1533269615 -292685810 -1899288498 -1687461160
REM
CELL 1.54180   50.00000   50.00000   50.00000   90.00000   90.00000   90.00000
LATT -1
SFAC C  
C      1  0.5283430000000  0.5625870000000  0.5734520000000 1.0
C      1  0.5721440000000  0.4377180000000  0.4712380000000 1.0
C      1  0.4721010000000  0.5629630000000  0.4266940000000 1.0
C      1  0.4269410000000  0.4359330000000  0.5271370000000 1.0
C      1  0.4052110000000  0.5498020000000  0.4821960000000 1.0
C      1  0.4817990000000  0.4513920000000  0.5948680000000 1.0
C      1  0.5941940000000  0.5483530000000  0.5174410000000 1.0
C      1  0.5205790000000  0.4597250000000  0.4071400000000 1.0
C      1  0.4731630000000  0.5781550000000  0.4956460000000 1.0
C      1  0.4970410000000  0.4225460000000  0.5276000000000 1.0
C      1  0.5263630000000  0.5775650000000  0.5045740000000 1.0
C      1  0.5032500000000  0.4219860000000  0.4737820000000 1.0
C      1  0.5079320000000  0.4387190000000  0.5497420000000 1.0
C      1  0.5485060000000  0.5615310000000  0.4924720000000 1.0
C      1  0.4903420000000  0.4391320000000  0.4515810000000 1.0
C      1  0.4511330000000  0.5618180000000  0.5075620000000 1.0
C      1  0.4002030000000  0.5664500000000  0.5413970000000 1.0
C      1  0.5413420000000  0.4334830000000  0.5999700000000 1.0
C      1  0.5987090000000  0.5656160000000  0.4577660000000 1.0
C      1  0.4564240000000  0.4347100000000  0.3992980000000 1.0
C      1  0.4427240000000  0.5047100000000  0.5782570000000 1.0
C      1  0.5786520000000  0.4953180000000  0.5573360000000 1.0
C      1  0.5561700000000  0.4998320000000  0.4212370000000 1.0
C      1  0.4201720000000  0.4976950000000  0.4419100000000 1.0
C      1  0.5115040000000  0.4006490000000  0.5143220000000 1.0
C      1  0.5125060000000  0.5996220000000  0.4914010000000 1.0
C      1  0.4933770000000  0.3989620000000  0.4899300000000 1.0
C      1  0.4875350000000  0.5995960000000  0.5093480000000 1.0
C      1  0.4098920000000  0.5405970000000  0.5461440000000 1.0
C      1  0.5461860000000  0.4593950000000  0.5904540000000 1.0
C      1  0.5886230000000  0.5399460000000  0.4532460000000 1.0
C      1  0.4518910000000  0.4608380000000  0.4082760000000 1.0
C      1  0.5808300000000  0.4219470000000  0.5288930000000 1.0
C      1  0.5283760000000  0.5793060000000  0.4206150000000 1.0
C      1  0.4380780000000  0.4241750000000  0.4654110000000 1.0
C      1  0.4712550000000  0.5786420000000  0.5797450000000 1.0
C      1  0.5940850000000  0.5204190000000  0.4727420000000 1.0
C      1  0.4716980000000  0.4797750000000  0.4027140000000 1.0
C      1  0.4038760000000  0.5209490000000  0.5267410000000 1.0
C      1  0.5266210000000  0.4790270000000  0.5956070000000 1.0
C      1  0.5532330000000  0.4198530000000  0.5311760000000 1.0
C      1  0.5310800000000  0.5824660000000  0.4480300000000 1.0
C      1  0.4465970000000  0.4022430000000  0.4792640000000 1.0
C      1  0.4686000000000  0.5818600000000  0.5522950000000 1.0
C      1  0.5817170000000  0.5539060000000  0.5532750000000 1.0
C      1  0.5542890000000  0.4442160000000  0.4187680000000 1.0
C      1  0.4181350000000  0.5555100000000  0.4464680000000 1.0
C      1  0.4462000000000  0.4459510000000  0.5817470000000 1.0
C      1  0.5325500000000  0.5050700000000  0.5838700000000 1.0
C      1  0.5824920000000  0.4941500000000  0.4673560000000 1.0
C      1  0.4665340000000  0.5055520000000  0.4158670000000 1.0
C      1  0.4164270000000  0.4950060000000  0.5320430000000 1.0
C      1  0.5067200000000  0.5899240000000  0.4631930000000 1.0
C      1  0.4658370000000  0.4051200000000  0.4988700000000 1.0
C      1  0.4931160000000  0.5893770000000  0.5373950000000 1.0
C      1  0.5383830000000  0.4115420000000  0.5070030000000 1.0
C      1  0.5898370000000  0.4488900000000  0.4890740000000 1.0
C      1  0.4908070000000  0.5501800000000  0.4111670000000 1.0
C      1  0.4178100000000  0.4506210000000  0.5056120000000 1.0
C      1  0.5101540000000  0.5507740000000  0.5901860000000 1.0
C      1  0.5013810000000  0.4692580000000  0.6038520000000 1.0
C      1  0.6027530000000  0.5303670000000  0.4977590000000 1.0
C      1  0.4960890000000  0.4685720000000  0.3933490000000 1.0
C      1  0.3963890000000  0.5315670000000  0.5015890000000 1.0
C      1  0.4946480000000  0.5203430000000  0.4705200000000 1.0
C      1  0.4694470000000  0.4795650000000  0.5040540000000 1.0
C      1  0.5044670000000  0.5196420000000  0.5300380000000 1.0
C      1  0.5292850000000  0.4800890000000  0.4960880000000 1.0
C      1  0.4878140000000  0.4344830000000  0.5717940000000 1.0
C      1  0.5710840000000  0.5654550000000  0.5118750000000 1.0
C      1  0.5104420000000  0.4388100000000  0.4288550000000 1.0
C      1  0.4287110000000  0.5661880000000  0.4881060000000 1.0
C      1  0.4090570000000  0.4775740000000  0.5097290000000 1.0
C      1  0.5106360000000  0.5223440000000  0.5921540000000 1.0
C      1  0.5919570000000  0.4772880000000  0.4890070000000 1.0
C      1  0.4892100000000  0.5218120000000  0.4085730000000 1.0
C      1  0.4472980000000  0.5162720000000  0.4794780000000 1.0
C      1  0.4796260000000  0.4840810000000  0.5522200000000 1.0
C      1  0.5522490000000  0.5157370000000  0.5203620000000 1.0
C      1  0.5186430000000  0.4849610000000  0.4493780000000 1.0
C      1  0.5781920000000  0.5829820000000  0.4593800000000 1.0
C      1  0.4553370000000  0.4183860000000  0.4208320000000 1.0
C      1  0.4213310000000  0.5832670000000  0.5403340000000 1.0
C      1  0.5413850000000  0.4167170000000  0.5787320000000 1.0
C      1  0.4476910000000  0.4630210000000  0.4373520000000 1.0
C      1  0.4391220000000  0.5391300000000  0.5502280000000 1.0
C      1  0.5505570000000  0.4610200000000  0.5613350000000 1.0
C      1  0.5595760000000  0.5378220000000  0.4486810000000 1.0
C      1  0.5605320000000  0.5669120000000  0.5391240000000 1.0
C      1  0.5372230000000  0.4344570000000  0.4391300000000 1.0
C      1  0.4394490000000  0.5678840000000  0.4609770000000 1.0
C      1  0.4606290000000  0.4326300000000  0.5609730000000 1.0
C      1  0.5334210000000  0.5549850000000  0.5464360000000 1.0
C      1  0.5450560000000  0.4455150000000  0.4663220000000 1.0
C      1  0.4664700000000  0.5556030000000  0.4537320000000 1.0
C      1  0.4537430000000  0.4440710000000  0.5335740000000 1.0
C      1  0.4308890000000  0.5404260000000  0.4270410000000 1.0
C      1  0.4275490000000  0.4615890000000  0.5686330000000 1.0
C      1  0.5690910000000  0.5383960000000  0.5723790000000 1.0
C      1  0.5741120000000  0.4583440000000  0.4317370000000 1.0
C      1  0.5316490000000  0.5218520000000  0.5435660000000 1.0
C      1  0.5421250000000  0.4781030000000  0.4687760000000 1.0
C      1  0.4677480000000  0.5224720000000  0.4564050000000 1.0
C      1  0.4564550000000  0.4779300000000  0.5314810000000 1.0
C      1  0.5279630000000  0.4873750000000  0.4195440000000 1.0
C      1  0.4175200000000  0.5097560000000  0.4693020000000 1.0
C      1  0.4694930000000  0.4916100000000  0.5823010000000 1.0
C      1  0.5823820000000  0.5080940000000  0.5303750000000 1.0
C      1  0.4814090000000  0.5120190000000  0.5445830000000 1.0
C      1  0.5446310000000  0.4876830000000  0.5186560000000 1.0
C      1  0.5174400000000  0.5127990000000  0.4559860000000 1.0
C      1  0.4545260000000  0.4881640000000  0.4813030000000 1.0
C      1  0.4457470000000  0.5680830000000  0.5379320000000 1.0
C      1  0.5385750000000  0.4323990000000  0.5546290000000 1.0
C      1  0.5536670000000  0.5680450000000  0.4619500000000 1.0
C      1  0.4571870000000  0.4344650000000  0.4447610000000 1.0
C      1  0.4870490000000  0.5646630000000  0.5961240000000 1.0
C      1  0.5968090000000  0.4346830000000  0.5117060000000 1.0
C      1  0.5138520000000  0.5637950000000  0.4045090000000 1.0
C      1  0.4211190000000  0.4409110000000  0.4797530000000 1.0
C      1  0.4198080000000  0.4690800000000  0.4417210000000 1.0
C      1  0.4435270000000  0.5333900000000  0.5781360000000 1.0
C      1  0.5785010000000  0.4666700000000  0.5569890000000 1.0
C      1  0.5562360000000  0.5282380000000  0.4216660000000 1.0
C      1  0.5325820000000  0.4828470000000  0.5462210000000 1.0
C      1  0.5451650000000  0.5170990000000  0.4676770000000 1.0
C      1  0.4663370000000  0.4835950000000  0.4537520000000 1.0
C      1  0.4539800000000  0.5170600000000  0.5323080000000 1.0
C      1  0.5606830000000  0.5119370000000  0.5750410000000 1.0
C      1  0.5744800000000  0.4852030000000  0.4395390000000 1.0
C      1  0.4387290000000  0.5137620000000  0.4245120000000 1.0
C      1  0.4249160000000  0.4880760000000  0.5603170000000 1.0
C      1  0.4884600000000  0.5666860000000  0.4731760000000 1.0
C      1  0.4734380000000  0.4321110000000  0.5125400000000 1.0
C      1  0.5112780000000  0.5662100000000  0.5272840000000 1.0
C      1  0.5263430000000  0.4338530000000  0.4884180000000 1.0
C      1  0.5406640000000  0.5318130000000  0.4938880000000 1.0
C      1  0.4920410000000  0.4687650000000  0.4596400000000 1.0
C      1  0.4588420000000  0.5319620000000  0.5060950000000 1.0
C      1  0.5063190000000  0.4682020000000  0.5413090000000 1.0
C      1  0.4031760000000  0.4917440000000  0.4862980000000 1.0
C      1  0.4865500000000  0.5090510000000  0.5974610000000 1.0
C      1  0.5972380000000  0.4905970000000  0.5131220000000 1.0
C      1  0.5123080000000  0.5066910000000  0.4039750000000 1.0
C      1  0.4950270000000  0.5425200000000  0.5147880000000 1.0
C      1  0.5136800000000  0.4572290000000  0.5050760000000 1.0
C      1  0.5044710000000  0.5428990000000  0.4860390000000 1.0
C      1  0.4850410000000  0.4564520000000  0.4951100000000 1.0
END
