TITL C-3577082-504-343 -0.00010797772625938 125000 -634.321201859635 0 0 102 (C1) n - 1
REM
REM in /home/bkarasulu/work/CARBON/AIRSS/Generating-Clusters/EDIP-Nigel-Params/with-SteepDescent/Higher-Symm/SD-CG/HFTN-CG
REM
REM
REM
REM
REM
REM ./C.cell (12c818d87b63d06a65506943cc24bca4)
REM
REM compiler GCC version 9.2.1 20190827 (Red Hat 9.2.1-1)
REM options -cpp -mtune=generic -march=x86-64 -g -O0 -fpre-include=/usr/include/finclude/math-vector-fortran.h
REM seed -1662535037 -1271714857 -539190342 944778194 1436538950 953008225 1818247258 1320421358 -1775360463 -42885078 -910775625 -568498009 -219522369 775376749 -1994183112 -496615377 -997673312 -1663164951 1566079134 -1031586834 201985338 -1381998190 -1398054788 -1766380024 -1716955519 468545304 -914566161 -457787191 523353851 -2080647521 -114935839 -2059132847 -1134339357
REM
CELL 1.54180   50.00000   50.00000   50.00000   90.00000   90.00000   90.00000
LATT -1
SFAC C  
C      1  0.4274890000000  0.5002720000000  0.4517980000000 1.0
C      1  0.5757850000000  0.4982140000000  0.5405340000000 1.0
C      1  0.4289900000000  0.5008180000000  0.5460960000000 1.0
C      1  0.5819870000000  0.5133530000000  0.4459130000000 1.0
C      1  0.5157270000000  0.4763860000000  0.4762940000000 1.0
C      1  0.4793380000000  0.4904860000000  0.5324990000000 1.0
C      1  0.5073060000000  0.4842980000000  0.5231380000000 1.0
C      1  0.4864520000000  0.5020070000000  0.4735680000000 1.0
C      1  0.5380140000000  0.5808590000000  0.5363340000000 1.0
C      1  0.4606950000000  0.5856490000000  0.4524970000000 1.0
C      1  0.5352790000000  0.5880930000000  0.4516010000000 1.0
C      1  0.4648390000000  0.5848580000000  0.5421300000000 1.0
C      1  0.5709690000000  0.4858740000000  0.4459340000000 1.0
C      1  0.4329810000000  0.4742420000000  0.5566100000000 1.0
C      1  0.5605280000000  0.4749850000000  0.5483510000000 1.0
C      1  0.4364970000000  0.4736980000000  0.4451570000000 1.0
C      1  0.4788620000000  0.4963350000000  0.4304090000000 1.0
C      1  0.5241220000000  0.4968380000000  0.5707520000000 1.0
C      1  0.4744770000000  0.4958390000000  0.5761000000000 1.0
C      1  0.5270410000000  0.5025330000000  0.4310770000000 1.0
C      1  0.4510710000000  0.5688010000000  0.4730940000000 1.0
C      1  0.5425780000000  0.5594120000000  0.5188470000000 1.0
C      1  0.4553130000000  0.5662540000000  0.5233840000000 1.0
C      1  0.5481870000000  0.5743640000000  0.4720050000000 1.0
C      1  0.5541780000000  0.4424760000000  0.4582120000000 1.0
C      1  0.4506770000000  0.4333720000000  0.5470120000000 1.0
C      1  0.5469990000000  0.4300140000000  0.5518910000000 1.0
C      1  0.4535920000000  0.4338360000000  0.4550670000000 1.0
C      1  0.4698180000000  0.5225000000000  0.4381680000000 1.0
C      1  0.5316490000000  0.5197610000000  0.5523250000000 1.0
C      1  0.4679810000000  0.5229460000000  0.5651170000000 1.0
C      1  0.5335860000000  0.5296430000000  0.4432180000000 1.0
C      1  0.5332340000000  0.4186460000000  0.5281790000000 1.0
C      1  0.4598970000000  0.4193550000000  0.4788610000000 1.0
C      1  0.5393660000000  0.4260470000000  0.4786750000000 1.0
C      1  0.4602150000000  0.4199220000000  0.5233010000000 1.0
C      1  0.4293620000000  0.4516310000000  0.5387240000000 1.0
C      1  0.5763710000000  0.4635930000000  0.4656960000000 1.0
C      1  0.4306320000000  0.4509980000000  0.4620590000000 1.0
C      1  0.5686860000000  0.4486010000000  0.5407980000000 1.0
C      1  0.5267290000000  0.4467270000000  0.5678520000000 1.0
C      1  0.4762300000000  0.4477340000000  0.4415020000000 1.0
C      1  0.5333130000000  0.4551480000000  0.4416260000000 1.0
C      1  0.4713740000000  0.4458590000000  0.5644230000000 1.0
C      1  0.5618790000000  0.5237550000000  0.5482990000000 1.0
C      1  0.4416830000000  0.5253250000000  0.4441950000000 1.0
C      1  0.5630330000000  0.5360270000000  0.4408220000000 1.0
C      1  0.4401630000000  0.5266140000000  0.5555240000000 1.0
C      1  0.5462360000000  0.4804320000000  0.4312550000000 1.0
C      1  0.4571190000000  0.4714460000000  0.5731530000000 1.0
C      1  0.5416570000000  0.4736780000000  0.5701720000000 1.0
C      1  0.4629200000000  0.4725240000000  0.4340960000000 1.0
C      1  0.5170490000000  0.5719270000000  0.5527390000000 1.0
C      1  0.4841220000000  0.5733990000000  0.4438260000000 1.0
C      1  0.5141420000000  0.5790410000000  0.4359440000000 1.0
C      1  0.4861470000000  0.5721860000000  0.5548910000000 1.0
C      1  0.4130600000000  0.5022890000000  0.4767800000000 1.0
C      1  0.5834540000000  0.4976700000000  0.5113120000000 1.0
C      1  0.4149310000000  0.5025440000000  0.5214290000000 1.0
C      1  0.6010920000000  0.5205490000000  0.4658000000000 1.0
C      1  0.4723900000000  0.5207890000000  0.5258690000000 1.0
C      1  0.5269160000000  0.5322380000000  0.4769880000000 1.0
C      1  0.4981470000000  0.5286270000000  0.4834360000000 1.0
C      1  0.5205280000000  0.5123730000000  0.5221250000000 1.0
C      1  0.5164560000000  0.5489310000000  0.4268210000000 1.0
C      1  0.4865050000000  0.5458480000000  0.5709880000000 1.0
C      1  0.5183740000000  0.5442130000000  0.5659290000000 1.0
C      1  0.4853330000000  0.5460460000000  0.4309870000000 1.0
C      1  0.4171610000000  0.5305230000000  0.4845100000000 1.0
C      1  0.5698450000000  0.5236820000000  0.5028490000000 1.0
C      1  0.4197580000000  0.5299920000000  0.5134040000000 1.0
C      1  0.5859140000000  0.5388100000000  0.4816910000000 1.0
C      1  0.4341980000000  0.5452020000000  0.4650760000000 1.0
C      1  0.5651510000000  0.5418940000000  0.5252870000000 1.0
C      1  0.4361300000000  0.5453820000000  0.5327000000000 1.0
C      1  0.5705810000000  0.5562360000000  0.4620900000000 1.0
C      1  0.4592250000000  0.5243170000000  0.4952480000000 1.0
C      1  0.5408440000000  0.5137130000000  0.4970370000000 1.0
C      1  0.5096690000000  0.4255320000000  0.4735340000000 1.0
C      1  0.5040200000000  0.4249500000000  0.5299060000000 1.0
C      1  0.5052160000000  0.4450640000000  0.4504460000000 1.0
C      1  0.4997230000000  0.4438320000000  0.5534790000000 1.0
C      1  0.4984590000000  0.4860760000000  0.5659670000000 1.0
C      1  0.5040030000000  0.4881350000000  0.4414100000000 1.0
C      1  0.5460290000000  0.4316050000000  0.5058080000000 1.0
C      1  0.4498040000000  0.4339960000000  0.5008960000000 1.0
C      1  0.4216060000000  0.4845120000000  0.4991460000000 1.0
C      1  0.5699960000000  0.4729900000000  0.4950630000000 1.0
C      1  0.5694880000000  0.4466990000000  0.5114390000000 1.0
C      1  0.4258690000000  0.4538150000000  0.5004540000000 1.0
C      1  0.4688340000000  0.5590020000000  0.4962940000000 1.0
C      1  0.5295890000000  0.5601160000000  0.4908620000000 1.0
C      1  0.4652420000000  0.4897400000000  0.4978480000000 1.0
C      1  0.5419990000000  0.4858270000000  0.4885990000000 1.0
C      1  0.5002310000000  0.6241490000000  0.4991460000000 1.0
C      1  0.4993990000000  0.5711870000000  0.4948470000000 1.0
C      1  0.4990430000000  0.5986880000000  0.4967260000000 1.0
C      1  0.4821490000000  0.4012300000000  0.4855360000000 1.0
C      1  0.4939660000000  0.4367930000000  0.5007590000000 1.0
C      1  0.4982220000000  0.5309730000000  0.5140140000000 1.0
C      1  0.4803300000000  0.3994400000000  0.5153690000000 1.0
C      1  0.4975090000000  0.4683920000000  0.4992560000000 1.0
END
