TITL C-3577078-809-689 -1.0654932476152e-06 125000 -877.879264378936 0 0 138 (C1) n - 1
REM
REM in /home/bkarasulu/work/CARBON/AIRSS/Generating-Clusters/EDIP-Nigel-Params/with-SteepDescent/Higher-Symm/SD-CG/HFTN-CG
REM
REM
REM
REM
REM
REM ./C.cell (12c818d87b63d06a65506943cc24bca4)
REM
REM compiler GCC version 9.2.1 20190827 (Red Hat 9.2.1-1)
REM options -cpp -mtune=generic -march=x86-64 -g -O0 -fpre-include=/usr/include/finclude/math-vector-fortran.h
REM seed -371576362 267995088 533260500 592717309 -755457824 -1511405992 140908624 -589690536 -2120411456 -449577894 359802317 -790568577 963909424 -766998047 1562596342 714289254 -723280063 1397290900 1424977877 1329250834 622010814 -1157511537 1445460227 -1596210204 -1705893935 1260464288 985258631 -766209001 -107133087 -230872847 -402050668 -1879216564 1187067186
REM
CELL 1.54180   50.00000   50.00000   50.00000   90.00000   90.00000   90.00000
LATT -1
SFAC C  
C      1  0.5146700000000  0.5108390000000  0.4417820000000 1.0
C      1  0.4853280000000  0.5099740000000  0.5573800000000 1.0
C      1  0.5138660000000  0.5145150000000  0.5619750000000 1.0
C      1  0.4861820000000  0.5156960000000  0.4374510000000 1.0
C      1  0.5583290000000  0.4482420000000  0.4354760000000 1.0
C      1  0.4417370000000  0.4440830000000  0.5602020000000 1.0
C      1  0.5568670000000  0.4430000000000  0.5614640000000 1.0
C      1  0.4431590000000  0.4470290000000  0.4344870000000 1.0
C      1  0.5117410000000  0.5752640000000  0.4476210000000 1.0
C      1  0.4883250000000  0.5742500000000  0.5527120000000 1.0
C      1  0.5193000000000  0.5747630000000  0.5515620000000 1.0
C      1  0.4807440000000  0.5757600000000  0.4488900000000 1.0
C      1  0.4738120000000  0.5145350000000  0.5297450000000 1.0
C      1  0.5263730000000  0.5142680000000  0.4694670000000 1.0
C      1  0.4732700000000  0.5153110000000  0.4674480000000 1.0
C      1  0.5266360000000  0.5152650000000  0.5319540000000 1.0
C      1  0.5154920000000  0.5415240000000  0.4835900000000 1.0
C      1  0.4848110000000  0.5415380000000  0.5161090000000 1.0
C      1  0.5162580000000  0.5411690000000  0.5156890000000 1.0
C      1  0.4838820000000  0.5412260000000  0.4840800000000 1.0
C      1  0.5577100000000  0.5137660000000  0.5341490000000 1.0
C      1  0.4421770000000  0.5139190000000  0.4650430000000 1.0
C      1  0.5571960000000  0.5146870000000  0.4676300000000 1.0
C      1  0.4428340000000  0.5147930000000  0.5311940000000 1.0
C      1  0.5180160000000  0.4345490000000  0.4749230000000 1.0
C      1  0.4830830000000  0.4370350000000  0.5290620000000 1.0
C      1  0.5154480000000  0.4356360000000  0.5287570000000 1.0
C      1  0.4828320000000  0.4342470000000  0.4741100000000 1.0
C      1  0.3995600000000  0.4986800000000  0.4707220000000 1.0
C      1  0.6000990000000  0.4980710000000  0.5277040000000 1.0
C      1  0.4000560000000  0.4997300000000  0.5261440000000 1.0
C      1  0.6001220000000  0.5003440000000  0.4722200000000 1.0
C      1  0.4454010000000  0.4945010000000  0.4207570000000 1.0
C      1  0.5548830000000  0.4917190000000  0.5777420000000 1.0
C      1  0.4446000000000  0.4933910000000  0.5759640000000 1.0
C      1  0.5552230000000  0.4960990000000  0.4220150000000 1.0
C      1  0.4497690000000  0.5800450000000  0.5223440000000 1.0
C      1  0.5503240000000  0.5806070000000  0.4778550000000 1.0
C      1  0.4463390000000  0.5738480000000  0.4893010000000 1.0
C      1  0.5537680000000  0.5739670000000  0.5110050000000 1.0
C      1  0.5561650000000  0.5509480000000  0.4346490000000 1.0
C      1  0.4439150000000  0.5497960000000  0.5650720000000 1.0
C      1  0.5618700000000  0.5483460000000  0.5659390000000 1.0
C      1  0.4380400000000  0.5496380000000  0.4339650000000 1.0
C      1  0.5289700000000  0.4635680000000  0.5266600000000 1.0
C      1  0.4701550000000  0.4623570000000  0.4742050000000 1.0
C      1  0.5304760000000  0.4625840000000  0.4757120000000 1.0
C      1  0.4701520000000  0.4642830000000  0.5241620000000 1.0
C      1  0.4835950000000  0.4885740000000  0.4824970000000 1.0
C      1  0.5160670000000  0.4890110000000  0.5167860000000 1.0
C      1  0.4838820000000  0.4891640000000  0.5146630000000 1.0
C      1  0.5167850000000  0.4883740000000  0.4845100000000 1.0
C      1  0.5305810000000  0.4435910000000  0.4279880000000 1.0
C      1  0.4694940000000  0.4421820000000  0.5701900000000 1.0
C      1  0.5292150000000  0.4411170000000  0.5723640000000 1.0
C      1  0.4709680000000  0.4430960000000  0.4269270000000 1.0
C      1  0.3981530000000  0.5267140000000  0.4840560000000 1.0
C      1  0.6017540000000  0.5264340000000  0.5152880000000 1.0
C      1  0.3994740000000  0.5277030000000  0.5136920000000 1.0
C      1  0.6002870000000  0.5279080000000  0.4856720000000 1.0
C      1  0.5148390000000  0.5060280000000  0.3932370000000 1.0
C      1  0.4850100000000  0.5036700000000  0.6055650000000 1.0
C      1  0.5151140000000  0.5006790000000  0.6073720000000 1.0
C      1  0.4848830000000  0.5029380000000  0.3915290000000 1.0
C      1  0.5680100000000  0.5623880000000  0.4601720000000 1.0
C      1  0.4320210000000  0.5617460000000  0.5399330000000 1.0
C      1  0.5733380000000  0.5611690000000  0.5424690000000 1.0
C      1  0.4265260000000  0.5619270000000  0.4576900000000 1.0
C      1  0.4782230000000  0.5714260000000  0.5253900000000 1.0
C      1  0.5219280000000  0.5718330000000  0.4748170000000 1.0
C      1  0.4736320000000  0.5693140000000  0.4773370000000 1.0
C      1  0.5264650000000  0.5691540000000  0.5229270000000 1.0
C      1  0.4327500000000  0.5163420000000  0.5608360000000 1.0
C      1  0.5670370000000  0.5183650000000  0.4380280000000 1.0
C      1  0.4321150000000  0.5168810000000  0.4355710000000 1.0
C      1  0.5680420000000  0.5147560000000  0.5635970000000 1.0
C      1  0.5251810000000  0.4913800000000  0.5803140000000 1.0
C      1  0.4749760000000  0.4933940000000  0.4185300000000 1.0
C      1  0.5257830000000  0.4944730000000  0.4193220000000 1.0
C      1  0.4741180000000  0.4926420000000  0.5790830000000 1.0
C      1  0.4285700000000  0.4386510000000  0.4855260000000 1.0
C      1  0.5732470000000  0.4415460000000  0.5165010000000 1.0
C      1  0.4263370000000  0.4419630000000  0.5151770000000 1.0
C      1  0.5719470000000  0.4390530000000  0.4866800000000 1.0
C      1  0.5268420000000  0.5568010000000  0.4305800000000 1.0
C      1  0.4730080000000  0.5557940000000  0.5695740000000 1.0
C      1  0.5343320000000  0.5583580000000  0.5721880000000 1.0
C      1  0.4656430000000  0.5598460000000  0.4279000000000 1.0
C      1  0.4866870000000  0.4671680000000  0.4246580000000 1.0
C      1  0.5133310000000  0.4652760000000  0.5742870000000 1.0
C      1  0.4849360000000  0.4654600000000  0.5761480000000 1.0
C      1  0.5148760000000  0.4671030000000  0.4220620000000 1.0
C      1  0.5969900000000  0.4807380000000  0.4384420000000 1.0
C      1  0.4030240000000  0.4785800000000  0.5591230000000 1.0
C      1  0.5962550000000  0.4762500000000  0.5602300000000 1.0
C      1  0.4037840000000  0.4783070000000  0.4374670000000 1.0
C      1  0.4763460000000  0.5300800000000  0.6107060000000 1.0
C      1  0.5234710000000  0.5325350000000  0.3885750000000 1.0
C      1  0.4729650000000  0.5289850000000  0.3895800000000 1.0
C      1  0.5269880000000  0.5266750000000  0.6097160000000 1.0
C      1  0.4849100000000  0.4235430000000  0.4442960000000 1.0
C      1  0.5139200000000  0.4221190000000  0.5566980000000 1.0
C      1  0.4856000000000  0.4198450000000  0.5637350000000 1.0
C      1  0.5156870000000  0.4245670000000  0.4455340000000 1.0
C      1  0.4402620000000  0.4654370000000  0.5275400000000 1.0
C      1  0.5602770000000  0.4626600000000  0.4709050000000 1.0
C      1  0.4402530000000  0.4620200000000  0.4696060000000 1.0
C      1  0.5591630000000  0.4646790000000  0.5291000000000 1.0
C      1  0.4285930000000  0.4898060000000  0.4806650000000 1.0
C      1  0.5709800000000  0.4906960000000  0.5173650000000 1.0
C      1  0.4288460000000  0.4913970000000  0.5153970000000 1.0
C      1  0.5714220000000  0.4903820000000  0.4824360000000 1.0
C      1  0.4032440000000  0.5069240000000  0.4405230000000 1.0
C      1  0.5966940000000  0.5048880000000  0.5580280000000 1.0
C      1  0.4037580000000  0.5072480000000  0.5561030000000 1.0
C      1  0.5962720000000  0.5093490000000  0.4423850000000 1.0
C      1  0.4385370000000  0.4128360000000  0.4789680000000 1.0
C      1  0.5604910000000  0.4195830000000  0.5307140000000 1.0
C      1  0.4387110000000  0.4200770000000  0.5298840000000 1.0
C      1  0.5623890000000  0.4132990000000  0.4793440000000 1.0
C      1  0.5707080000000  0.4679970000000  0.5706740000000 1.0
C      1  0.4298380000000  0.4711760000000  0.4279030000000 1.0
C      1  0.5709800000000  0.4729350000000  0.4293840000000 1.0
C      1  0.4285690000000  0.4697390000000  0.5689890000000 1.0
C      1  0.5721220000000  0.5390150000000  0.4789210000000 1.0
C      1  0.4276860000000  0.5389150000000  0.5206660000000 1.0
C      1  0.5746570000000  0.5372460000000  0.5247370000000 1.0
C      1  0.4252550000000  0.5374800000000  0.4748920000000 1.0
C      1  0.5116490000000  0.5499080000000  0.4071680000000 1.0
C      1  0.4882870000000  0.5479200000000  0.5926300000000 1.0
C      1  0.5160410000000  0.5387420000000  0.5848760000000 1.0
C      1  0.4839200000000  0.5405710000000  0.4146890000000 1.0
C      1  0.5355880000000  0.4138750000000  0.4886910000000 1.0
C      1  0.4655670000000  0.4149730000000  0.5184530000000 1.0
C      1  0.5342140000000  0.4144030000000  0.5180520000000 1.0
C      1  0.4651480000000  0.4139190000000  0.4887970000000 1.0
C      1  0.4408330000000  0.5456020000000  0.4963190000000 1.0
C      1  0.5591380000000  0.5457940000000  0.5033700000000 1.0
END
