TITL C-3578194-7807-316 -4.40943962248284e-06 125000 -97.9959092825912 0 0 19 (C2v) n - 1
REM
REM in /home/bkarasulu/work/CARBON/AIRSS/Generating-Clusters/EDIP-Nigel-Params/with-SteepDescent/Higher-Symm/SD-CG/HFTN-CG
REM
REM
REM
REM
REM
REM ./C.cell (12c818d87b63d06a65506943cc24bca4)
REM
REM compiler GCC version 9.2.1 20190827 (Red Hat 9.2.1-1)
REM options -cpp -mtune=generic -march=x86-64 -g -O0 -fpre-include=/usr/include/finclude/math-vector-fortran.h
REM seed -5124523 698296188 106114620 820874433 -1493097892 982952180 -1215549035 1274118501 -292384321 962621785 -288719775 1029930019 1539343009 -68771922 1910626788 1973089826 -1821567761 509113461 1540723447 -146637432 629825638 294595261 -1841771099 -49096599 -1857314308 -2084358128 1366981431 1862670842 -264193649 2056791956 -1053142443 -1344951351 1425660628
REM
CELL 1.54180   50.00000   50.00000   50.00000   90.00000   90.00000   90.00000
LATT -1
SFAC C  
C      1  0.5312780000000  0.4591780000000  0.4597100000000 1.0
C      1  0.4787340000000  0.4749820000000  0.4493650000000 1.0
C      1  0.4513110000000  0.5066230000000  0.4863400000000 1.0
C      1  0.5289440000000  0.5066400000000  0.5439530000000 1.0
C      1  0.5563970000000  0.4749990000000  0.5070010000000 1.0
C      1  0.5805110000000  0.4677660000000  0.5117840000000 1.0
C      1  0.5438650000000  0.4446620000000  0.4427530000000 1.0
C      1  0.4671720000000  0.4677400000000  0.4276730000000 1.0
C      1  0.4272020000000  0.5137630000000  0.4813920000000 1.0
C      1  0.5406610000000  0.5137890000000  0.5655920000000 1.0
C      1  0.4771040000000  0.4988500000000  0.4913910000000 1.0
C      1  0.5166390000000  0.4988590000000  0.5207300000000 1.0
C      1  0.5306030000000  0.4827580000000  0.5019230000000 1.0
C      1  0.5178140000000  0.4747040000000  0.4778480000000 1.0
C      1  0.4910640000000  0.4827490000000  0.4725800000000 1.0
C      1  0.4508870000000  0.5518820000000  0.5680090000000 1.0
C      1  0.4634470000000  0.5373980000000  0.5510880000000 1.0
C      1  0.4898970000000  0.5068960000000  0.5154560000000 1.0
C      1  0.4764380000000  0.5224180000000  0.5335880000000 1.0
END
