TITL C-3578194-7807-671 -3.68214437772278e-07 125000 -432.997243575372 0 0 71 (C1) n - 1
REM
REM in /home/bkarasulu/work/CARBON/AIRSS/Generating-Clusters/EDIP-Nigel-Params/with-SteepDescent/Higher-Symm/SD-CG/HFTN-CG
REM
REM
REM
REM
REM
REM ./C.cell (12c818d87b63d06a65506943cc24bca4)
REM
REM compiler GCC version 9.2.1 20190827 (Red Hat 9.2.1-1)
REM options -cpp -mtune=generic -march=x86-64 -g -O0 -fpre-include=/usr/include/finclude/math-vector-fortran.h
REM seed -51586831 52251958 -379604068 -1004667317 -1141397782 -2024879240 -1477754662 -767352046 -1447606190 1963985010 -1223295438 814753445 1224053474 -549308635 -1922763529 1887921296 -1945504279 -1177826660 2021351018 -1120462128 -1917201122 1654879504 1191566502 -1645722812 36662590 -1468262507 1873259208 -1657762316 -962068285 -2022576461 230993888 946792744 800499897
REM
CELL 1.54180   50.00000   50.00000   50.00000   90.00000   90.00000   90.00000
LATT -1
SFAC C  
C      1  0.4354190000000  0.5275430000000  0.5493780000000 1.0
C      1  0.4333410000000  0.4802710000000  0.4477350000000 1.0
C      1  0.4570810000000  0.4604000000000  0.5331010000000 1.0
C      1  0.4931660000000  0.4333390000000  0.4599920000000 1.0
C      1  0.5273150000000  0.4342540000000  0.5375940000000 1.0
C      1  0.5652120000000  0.4729040000000  0.4620660000000 1.0
C      1  0.5491920000000  0.5191330000000  0.5359280000000 1.0
C      1  0.5527600000000  0.5517970000000  0.4546290000000 1.0
C      1  0.5105060000000  0.5661970000000  0.5392390000000 1.0
C      1  0.4679990000000  0.5595070000000  0.4628890000000 1.0
C      1  0.4579700000000  0.5544320000000  0.4882410000000 1.0
C      1  0.4261960000000  0.5250120000000  0.5118640000000 1.0
C      1  0.4272030000000  0.4732440000000  0.5038690000000 1.0
C      1  0.4520010000000  0.4325330000000  0.4986270000000 1.0
C      1  0.4992490000000  0.4262210000000  0.4886130000000 1.0
C      1  0.5415100000000  0.4383210000000  0.5137040000000 1.0
C      1  0.5673560000000  0.4752690000000  0.4921310000000 1.0
C      1  0.5688840000000  0.5232180000000  0.5133290000000 1.0
C      1  0.5508240000000  0.5616430000000  0.4822800000000 1.0
C      1  0.5037060000000  0.5648860000000  0.5105730000000 1.0
C      1  0.5438630000000  0.4595170000000  0.4460650000000 1.0
C      1  0.5542250000000  0.4954800000000  0.5537280000000 1.0
C      1  0.5488390000000  0.5235960000000  0.4462550000000 1.0
C      1  0.5243330000000  0.5485520000000  0.5577820000000 1.0
C      1  0.4884730000000  0.5557310000000  0.4442210000000 1.0
C      1  0.4595960000000  0.5390190000000  0.5604990000000 1.0
C      1  0.4421520000000  0.5063560000000  0.4441860000000 1.0
C      1  0.4526380000000  0.4795310000000  0.5554160000000 1.0
C      1  0.4772000000000  0.4598510000000  0.4587580000000 1.0
C      1  0.5053050000000  0.4465960000000  0.5503260000000 1.0
C      1  0.4242730000000  0.4969520000000  0.5190360000000 1.0
C      1  0.4365960000000  0.4526070000000  0.4872700000000 1.0
C      1  0.4781410000000  0.4310220000000  0.5079850000000 1.0
C      1  0.5257050000000  0.4387910000000  0.4892130000000 1.0
C      1  0.5615420000000  0.4591570000000  0.5160030000000 1.0
C      1  0.5768380000000  0.5021460000000  0.4957180000000 1.0
C      1  0.5668220000000  0.5483140000000  0.5012190000000 1.0
C      1  0.5212050000000  0.5641310000000  0.4859190000000 1.0
C      1  0.4759040000000  0.5562440000000  0.5114080000000 1.0
C      1  0.4360860000000  0.5356920000000  0.4872760000000 1.0
C      1  0.4680690000000  0.4966590000000  0.5239670000000 1.0
C      1  0.4897530000000  0.4793550000000  0.4803590000000 1.0
C      1  0.4857760000000  0.4743670000000  0.5107200000000 1.0
C      1  0.5195320000000  0.4781860000000  0.4703720000000 1.0
C      1  0.5103140000000  0.4831270000000  0.5250730000000 1.0
C      1  0.5364730000000  0.5025570000000  0.4780250000000 1.0
C      1  0.5173080000000  0.5122830000000  0.5232200000000 1.0
C      1  0.5028580000000  0.5260720000000  0.4733100000000 1.0
C      1  0.4878900000000  0.5203490000000  0.5333070000000 1.0
C      1  0.4805280000000  0.5065650000000  0.4732390000000 1.0
C      1  0.4725150000000  0.5574820000000  0.5410950000000 1.0
C      1  0.4305840000000  0.5243050000000  0.4622530000000 1.0
C      1  0.4309750000000  0.4989330000000  0.5474300000000 1.0
C      1  0.4467930000000  0.4596360000000  0.4609870000000 1.0
C      1  0.4794530000000  0.4395130000000  0.5366190000000 1.0
C      1  0.5303780000000  0.4376880000000  0.4597380000000 1.0
C      1  0.5627600000000  0.4718300000000  0.5410370000000 1.0
C      1  0.5700620000000  0.5030000000000  0.4575790000000 1.0
C      1  0.5509570000000  0.5438770000000  0.5514500000000 1.0
C      1  0.5147590000000  0.5608790000000  0.4566040000000 1.0
C      1  0.4813380000000  0.5189980000000  0.5717620000000 1.0
C      1  0.4725810000000  0.5056830000000  0.4444570000000 1.0
C      1  0.4791590000000  0.4900890000000  0.5642920000000 1.0
C      1  0.4848010000000  0.4783210000000  0.4354260000000 1.0
C      1  0.5060450000000  0.4773800000000  0.5539720000000 1.0
C      1  0.5144000000000  0.4844130000000  0.4393760000000 1.0
C      1  0.5276550000000  0.4952230000000  0.5674960000000 1.0
C      1  0.5182630000000  0.5150340000000  0.4398070000000 1.0
C      1  0.5116460000000  0.5225100000000  0.5659430000000 1.0
C      1  0.4899050000000  0.5286190000000  0.4314120000000 1.0
C      1  0.5219390000000  0.5208490000000  0.4954480000000 1.0
END
