TITL C-3578197-9521-77 8.76064728763264e-07 125000 -1044.27337383443 0 0 165 (C1) n - 1
REM
REM in /home/bkarasulu/work/CARBON/AIRSS/Generating-Clusters/EDIP-Nigel-Params/with-SteepDescent/Higher-Symm/SD-CG/HFTN-CG
REM
REM
REM
REM
REM
REM ./C.cell (12c818d87b63d06a65506943cc24bca4)
REM
REM compiler GCC version 9.2.1 20190827 (Red Hat 9.2.1-1)
REM options -cpp -mtune=generic -march=x86-64 -g -O0 -fpre-include=/usr/include/finclude/math-vector-fortran.h
REM seed 1273380928 -224901482 -480173158 347722940 -1906936381 -1573122256 481586614 -2057997710 -2091707900 30884127 2108335508 -2066974920 -156053795 -835530613 1058379160 854206172 1054089883 1134614590 2073303292 1739535135 340160162 -150731025 1418144350 -1584580772 -2128587924 1591863567 319296468 -507522287 445513667 -309990490 -595215667 -103725581 -1748023973
REM
CELL 1.54180   50.00000   50.00000   50.00000   90.00000   90.00000   90.00000
LATT -1
SFAC C  
C      1  0.4323060000000  0.5738220000000  0.5340560000000 1.0
C      1  0.5046770000000  0.5717130000000  0.4253390000000 1.0
C      1  0.5609980000000  0.5764340000000  0.5419410000000 1.0
C      1  0.4343500000000  0.4301180000000  0.5329000000000 1.0
C      1  0.5056340000000  0.4258260000000  0.4238300000000 1.0
C      1  0.5622600000000  0.4253400000000  0.5403440000000 1.0
C      1  0.4120730000000  0.4850760000000  0.4807990000000 1.0
C      1  0.5579090000000  0.4818450000000  0.4352960000000 1.0
C      1  0.5262200000000  0.4834170000000  0.5797570000000 1.0
C      1  0.4153550000000  0.5182420000000  0.4814820000000 1.0
C      1  0.5608680000000  0.5144810000000  0.4304450000000 1.0
C      1  0.5243920000000  0.5207920000000  0.5814070000000 1.0
C      1  0.5319820000000  0.5592260000000  0.4293160000000 1.0
C      1  0.5444640000000  0.5661040000000  0.5650640000000 1.0
C      1  0.4205370000000  0.5640000000000  0.5082170000000 1.0
C      1  0.5336900000000  0.4364670000000  0.4262320000000 1.0
C      1  0.5450090000000  0.4370680000000  0.5622450000000 1.0
C      1  0.4232540000000  0.4406860000000  0.5072080000000 1.0
C      1  0.5071040000000  0.5993820000000  0.5541110000000 1.0
C      1  0.4493430000000  0.5971680000000  0.4811170000000 1.0
C      1  0.5433090000000  0.5957850000000  0.4629980000000 1.0
C      1  0.5080500000000  0.4047400000000  0.5520090000000 1.0
C      1  0.4480750000000  0.4033310000000  0.4807510000000 1.0
C      1  0.5442550000000  0.4029330000000  0.4630710000000 1.0
C      1  0.4364960000000  0.5695900000000  0.4831630000000 1.0
C      1  0.5454670000000  0.5666890000000  0.4549340000000 1.0
C      1  0.5147930000000  0.5723680000000  0.5655980000000 1.0
C      1  0.4380000000000  0.4324280000000  0.4823850000000 1.0
C      1  0.5485900000000  0.4303820000000  0.4519460000000 1.0
C      1  0.5156120000000  0.4327350000000  0.5604640000000 1.0
C      1  0.5220760000000  0.4019630000000  0.5246490000000 1.0
C      1  0.4650510000000  0.4021360000000  0.5066830000000 1.0
C      1  0.5138180000000  0.4015970000000  0.4646690000000 1.0
C      1  0.5212220000000  0.5995890000000  0.5263470000000 1.0
C      1  0.4644310000000  0.5997780000000  0.5078590000000 1.0
C      1  0.5129470000000  0.5982500000000  0.4659320000000 1.0
C      1  0.5391570000000  0.4811260000000  0.4603390000000 1.0
C      1  0.5132190000000  0.4900390000000  0.5511580000000 1.0
C      1  0.4544970000000  0.4888430000000  0.4830390000000 1.0
C      1  0.5384200000000  0.5120060000000  0.4674200000000 1.0
C      1  0.5099950000000  0.5207090000000  0.5530040000000 1.0
C      1  0.4459920000000  0.5187170000000  0.4844400000000 1.0
C      1  0.4756130000000  0.5964240000000  0.5571340000000 1.0
C      1  0.4640140000000  0.5923680000000  0.4532170000000 1.0
C      1  0.5605830000000  0.5960830000000  0.4883450000000 1.0
C      1  0.4766120000000  0.4062250000000  0.5559990000000 1.0
C      1  0.4620090000000  0.4057230000000  0.4531360000000 1.0
C      1  0.5616440000000  0.4037630000000  0.4886430000000 1.0
C      1  0.5808070000000  0.4683310000000  0.4528440000000 1.0
C      1  0.4994660000000  0.4706980000000  0.5883340000000 1.0
C      1  0.4243810000000  0.4722790000000  0.4560840000000 1.0
C      1  0.5767890000000  0.5275940000000  0.4524840000000 1.0
C      1  0.4983080000000  0.5337340000000  0.5934090000000 1.0
C      1  0.4173620000000  0.5319590000000  0.4534730000000 1.0
C      1  0.4809590000000  0.3775050000000  0.5093670000000 1.0
C      1  0.5065170000000  0.3784950000000  0.4804820000000 1.0
C      1  0.5097550000000  0.3789860000000  0.5090570000000 1.0
C      1  0.4809340000000  0.6240700000000  0.5094520000000 1.0
C      1  0.5067300000000  0.6223000000000  0.4807840000000 1.0
C      1  0.5095450000000  0.6220250000000  0.5094570000000 1.0
C      1  0.5375210000000  0.5316060000000  0.4204050000000 1.0
C      1  0.5493910000000  0.5390190000000  0.5753410000000 1.0
C      1  0.4090040000000  0.5370480000000  0.5075730000000 1.0
C      1  0.5395480000000  0.4634710000000  0.4164500000000 1.0
C      1  0.5501300000000  0.4638040000000  0.5728620000000 1.0
C      1  0.4139660000000  0.4684530000000  0.5065100000000 1.0
C      1  0.5198740000000  0.4840890000000  0.5209080000000 1.0
C      1  0.4770650000000  0.4894430000000  0.5024400000000 1.0
C      1  0.4999180000000  0.4828240000000  0.4816280000000 1.0
C      1  0.5154240000000  0.5140340000000  0.5094760000000 1.0
C      1  0.4814540000000  0.5191020000000  0.5105790000000 1.0
C      1  0.5105020000000  0.5111380000000  0.4778920000000 1.0
C      1  0.5870050000000  0.5337270000000  0.5407680000000 1.0
C      1  0.4201460000000  0.5335390000000  0.5599300000000 1.0
C      1  0.4892370000000  0.5301190000000  0.4045500000000 1.0
C      1  0.5882540000000  0.4674070000000  0.5398250000000 1.0
C      1  0.4221220000000  0.4706640000000  0.5583210000000 1.0
C      1  0.4886370000000  0.4673050000000  0.4023600000000 1.0
C      1  0.5168360000000  0.4768090000000  0.4031620000000 1.0
C      1  0.5754420000000  0.4754140000000  0.5648790000000 1.0
C      1  0.4084740000000  0.4795610000000  0.5331740000000 1.0
C      1  0.5171670000000  0.5212010000000  0.4023290000000 1.0
C      1  0.5739270000000  0.5260820000000  0.5656430000000 1.0
C      1  0.4083840000000  0.5238560000000  0.5339640000000 1.0
C      1  0.4972340000000  0.4420040000000  0.5824350000000 1.0
C      1  0.4285170000000  0.4427160000000  0.4557600000000 1.0
C      1  0.5765140000000  0.4395810000000  0.4582850000000 1.0
C      1  0.4955710000000  0.5629310000000  0.5875450000000 1.0
C      1  0.4274920000000  0.5600260000000  0.4556530000000 1.0
C      1  0.5730270000000  0.5564960000000  0.4599950000000 1.0
C      1  0.5995510000000  0.5259840000000  0.4940420000000 1.0
C      1  0.4496730000000  0.5161610000000  0.6049190000000 1.0
C      1  0.4403970000000  0.5253940000000  0.4080570000000 1.0
C      1  0.6082600000000  0.4755120000000  0.4957280000000 1.0
C      1  0.4514570000000  0.4838840000000  0.6019450000000 1.0
C      1  0.4379490000000  0.4739610000000  0.4087320000000 1.0
C      1  0.5051180000000  0.5711230000000  0.4788200000000 1.0
C      1  0.5170480000000  0.5699150000000  0.5182280000000 1.0
C      1  0.4766240000000  0.5710760000000  0.5089570000000 1.0
C      1  0.5067430000000  0.4300780000000  0.4744800000000 1.0
C      1  0.5189890000000  0.4310170000000  0.5140790000000 1.0
C      1  0.4787600000000  0.4300190000000  0.5049280000000 1.0
C      1  0.5404330000000  0.4454850000000  0.4989830000000 1.0
C      1  0.4807080000000  0.4470000000000  0.5296420000000 1.0
C      1  0.4825580000000  0.4437660000000  0.4630790000000 1.0
C      1  0.5382580000000  0.5550210000000  0.5032900000000 1.0
C      1  0.4782360000000  0.5577410000000  0.5357890000000 1.0
C      1  0.4820070000000  0.5547080000000  0.4683140000000 1.0
C      1  0.4576790000000  0.5657520000000  0.4133760000000 1.0
C      1  0.5943960000000  0.5677160000000  0.5069400000000 1.0
C      1  0.4441940000000  0.5684800000000  0.5812820000000 1.0
C      1  0.4577500000000  0.4331070000000  0.4135240000000 1.0
C      1  0.5961520000000  0.4336460000000  0.5059050000000 1.0
C      1  0.4462100000000  0.4357100000000  0.5798430000000 1.0
C      1  0.4843490000000  0.5578560000000  0.4098450000000 1.0
C      1  0.5841090000000  0.5612300000000  0.5323130000000 1.0
C      1  0.4268200000000  0.5617980000000  0.5601810000000 1.0
C      1  0.4846730000000  0.4394720000000  0.4085670000000 1.0
C      1  0.5861610000000  0.4398380000000  0.5314440000000 1.0
C      1  0.4290850000000  0.4425070000000  0.5587260000000 1.0
C      1  0.4455220000000  0.4248980000000  0.4374000000000 1.0
C      1  0.5834570000000  0.4234040000000  0.4829400000000 1.0
C      1  0.4723600000000  0.4257940000000  0.5782180000000 1.0
C      1  0.4461190000000  0.5748630000000  0.4372450000000 1.0
C      1  0.5813440000000  0.5753030000000  0.4832020000000 1.0
C      1  0.4704860000000  0.5783360000000  0.5804250000000 1.0
C      1  0.4897270000000  0.5273260000000  0.4608640000000 1.0
C      1  0.5420900000000  0.5281210000000  0.5125100000000 1.0
C      1  0.4689110000000  0.5302360000000  0.5339110000000 1.0
C      1  0.4899180000000  0.4713320000000  0.4563390000000 1.0
C      1  0.5452830000000  0.4721370000000  0.5099080000000 1.0
C      1  0.4704890000000  0.4738350000000  0.5280160000000 1.0
C      1  0.5087730000000  0.4495210000000  0.5355220000000 1.0
C      1  0.4640620000000  0.4462050000000  0.4853920000000 1.0
C      1  0.5319000000000  0.4477090000000  0.4706960000000 1.0
C      1  0.5068530000000  0.5543550000000  0.5424310000000 1.0
C      1  0.4611150000000  0.5522620000000  0.4894680000000 1.0
C      1  0.5287360000000  0.5540840000000  0.4760500000000 1.0
C      1  0.4532530000000  0.4071770000000  0.5334080000000 1.0
C      1  0.4961530000000  0.4034310000000  0.4406870000000 1.0
C      1  0.5522420000000  0.4031030000000  0.5225990000000 1.0
C      1  0.4513090000000  0.5967500000000  0.5345770000000 1.0
C      1  0.4945040000000  0.5943180000000  0.4426120000000 1.0
C      1  0.5511650000000  0.5978030000000  0.5234440000000 1.0
C      1  0.4653420000000  0.5132430000000  0.4019840000000 1.0
C      1  0.5961960000000  0.5144730000000  0.5201160000000 1.0
C      1  0.4435070000000  0.5181010000000  0.5746450000000 1.0
C      1  0.4650140000000  0.4850230000000  0.4130560000000 1.0
C      1  0.6019860000000  0.4857260000000  0.5214500000000 1.0
C      1  0.4465800000000  0.4868020000000  0.5713140000000 1.0
C      1  0.5617360000000  0.5169410000000  0.4927230000000 1.0
C      1  0.4788340000000  0.5164180000000  0.5577020000000 1.0
C      1  0.4628730000000  0.5151220000000  0.4559720000000 1.0
C      1  0.5589160000000  0.4854710000000  0.4870610000000 1.0
C      1  0.4746100000000  0.4851760000000  0.5556750000000 1.0
C      1  0.4653210000000  0.4854340000000  0.4461000000000 1.0
C      1  0.4813790000000  0.4851860000000  0.6073310000000 1.0
C      1  0.4240380000000  0.4862180000000  0.4305920000000 1.0
C      1  0.5989450000000  0.4840290000000  0.4701200000000 1.0
C      1  0.4801830000000  0.5165930000000  0.6100260000000 1.0
C      1  0.4268040000000  0.5152930000000  0.4307760000000 1.0
C      1  0.5975340000000  0.5134770000000  0.4679900000000 1.0
C      1  0.5230690000000  0.4986900000000  0.3875780000000 1.0
C      1  0.3919200000000  0.5016740000000  0.5353000000000 1.0
C      1  0.5793880000000  0.5007510000000  0.5743610000000 1.0
END
