TITL C-3578201-9217-451 -5.44702880496191e-06 125000 -675.847118571843 0 0 111 (C1) n - 1
REM
REM in /home/bkarasulu/work/CARBON/AIRSS/Generating-Clusters/EDIP-Nigel-Params/with-SteepDescent/Higher-Symm/SD-CG/HFTN-CG
REM
REM
REM
REM
REM
REM ./C.cell (12c818d87b63d06a65506943cc24bca4)
REM
REM compiler GCC version 9.2.1 20190827 (Red Hat 9.2.1-1)
REM options -cpp -mtune=generic -march=x86-64 -g -O0 -fpre-include=/usr/include/finclude/math-vector-fortran.h
REM seed 1574303469 960748254 -1576418510 1397813406 -1099205522 -2010793604 -1478927371 -1610876969 590055464 -443630958 -12823173 -1982438876 -1802832444 574684357 -514924318 1830936598 1555181238 1698749158 -1537421705 -742503253 1370671418 -399529479 -1328860031 2021580871 -1929964396 -1906619100 -985910742 900701593 1619124117 194368120 -1152589521 -1366928288 904768836
REM
CELL 1.54180   50.00000   50.00000   50.00000   90.00000   90.00000   90.00000
LATT -1
SFAC C  
C      1  0.4536630000000  0.4942320000000  0.5777390000000 1.0
C      1  0.5181790000000  0.5431130000000  0.5775670000000 1.0
C      1  0.5283260000000  0.4628110000000  0.5775010000000 1.0
C      1  0.5935220000000  0.4687750000000  0.4859340000000 1.0
C      1  0.4300880000000  0.4376750000000  0.4824790000000 1.0
C      1  0.4787900000000  0.5991790000000  0.4869530000000 1.0
C      1  0.4553170000000  0.4662890000000  0.5678400000000 1.0
C      1  0.4931350000000  0.5556270000000  0.5676970000000 1.0
C      1  0.5517310000000  0.4782190000000  0.5677410000000 1.0
C      1  0.5197510000000  0.4863730000000  0.4971620000000 1.0
C      1  0.4788500000000  0.4904300000000  0.4971160000000 1.0
C      1  0.5028530000000  0.5237880000000  0.4971810000000 1.0
C      1  0.4432780000000  0.4786820000000  0.4275640000000 1.0
C      1  0.5099960000000  0.5581630000000  0.4259360000000 1.0
C      1  0.5465970000000  0.4570400000000  0.4248310000000 1.0
C      1  0.4916060000000  0.5269530000000  0.4184660000000 1.0
C      1  0.5288650000000  0.4905590000000  0.4155300000000 1.0
C      1  0.4807320000000  0.4788570000000  0.4180310000000 1.0
C      1  0.4322130000000  0.4904160000000  0.4753980000000 1.0
C      1  0.5269090000000  0.5642840000000  0.4743130000000 1.0
C      1  0.5410860000000  0.4445590000000  0.4739410000000 1.0
C      1  0.5695480000000  0.5102190000000  0.4461360000000 1.0
C      1  0.4733570000000  0.4388860000000  0.4346670000000 1.0
C      1  0.4554130000000  0.5549900000000  0.4454160000000 1.0
C      1  0.5522190000000  0.5335620000000  0.4405530000000 1.0
C      1  0.5014550000000  0.4351610000000  0.4350560000000 1.0
C      1  0.4449370000000  0.5274700000000  0.4400710000000 1.0
C      1  0.4942890000000  0.4380470000000  0.5547370000000 1.0
C      1  0.4490490000000  0.5360890000000  0.5547350000000 1.0
C      1  0.5568120000000  0.5262770000000  0.5547740000000 1.0
C      1  0.5072070000000  0.4713530000000  0.4035160000000 1.0
C      1  0.4726020000000  0.5065970000000  0.4052090000000 1.0
C      1  0.5194630000000  0.5184840000000  0.4075740000000 1.0
C      1  0.4214560000000  0.4145390000000  0.4932780000000 1.0
C      1  0.4574820000000  0.6132640000000  0.4955170000000 1.0
C      1  0.6168730000000  0.4800660000000  0.4931910000000 1.0
C      1  0.4273270000000  0.4936410000000  0.5381310000000 1.0
C      1  0.5308980000000  0.5663060000000  0.5380080000000 1.0
C      1  0.5415870000000  0.4402640000000  0.5375840000000 1.0
C      1  0.4102150000000  0.5057000000000  0.4671660000000 1.0
C      1  0.5517320000000  0.5748680000000  0.4669590000000 1.0
C      1  0.5364920000000  0.4182960000000  0.4653980000000 1.0
C      1  0.5200920000000  0.4473190000000  0.4156030000000 1.0
C      1  0.4462290000000  0.5065920000000  0.4185540000000 1.0
C      1  0.5335990000000  0.5412520000000  0.4190540000000 1.0
C      1  0.5563670000000  0.5359620000000  0.5018800000000 1.0
C      1  0.5030600000000  0.4345280000000  0.5023730000000 1.0
C      1  0.4409400000000  0.5309820000000  0.5016700000000 1.0
C      1  0.4489100000000  0.4211400000000  0.4964360000000 1.0
C      1  0.4562670000000  0.5848770000000  0.4973730000000 1.0
C      1  0.5931140000000  0.4955230000000  0.4962560000000 1.0
C      1  0.4400290000000  0.4428930000000  0.5407130000000 1.0
C      1  0.4801180000000  0.5809500000000  0.5411800000000 1.0
C      1  0.5796510000000  0.4768160000000  0.5406750000000 1.0
C      1  0.5851830000000  0.5307180000000  0.5621770000000 1.0
C      1  0.4840550000000  0.4111810000000  0.5618980000000 1.0
C      1  0.4310630000000  0.5582490000000  0.5627030000000 1.0
C      1  0.4753750000000  0.5604840000000  0.4657140000000 1.0
C      1  0.5609560000000  0.4912150000000  0.4660550000000 1.0
C      1  0.4690480000000  0.4432830000000  0.4638330000000 1.0
C      1  0.5165620000000  0.4112840000000  0.5150080000000 1.0
C      1  0.4147880000000  0.5299070000000  0.5158280000000 1.0
C      1  0.5686600000000  0.5591820000000  0.5157430000000 1.0
C      1  0.4723600000000  0.5357300000000  0.5724830000000 1.0
C      1  0.5450480000000  0.5062290000000  0.5727240000000 1.0
C      1  0.4829020000000  0.4580860000000  0.5728480000000 1.0
C      1  0.4891240000000  0.5368940000000  0.5209000000000 1.0
C      1  0.5367740000000  0.4916820000000  0.5215950000000 1.0
C      1  0.4743050000000  0.4729050000000  0.5214360000000 1.0
C      1  0.4595710000000  0.5422460000000  0.5236990000000 1.0
C      1  0.5563550000000  0.5143830000000  0.5241280000000 1.0
C      1  0.4842230000000  0.4446950000000  0.5242620000000 1.0
C      1  0.4562410000000  0.5726810000000  0.5247920000000 1.0
C      1  0.5841230000000  0.5016550000000  0.5243000000000 1.0
C      1  0.4592240000000  0.4267390000000  0.5241910000000 1.0
C      1  0.5526230000000  0.4629390000000  0.4540830000000 1.0
C      1  0.4428390000000  0.4706830000000  0.4561140000000 1.0
C      1  0.5045250000000  0.5667420000000  0.4545880000000 1.0
C      1  0.5183200000000  0.5137380000000  0.5825630000000 1.0
C      1  0.5028580000000  0.4774560000000  0.5826180000000 1.0
C      1  0.4791220000000  0.5089210000000  0.5825750000000 1.0
C      1  0.5511230000000  0.4699700000000  0.5376540000000 1.0
C      1  0.4483800000000  0.4709790000000  0.5377730000000 1.0
C      1  0.5005040000000  0.5598580000000  0.5376050000000 1.0
C      1  0.4347100000000  0.5481840000000  0.4774600000000 1.0
C      1  0.5748130000000  0.5314880000000  0.4781340000000 1.0
C      1  0.4889910000000  0.4241700000000  0.4777890000000 1.0
C      1  0.4361110000000  0.5096900000000  0.5603310000000 1.0
C      1  0.5403540000000  0.5506670000000  0.5602530000000 1.0
C      1  0.5236190000000  0.4399290000000  0.5600700000000 1.0
C      1  0.4090260000000  0.5539030000000  0.5311390000000 1.0
C      1  0.5924920000000  0.5519990000000  0.5306910000000 1.0
C      1  0.4984210000000  0.3943630000000  0.5301060000000 1.0
C      1  0.4785260000000  0.4734150000000  0.4700620000000 1.0
C      1  0.4905810000000  0.5338090000000  0.4696480000000 1.0
C      1  0.5326040000000  0.4979700000000  0.4719340000000 1.0
C      1  0.4213570000000  0.5297700000000  0.4577270000000 1.0
C      1  0.5665540000000  0.5526430000000  0.4579740000000 1.0
C      1  0.5095240000000  0.4181940000000  0.4571200000000 1.0
C      1  0.4705480000000  0.4018910000000  0.5378240000000 1.0
C      1  0.4291620000000  0.5746610000000  0.5387570000000 1.0
C      1  0.6000630000000  0.5239430000000  0.5379870000000 1.0
C      1  0.4873060000000  0.5159850000000  0.4462430000000 1.0
C      1  0.5215740000000  0.4853490000000  0.4463630000000 1.0
C      1  0.4917100000000  0.4871920000000  0.4462340000000 1.0
C      1  0.5280480000000  0.5411900000000  0.4921150000000 1.0
C      1  0.5220190000000  0.4558200000000  0.4928520000000 1.0
C      1  0.4514680000000  0.5040250000000  0.4923890000000 1.0
C      1  0.4057350000000  0.5044390000000  0.5235640000000 1.0
C      1  0.5511570000000  0.5797210000000  0.5236920000000 1.0
C      1  0.5430240000000  0.4159410000000  0.5232890000000 1.0
END
