TITL C-3578196-9646-139 0.000806068452825478 125000 -130.646411062674 0 0 23 (C1) n - 1
REM
REM in /home/bkarasulu/work/CARBON/AIRSS/Generating-Clusters/EDIP-Nigel-Params/with-SteepDescent/Higher-Symm/SD-CG/HFTN-CG
REM
REM
REM
REM
REM
REM ./C.cell (12c818d87b63d06a65506943cc24bca4)
REM
REM compiler GCC version 9.2.1 20190827 (Red Hat 9.2.1-1)
REM options -cpp -mtune=generic -march=x86-64 -g -O0 -fpre-include=/usr/include/finclude/math-vector-fortran.h
REM seed -564093237 -265423419 -134649131 2008031948 915876140 -1444462870 393067217 2105292413 -879730116 887978103 1839449138 877650658 -1178018014 2141271598 -1141294046 1908174453 1217824862 1570434145 372814233 1244794665 1500538863 188173790 -960243574 303299455 -1384049477 1189352097 1546434892 1010326643 -639597958 1657672130 1482504734 -1239674898 -1587940240
REM
CELL 1.54180   50.00000   50.00000   50.00000   90.00000   90.00000   90.00000
LATT -1
SFAC C  
C      1  0.5152960000000  0.4856100000000  0.4597620000000 1.0
C      1  0.4923160000000  0.4876930000000  0.4465410000000 1.0
C      1  0.5347330000000  0.5033410000000  0.5419350000000 1.0
C      1  0.4652770000000  0.4889700000000  0.4522860000000 1.0
C      1  0.5695330000000  0.4824520000000  0.5098450000000 1.0
C      1  0.5515180000000  0.4805970000000  0.4900980000000 1.0
C      1  0.4569650000000  0.5080610000000  0.4740780000000 1.0
C      1  0.5078390000000  0.4988950000000  0.5069740000000 1.0
C      1  0.4343320000000  0.4807110000000  0.4898830000000 1.0
C      1  0.4374680000000  0.4557170000000  0.4773270000000 1.0
C      1  0.5182660000000  0.5510300000000  0.5494940000000 1.0
C      1  0.5269020000000  0.5295000000000  0.5328690000000 1.0
C      1  0.4770150000000  0.5312650000000  0.4773010000000 1.0
C      1  0.5585830000000  0.4934880000000  0.5317540000000 1.0
C      1  0.5251140000000  0.4867570000000  0.4853980000000 1.0
C      1  0.4900220000000  0.4773600000000  0.5356530000000 1.0
C      1  0.5427830000000  0.5524990000000  0.5385210000000 1.0
C      1  0.4985500000000  0.5272740000000  0.4987530000000 1.0
C      1  0.4919630000000  0.5530650000000  0.4884390000000 1.0
C      1  0.4822080000000  0.4813720000000  0.5089330000000 1.0
C      1  0.4517860000000  0.4646190000000  0.4560110000000 1.0
C      1  0.4573010000000  0.4947180000000  0.5023390000000 1.0
C      1  0.5142320000000  0.4850050000000  0.5458050000000 1.0
END
