TITL C-3578195-8548-723 1.32001351846949e-07 125000 -1080.42312078247 0 0 171 (C1) n - 1
REM
REM in /home/bkarasulu/work/CARBON/AIRSS/Generating-Clusters/EDIP-Nigel-Params/with-SteepDescent/Higher-Symm/SD-CG/HFTN-CG
REM
REM
REM
REM
REM
REM ./C.cell (12c818d87b63d06a65506943cc24bca4)
REM
REM compiler GCC version 9.2.1 20190827 (Red Hat 9.2.1-1)
REM options -cpp -mtune=generic -march=x86-64 -g -O0 -fpre-include=/usr/include/finclude/math-vector-fortran.h
REM seed -755328365 -1891472500 1254676880 2085103310 -1487363659 1122121128 -969246870 -908162342 1415627453 -200865661 -1936837439 285072790 -514504890 -121562449 -304142566 -1431809395 728542922 -487800907 2130362363 -718144120 -1742410352 546646126 -2122356533 139589785 -732292063 -77928104 1901128934 1108159135 1504316069 1315979046 1453820938 1402381594 1040890755
REM
CELL 1.54180   50.00000   50.00000   50.00000   90.00000   90.00000   90.00000
LATT -1
SFAC C  
C      1  0.5768510000000  0.5086050000000  0.4246460000000 1.0
C      1  0.5272110000000  0.5128050000000  0.6036000000000 1.0
C      1  0.3958380000000  0.5125060000000  0.4683040000000 1.0
C      1  0.4187010000000  0.4340540000000  0.4633110000000 1.0
C      1  0.5715900000000  0.4281630000000  0.4500270000000 1.0
C      1  0.5093600000000  0.4326860000000  0.5883210000000 1.0
C      1  0.5687980000000  0.5392540000000  0.5516690000000 1.0
C      1  0.4119840000000  0.5422100000000  0.5305490000000 1.0
C      1  0.5127020000000  0.5458600000000  0.4297240000000 1.0
C      1  0.6025250000000  0.4502610000000  0.4906930000000 1.0
C      1  0.4556190000000  0.4597870000000  0.5893620000000 1.0
C      1  0.4465650000000  0.4575640000000  0.4169450000000 1.0
C      1  0.5477510000000  0.4951630000000  0.5357130000000 1.0
C      1  0.4423070000000  0.4993630000000  0.5219620000000 1.0
C      1  0.5171980000000  0.4960050000000  0.4448710000000 1.0
C      1  0.4804540000000  0.4868130000000  0.4769690000000 1.0
C      1  0.5383930000000  0.4874040000000  0.4932370000000 1.0
C      1  0.4877970000000  0.4792340000000  0.5296760000000 1.0
C      1  0.4864580000000  0.5017210000000  0.5840680000000 1.0
C      1  0.4318400000000  0.4999500000000  0.4418100000000 1.0
C      1  0.5877600000000  0.4948490000000  0.4729790000000 1.0
C      1  0.4338960000000  0.5844070000000  0.5247560000000 1.0
C      1  0.5071230000000  0.5881700000000  0.4409640000000 1.0
C      1  0.5537920000000  0.5802930000000  0.5346600000000 1.0
C      1  0.4012830000000  0.5426580000000  0.5582010000000 1.0
C      1  0.5064650000000  0.5423770000000  0.3992610000000 1.0
C      1  0.5976760000000  0.5392520000000  0.5484010000000 1.0
C      1  0.5549990000000  0.5657460000000  0.4336200000000 1.0
C      1  0.5347660000000  0.5580080000000  0.5784780000000 1.0
C      1  0.4049120000000  0.5598730000000  0.4865460000000 1.0
C      1  0.4108870000000  0.5212520000000  0.4441930000000 1.0
C      1  0.5858760000000  0.5190060000000  0.4513540000000 1.0
C      1  0.4983470000000  0.5206540000000  0.6050100000000 1.0
C      1  0.4936690000000  0.4034480000000  0.5587970000000 1.0
C      1  0.4549560000000  0.4031980000000  0.4656970000000 1.0
C      1  0.5566610000000  0.3986360000000  0.4793500000000 1.0
C      1  0.5806340000000  0.4072270000000  0.4668530000000 1.0
C      1  0.4927750000000  0.4101230000000  0.5862960000000 1.0
C      1  0.4315960000000  0.4119140000000  0.4518720000000 1.0
C      1  0.5401520000000  0.5301920000000  0.5850200000000 1.0
C      1  0.4004640000000  0.5312360000000  0.4889180000000 1.0
C      1  0.5424860000000  0.5395070000000  0.4371020000000 1.0
C      1  0.4899330000000  0.4309170000000  0.5188040000000 1.0
C      1  0.5146100000000  0.4284810000000  0.4737180000000 1.0
C      1  0.5174920000000  0.4294520000000  0.5050630000000 1.0
C      1  0.4420720000000  0.5301010000000  0.5296500000000 1.0
C      1  0.5008660000000  0.5228300000000  0.4458770000000 1.0
C      1  0.5533800000000  0.5242670000000  0.5248900000000 1.0
C      1  0.5640810000000  0.5209700000000  0.5737700000000 1.0
C      1  0.3978220000000  0.5217960000000  0.5153630000000 1.0
C      1  0.5505510000000  0.5189170000000  0.4166960000000 1.0
C      1  0.5699040000000  0.4428700000000  0.5421430000000 1.0
C      1  0.4250090000000  0.4433870000000  0.5398420000000 1.0
C      1  0.5031710000000  0.4452880000000  0.4210540000000 1.0
C      1  0.4375310000000  0.4945150000000  0.5992780000000 1.0
C      1  0.4500430000000  0.4950190000000  0.3944690000000 1.0
C      1  0.6208660000000  0.4883380000000  0.5019890000000 1.0
C      1  0.5524900000000  0.4735260000000  0.5792070000000 1.0
C      1  0.4040720000000  0.4742480000000  0.5043700000000 1.0
C      1  0.5469950000000  0.4695870000000  0.4163350000000 1.0
C      1  0.5641250000000  0.4942060000000  0.5619950000000 1.0
C      1  0.4107300000000  0.4961160000000  0.5227040000000 1.0
C      1  0.5313570000000  0.4949080000000  0.4175950000000 1.0
C      1  0.5336520000000  0.4065970000000  0.4601500000000 1.0
C      1  0.5196900000000  0.4125620000000  0.5460200000000 1.0
C      1  0.4534140000000  0.4143780000000  0.4934410000000 1.0
C      1  0.5315740000000  0.4469130000000  0.4307580000000 1.0
C      1  0.5471690000000  0.4476140000000  0.5633270000000 1.0
C      1  0.4198230000000  0.4479930000000  0.5087720000000 1.0
C      1  0.5058490000000  0.5650950000000  0.5778630000000 1.0
C      1  0.4179110000000  0.5695720000000  0.4619750000000 1.0
C      1  0.5767790000000  0.5696610000000  0.4528850000000 1.0
C      1  0.4321290000000  0.4834470000000  0.4680490000000 1.0
C      1  0.5660080000000  0.4793680000000  0.4567850000000 1.0
C      1  0.5080550000000  0.4824960000000  0.5734360000000 1.0
C      1  0.4664670000000  0.4860650000000  0.6002390000000 1.0
C      1  0.4305310000000  0.4842230000000  0.4161210000000 1.0
C      1  0.6117560000000  0.4764060000000  0.4755090000000 1.0
C      1  0.6110900000000  0.5478590000000  0.4779980000000 1.0
C      1  0.4612950000000  0.5533900000000  0.6020560000000 1.0
C      1  0.4364140000000  0.5531890000000  0.4187660000000 1.0
C      1  0.5000180000000  0.5868880000000  0.4705890000000 1.0
C      1  0.5211900000000  0.5906710000000  0.5167290000000 1.0
C      1  0.4678740000000  0.5967090000000  0.5102390000000 1.0
C      1  0.4574580000000  0.5427280000000  0.5078380000000 1.0
C      1  0.4969450000000  0.5325140000000  0.4743120000000 1.0
C      1  0.5253700000000  0.5354850000000  0.5191090000000 1.0
C      1  0.4858790000000  0.5598600000000  0.4725060000000 1.0
C      1  0.5280620000000  0.5638240000000  0.5280050000000 1.0
C      1  0.4520500000000  0.5709780000000  0.5041790000000 1.0
C      1  0.4624660000000  0.4563970000000  0.4425840000000 1.0
C      1  0.5726300000000  0.4533980000000  0.4950010000000 1.0
C      1  0.4668870000000  0.4561680000000  0.5612970000000 1.0
C      1  0.5292370000000  0.4834770000000  0.5943160000000 1.0
C      1  0.4037610000000  0.4838350000000  0.4763500000000 1.0
C      1  0.5724470000000  0.4789620000000  0.4276770000000 1.0
C      1  0.4386510000000  0.5743740000000  0.5532070000000 1.0
C      1  0.4841600000000  0.5724520000000  0.4293940000000 1.0
C      1  0.5776440000000  0.5725890000000  0.5159150000000 1.0
C      1  0.4261400000000  0.4670200000000  0.5864860000000 1.0
C      1  0.4657810000000  0.4679170000000  0.3955050000000 1.0
C      1  0.6122180000000  0.4619300000000  0.5171090000000 1.0
C      1  0.5095780000000  0.4915900000000  0.3978810000000 1.0
C      1  0.5914970000000  0.4877380000000  0.5538060000000 1.0
C      1  0.4032700000000  0.4906120000000  0.5506230000000 1.0
C      1  0.5602670000000  0.4345470000000  0.5153100000000 1.0
C      1  0.4522230000000  0.4332100000000  0.5484290000000 1.0
C      1  0.4845520000000  0.4358800000000  0.4418010000000 1.0
C      1  0.5407590000000  0.4964990000000  0.4652780000000 1.0
C      1  0.5143570000000  0.4922080000000  0.5431280000000 1.0
C      1  0.4534250000000  0.4961450000000  0.4889800000000 1.0
C      1  0.4760970000000  0.4559580000000  0.5100790000000 1.0
C      1  0.4936620000000  0.4643560000000  0.4885510000000 1.0
C      1  0.5196830000000  0.4680090000000  0.5008670000000 1.0
C      1  0.4818610000000  0.4085580000000  0.4521100000000 1.0
C      1  0.5543510000000  0.4058160000000  0.5085790000000 1.0
C      1  0.4683430000000  0.4077980000000  0.5415680000000 1.0
C      1  0.5246870000000  0.5882630000000  0.4873340000000 1.0
C      1  0.4928620000000  0.5907640000000  0.5276350000000 1.0
C      1  0.4729810000000  0.6014860000000  0.4798580000000 1.0
C      1  0.4903960000000  0.5793070000000  0.5552240000000 1.0
C      1  0.4509100000000  0.5873970000000  0.4633750000000 1.0
C      1  0.5470540000000  0.5722400000000  0.4778450000000 1.0
C      1  0.4679850000000  0.5167370000000  0.4053730000000 1.0
C      1  0.6030130000000  0.5103700000000  0.5112100000000 1.0
C      1  0.4337610000000  0.5186710000000  0.5801050000000 1.0
C      1  0.5693590000000  0.5269270000000  0.4960040000000 1.0
C      1  0.4550170000000  0.5335530000000  0.5574280000000 1.0
C      1  0.4732950000000  0.5137770000000  0.4359760000000 1.0
C      1  0.4193100000000  0.4673280000000  0.5580380000000 1.0
C      1  0.4922900000000  0.4698670000000  0.4078610000000 1.0
C      1  0.5893730000000  0.4651010000000  0.5359070000000 1.0
C      1  0.4598020000000  0.5253740000000  0.4830810000000 1.0
C      1  0.5226700000000  0.5338430000000  0.4883870000000 1.0
C      1  0.5038320000000  0.5198340000000  0.5375830000000 1.0
C      1  0.4414930000000  0.4544020000000  0.4659620000000 1.0
C      1  0.5602310000000  0.4511870000000  0.4668200000000 1.0
C      1  0.4995300000000  0.4531900000000  0.5677690000000 1.0
C      1  0.4945470000000  0.5161870000000  0.3916750000000 1.0
C      1  0.6052460000000  0.5110620000000  0.5408290000000 1.0
C      1  0.4059420000000  0.5150510000000  0.5689340000000 1.0
C      1  0.5378120000000  0.4277030000000  0.5837710000000 1.0
C      1  0.4065980000000  0.4294860000000  0.4892480000000 1.0
C      1  0.5466440000000  0.4202920000000  0.4345500000000 1.0
C      1  0.4821460000000  0.5605170000000  0.4017010000000 1.0
C      1  0.6021510000000  0.5570800000000  0.5250710000000 1.0
C      1  0.4197410000000  0.5614840000000  0.5726100000000 1.0
C      1  0.4493300000000  0.4449570000000  0.4951480000000 1.0
C      1  0.5299810000000  0.4512700000000  0.4613410000000 1.0
C      1  0.5199870000000  0.4437730000000  0.5467430000000 1.0
C      1  0.5464900000000  0.5261060000000  0.4706760000000 1.0
C      1  0.4810610000000  0.5190220000000  0.5586770000000 1.0
C      1  0.4531360000000  0.5312120000000  0.4526110000000 1.0
C      1  0.5711550000000  0.5589470000000  0.4901940000000 1.0
C      1  0.4646610000000  0.5705740000000  0.5624850000000 1.0
C      1  0.4646740000000  0.5628860000000  0.4517440000000 1.0
C      1  0.4347550000000  0.5455020000000  0.5945500000000 1.0
C      1  0.4570510000000  0.5444650000000  0.4016140000000 1.0
C      1  0.6114620000000  0.5382790000000  0.5040220000000 1.0
C      1  0.4791700000000  0.4840010000000  0.4475470000000 1.0
C      1  0.5667590000000  0.4856290000000  0.5041940000000 1.0
C      1  0.4615590000000  0.4830070000000  0.5420350000000 1.0
C      1  0.4167860000000  0.5507280000000  0.4389680000000 1.0
C      1  0.5952650000000  0.5465190000000  0.4555320000000 1.0
C      1  0.4898250000000  0.5497880000000  0.5991980000000 1.0
C      1  0.5264530000000  0.4018290000000  0.5181500000000 1.0
C      1  0.4743000000000  0.4055560000000  0.5112230000000 1.0
C      1  0.5060760000000  0.3936740000000  0.4588800000000 1.0
C      1  0.5336750000000  0.5838530000000  0.4333220000000 1.0
C      1  0.5578400000000  0.5660390000000  0.5606060000000 1.0
C      1  0.4092570000000  0.5688030000000  0.5152950000000 1.0
END
