TITL C-3578206-1180-283 4.3463353247158e-07 125000 -214.223663541093 0 0 36 (C1) n - 1
REM
REM in /home/bkarasulu/work/CARBON/AIRSS/Generating-Clusters/EDIP-Nigel-Params/with-SteepDescent/Higher-Symm/SD-CG/HFTN-CG
REM
REM
REM
REM
REM
REM ./C.cell (12c818d87b63d06a65506943cc24bca4)
REM
REM compiler GCC version 9.2.1 20190827 (Red Hat 9.2.1-1)
REM options -cpp -mtune=generic -march=x86-64 -g -O0 -fpre-include=/usr/include/finclude/math-vector-fortran.h
REM seed -11682170 169726551 -620184315 1052212335 -1150143040 2103652656 1350636134 633422715 -870603315 1940673772 -197835012 350711705 962785584 -1774900419 996765775 260344451 553889837 -423439474 -1664248918 -1445726624 -1889824143 696651017 -1546104965 -1900149012 846502945 1026158255 -1957020528 -1854869474 1423797801 -201228382 -1098235063 303264332 1852500783
REM
CELL 1.54180   50.00000   50.00000   50.00000   90.00000   90.00000   90.00000
LATT -1
SFAC C  
C      1  0.5742840000000  0.4806630000000  0.5103880000000 1.0
C      1  0.5544400000000  0.5298570000000  0.5189870000000 1.0
C      1  0.5328700000000  0.5493840000000  0.5198600000000 1.0
C      1  0.4861440000000  0.5650700000000  0.5074480000000 1.0
C      1  0.4418880000000  0.5448660000000  0.5106670000000 1.0
C      1  0.4321290000000  0.4947780000000  0.5108020000000 1.0
C      1  0.4653580000000  0.4548540000000  0.5164790000000 1.0
C      1  0.4892440000000  0.4390530000000  0.5205260000000 1.0
C      1  0.5420170000000  0.4406210000000  0.5048860000000 1.0
C      1  0.4672730000000  0.4746200000000  0.4689160000000 1.0
C      1  0.4937970000000  0.4754400000000  0.4607550000000 1.0
C      1  0.5177220000000  0.4691580000000  0.4733150000000 1.0
C      1  0.5411870000000  0.4861500000000  0.4713000000000 1.0
C      1  0.5391890000000  0.5152520000000  0.4730120000000 1.0
C      1  0.5149440000000  0.5309530000000  0.4783480000000 1.0
C      1  0.4887670000000  0.5385910000000  0.4668110000000 1.0
C      1  0.4619240000000  0.5261730000000  0.4705430000000 1.0
C      1  0.4512790000000  0.4986700000000  0.4709060000000 1.0
C      1  0.4600390000000  0.4560730000000  0.4887050000000 1.0
C      1  0.4985790000000  0.4298740000000  0.4952200000000 1.0
C      1  0.5215730000000  0.4427280000000  0.4853510000000 1.0
C      1  0.5644640000000  0.4779970000000  0.4849650000000 1.0
C      1  0.5590360000000  0.5243090000000  0.4912490000000 1.0
C      1  0.5249170000000  0.5535690000000  0.4927550000000 1.0
C      1  0.4833200000000  0.5639550000000  0.4796770000000 1.0
C      1  0.4455570000000  0.5456600000000  0.4832540000000 1.0
C      1  0.4264540000000  0.4950680000000  0.4840940000000 1.0
C      1  0.5336970000000  0.4593380000000  0.5247260000000 1.0
C      1  0.5515090000000  0.4821660000000  0.5272300000000 1.0
C      1  0.5415400000000  0.5083730000000  0.5339280000000 1.0
C      1  0.5128890000000  0.5339330000000  0.5344240000000 1.0
C      1  0.4868070000000  0.5430700000000  0.5254380000000 1.0
C      1  0.4607790000000  0.5297370000000  0.5254560000000 1.0
C      1  0.4546720000000  0.5010100000000  0.5263970000000 1.0
C      1  0.4737200000000  0.4795560000000  0.5296840000000 1.0
C      1  0.5059880000000  0.4594330000000  0.5334970000000 1.0
END
