TITL C-3578204-4308-382 -1.79584146012269e-06 125000 -670.228695111424 0 0 109 (C1) n - 1
REM
REM in /home/bkarasulu/work/CARBON/AIRSS/Generating-Clusters/EDIP-Nigel-Params/with-SteepDescent/Higher-Symm/SD-CG/HFTN-CG
REM
REM
REM
REM
REM
REM ./C.cell (12c818d87b63d06a65506943cc24bca4)
REM
REM compiler GCC version 9.2.1 20190827 (Red Hat 9.2.1-1)
REM options -cpp -mtune=generic -march=x86-64 -g -O0 -fpre-include=/usr/include/finclude/math-vector-fortran.h
REM seed -188947704 -1807156979 -1017244498 1094077606 -742664141 -886440436 1969780472 -123280029 -1116677501 -1594817228 180341701 1356467542 1586273693 1047241820 54491622 -1469143674 1463491342 1561315283 -1196386674 -1801894435 -1532941060 -1896409830 -1913028171 727994357 -607380005 280777850 1386954717 -346748447 -1212713474 21302047 5489124 -1330176413 1405098223
REM
CELL 1.54180   50.00000   50.00000   50.00000   90.00000   90.00000   90.00000
LATT -1
SFAC C  
C      1  0.4667230000000  0.4840140000000  0.5866670000000 1.0
C      1  0.4881740000000  0.5904090000000  0.4571620000000 1.0
C      1  0.5838520000000  0.4515370000000  0.4827790000000 1.0
C      1  0.4672680000000  0.5242390000000  0.4181060000000 1.0
C      1  0.5456110000000  0.4825630000000  0.4166910000000 1.0
C      1  0.5493620000000  0.5189050000000  0.5834420000000 1.0
C      1  0.4806620000000  0.4098550000000  0.5505010000000 1.0
C      1  0.5092030000000  0.5783730000000  0.5420570000000 1.0
C      1  0.5098310000000  0.4167580000000  0.4600230000000 1.0
C      1  0.5816160000000  0.5418540000000  0.5086920000000 1.0
C      1  0.4176870000000  0.4508160000000  0.5144720000000 1.0
C      1  0.4195580000000  0.5347350000000  0.4866200000000 1.0
C      1  0.5454760000000  0.4884020000000  0.5802130000000 1.0
C      1  0.5182610000000  0.5889290000000  0.4633540000000 1.0
C      1  0.4117640000000  0.4478560000000  0.4841720000000 1.0
C      1  0.5542390000000  0.5106160000000  0.4200690000000 1.0
C      1  0.4593450000000  0.4947230000000  0.4161260000000 1.0
C      1  0.4646990000000  0.5152900000000  0.5886240000000 1.0
C      1  0.5104860000000  0.4141150000000  0.5406830000000 1.0
C      1  0.4805060000000  0.5775650000000  0.5364210000000 1.0
C      1  0.4807920000000  0.4074840000000  0.4511930000000 1.0
C      1  0.4188650000000  0.5302040000000  0.5165500000000 1.0
C      1  0.5854790000000  0.4606200000000  0.5107070000000 1.0
C      1  0.5838080000000  0.5422540000000  0.4795660000000 1.0
C      1  0.5186610000000  0.5164610000000  0.5227080000000 1.0
C      1  0.5041230000000  0.5116230000000  0.5483110000000 1.0
C      1  0.5151210000000  0.5423890000000  0.5088090000000 1.0
C      1  0.5484810000000  0.4759550000000  0.4922260000000 1.0
C      1  0.4566630000000  0.5113730000000  0.4906520000000 1.0
C      1  0.4658470000000  0.4653790000000  0.5136120000000 1.0
C      1  0.5150650000000  0.4923470000000  0.4547450000000 1.0
C      1  0.4695940000000  0.5206830000000  0.4654930000000 1.0
C      1  0.4675390000000  0.4826540000000  0.5400660000000 1.0
C      1  0.5223100000000  0.4662860000000  0.4695040000000 1.0
C      1  0.4865130000000  0.5441390000000  0.4748120000000 1.0
C      1  0.4952250000000  0.4524840000000  0.5119670000000 1.0
C      1  0.4633300000000  0.5290770000000  0.5152930000000 1.0
C      1  0.4698050000000  0.5149670000000  0.5410600000000 1.0
C      1  0.4853240000000  0.5470970000000  0.5051890000000 1.0
C      1  0.4570150000000  0.4813310000000  0.4875500000000 1.0
C      1  0.5512720000000  0.5060380000000  0.4826840000000 1.0
C      1  0.5416590000000  0.4711250000000  0.5277530000000 1.0
C      1  0.4831770000000  0.4926840000000  0.4604270000000 1.0
C      1  0.5304540000000  0.5156910000000  0.4646260000000 1.0
C      1  0.4967970000000  0.4809560000000  0.5506200000000 1.0
C      1  0.5047390000000  0.4721180000000  0.4928850000000 1.0
C      1  0.5182510000000  0.5421850000000  0.4714780000000 1.0
C      1  0.5135980000000  0.4602910000000  0.5360660000000 1.0
C      1  0.5780020000000  0.5134700000000  0.4708160000000 1.0
C      1  0.5165030000000  0.4902030000000  0.5908260000000 1.0
C      1  0.4690800000000  0.5832930000000  0.5093370000000 1.0
C      1  0.5880900000000  0.4913020000000  0.5017010000000 1.0
C      1  0.4247720000000  0.5032490000000  0.5279820000000 1.0
C      1  0.4249990000000  0.4807810000000  0.4829550000000 1.0
C      1  0.5166880000000  0.5157360000000  0.4128850000000 1.0
C      1  0.4799380000000  0.4788670000000  0.4317820000000 1.0
C      1  0.4901140000000  0.5326990000000  0.5899170000000 1.0
C      1  0.4723770000000  0.4087170000000  0.4816970000000 1.0
C      1  0.5311460000000  0.5892870000000  0.4898610000000 1.0
C      1  0.5211180000000  0.4171890000000  0.5116110000000 1.0
C      1  0.4177310000000  0.5089010000000  0.4695970000000 1.0
C      1  0.4947640000000  0.4732280000000  0.5793320000000 1.0
C      1  0.5274640000000  0.5671730000000  0.5207230000000 1.0
C      1  0.4130710000000  0.4815390000000  0.5125620000000 1.0
C      1  0.5771560000000  0.5143800000000  0.5179270000000 1.0
C      1  0.5933360000000  0.4740460000000  0.4671580000000 1.0
C      1  0.4957090000000  0.5320490000000  0.4232690000000 1.0
C      1  0.5163600000000  0.4884420000000  0.4234260000000 1.0
C      1  0.5138660000000  0.5188950000000  0.5775490000000 1.0
C      1  0.5020810000000  0.4157220000000  0.4891110000000 1.0
C      1  0.4710180000000  0.5708600000000  0.4726860000000 1.0
C      1  0.4757670000000  0.4215620000000  0.5235960000000 1.0
C      1  0.4511210000000  0.5296860000000  0.4423370000000 1.0
C      1  0.5101300000000  0.4444350000000  0.4504260000000 1.0
C      1  0.4479020000000  0.4400400000000  0.5150620000000 1.0
C      1  0.4481900000000  0.4772720000000  0.5635130000000 1.0
C      1  0.5669870000000  0.5304930000000  0.5644950000000 1.0
C      1  0.5612020000000  0.4645190000000  0.4315460000000 1.0
C      1  0.5130650000000  0.5698680000000  0.5685910000000 1.0
C      1  0.4771990000000  0.4257680000000  0.5735020000000 1.0
C      1  0.4832620000000  0.5806200000000  0.4310160000000 1.0
C      1  0.4348870000000  0.5598970000000  0.4798670000000 1.0
C      1  0.5567460000000  0.4411640000000  0.4805350000000 1.0
C      1  0.5652500000000  0.5647710000000  0.5166880000000 1.0
C      1  0.5773690000000  0.5091230000000  0.4386010000000 1.0
C      1  0.4683960000000  0.4266670000000  0.4338950000000 1.0
C      1  0.5609810000000  0.4481370000000  0.5243130000000 1.0
C      1  0.5516590000000  0.4888670000000  0.5506670000000 1.0
C      1  0.4501960000000  0.5227540000000  0.5637700000000 1.0
C      1  0.4327610000000  0.4900240000000  0.4250120000000 1.0
C      1  0.4664450000000  0.5635370000000  0.5571160000000 1.0
C      1  0.5178170000000  0.4383280000000  0.5558380000000 1.0
C      1  0.5231310000000  0.5632210000000  0.4498760000000 1.0
C      1  0.5697190000000  0.5648160000000  0.4697120000000 1.0
C      1  0.4266020000000  0.4269200000000  0.4728360000000 1.0
C      1  0.4403930000000  0.5489750000000  0.5240290000000 1.0
C      1  0.4990900000000  0.4429550000000  0.5782300000000 1.0
C      1  0.5029090000000  0.5602150000000  0.4282590000000 1.0
C      1  0.5485590000000  0.4280740000000  0.5056500000000 1.0
C      1  0.4418410000000  0.5719810000000  0.5054810000000 1.0
C      1  0.4274140000000  0.5123740000000  0.4415830000000 1.0
C      1  0.4847530000000  0.4492470000000  0.4364830000000 1.0
C      1  0.4500480000000  0.4265610000000  0.4880410000000 1.0
C      1  0.4305420000000  0.5009270000000  0.5568830000000 1.0
C      1  0.5700100000000  0.5101540000000  0.5453740000000 1.0
C      1  0.5823600000000  0.4803420000000  0.4414720000000 1.0
C      1  0.4879300000000  0.5589330000000  0.5759030000000 1.0
C      1  0.5583720000000  0.5784540000000  0.4918760000000 1.0
C      1  0.5122490000000  0.4957650000000  0.5053920000000 1.0
END
