TITL C-3578200-9634-716 1.25285489702156e-06 125000 -648.524805948963 0 0 105 (C1) n - 1
REM
REM in /home/bkarasulu/work/CARBON/AIRSS/Generating-Clusters/EDIP-Nigel-Params/with-SteepDescent/Higher-Symm/SD-CG/HFTN-CG
REM
REM
REM
REM
REM
REM ./C.cell (12c818d87b63d06a65506943cc24bca4)
REM
REM compiler GCC version 9.2.1 20190827 (Red Hat 9.2.1-1)
REM options -cpp -mtune=generic -march=x86-64 -g -O0 -fpre-include=/usr/include/finclude/math-vector-fortran.h
REM seed 36679289 -1719874467 219782999 997995333 -614255100 -1121363286 1075410840 1042487191 1789870789 1748330434 768535873 190670166 -1656503141 701212749 -34151455 -624215215 1050471237 1905405966 -7251167 -2012660988 -135097279 -69733409 -2084854962 616096060 -1449154875 -1234170829 2130374620 978922553 -1444185361 -1578523915 -1487598262 -303408881 640421950
REM
CELL 1.54180   50.00000   50.00000   50.00000   90.00000   90.00000   90.00000
LATT -1
SFAC C  
C      1  0.5584680000000  0.4338850000000  0.4873600000000 1.0
C      1  0.5575040000000  0.5218350000000  0.5617430000000 1.0
C      1  0.5577250000000  0.5436370000000  0.4518510000000 1.0
C      1  0.4296940000000  0.4718070000000  0.5399330000000 1.0
C      1  0.4294660000000  0.5503510000000  0.5060530000000 1.0
C      1  0.4286120000000  0.4793960000000  0.4512770000000 1.0
C      1  0.4400980000000  0.5448120000000  0.5593070000000 1.0
C      1  0.4390770000000  0.5284460000000  0.4322880000000 1.0
C      1  0.4409330000000  0.4289060000000  0.5093090000000 1.0
C      1  0.4913550000000  0.4201090000000  0.5206540000000 1.0
C      1  0.4911900000000  0.5575800000000  0.5596830000000 1.0
C      1  0.4906340000000  0.5220510000000  0.4212160000000 1.0
C      1  0.5573970000000  0.4709830000000  0.5558140000000 1.0
C      1  0.5571500000000  0.5643810000000  0.4984030000000 1.0
C      1  0.5580730000000  0.4648900000000  0.4458880000000 1.0
C      1  0.4555360000000  0.4582510000000  0.5390600000000 1.0
C      1  0.4548560000000  0.5574880000000  0.5195980000000 1.0
C      1  0.4542370000000  0.4873790000000  0.4386190000000 1.0
C      1  0.5142420000000  0.5425160000000  0.5705300000000 1.0
C      1  0.5137270000000  0.5392620000000  0.4291730000000 1.0
C      1  0.5145770000000  0.4209920000000  0.5019610000000 1.0
C      1  0.5139810000000  0.5227890000000  0.4903540000000 1.0
C      1  0.5151920000000  0.4720900000000  0.4789720000000 1.0
C      1  0.5165930000000  0.4969660000000  0.5263130000000 1.0
C      1  0.4668040000000  0.5437220000000  0.5685290000000 1.0
C      1  0.4655300000000  0.5365870000000  0.4271030000000 1.0
C      1  0.4672500000000  0.4208750000000  0.5037790000000 1.0
C      1  0.4628350000000  0.5834540000000  0.5292360000000 1.0
C      1  0.4626290000000  0.4840310000000  0.4113470000000 1.0
C      1  0.4617840000000  0.4354230000000  0.5554170000000 1.0
C      1  0.5454190000000  0.4948470000000  0.5143510000000 1.0
C      1  0.5441330000000  0.5221750000000  0.4963490000000 1.0
C      1  0.5437970000000  0.4829350000000  0.4836140000000 1.0
C      1  0.4514610000000  0.4839410000000  0.5032910000000 1.0
C      1  0.4520170000000  0.5136710000000  0.5162810000000 1.0
C      1  0.4516900000000  0.5047710000000  0.4786610000000 1.0
C      1  0.4349950000000  0.4528160000000  0.4671580000000 1.0
C      1  0.4370480000000  0.4977510000000  0.5550630000000 1.0
C      1  0.4349280000000  0.5495670000000  0.4761320000000 1.0
C      1  0.4895300000000  0.5778540000000  0.5382880000000 1.0
C      1  0.4894600000000  0.4940270000000  0.4126060000000 1.0
C      1  0.4891870000000  0.4308250000000  0.5478470000000 1.0
C      1  0.5003000000000  0.4859760000000  0.4577450000000 1.0
C      1  0.5007480000000  0.4724560000000  0.5277010000000 1.0
C      1  0.5003040000000  0.5397280000000  0.5093770000000 1.0
C      1  0.5894460000000  0.5348350000000  0.5247830000000 1.0
C      1  0.5883570000000  0.5035620000000  0.4602580000000 1.0
C      1  0.5884740000000  0.4630940000000  0.5160740000000 1.0
C      1  0.4581700000000  0.4959570000000  0.5800320000000 1.0
C      1  0.4555860000000  0.5692930000000  0.4656690000000 1.0
C      1  0.4575040000000  0.4328050000000  0.4560340000000 1.0
C      1  0.5428610000000  0.5347790000000  0.4279960000000 1.0
C      1  0.5437540000000  0.4167610000000  0.5068130000000 1.0
C      1  0.5431730000000  0.5468000000000  0.5678290000000 1.0
C      1  0.4745760000000  0.4715620000000  0.5826030000000 1.0
C      1  0.4720210000000  0.5827560000000  0.4857470000000 1.0
C      1  0.4732100000000  0.4427690000000  0.4337290000000 1.0
C      1  0.4737280000000  0.5454510000000  0.4977620000000 1.0
C      1  0.4732490000000  0.4735490000000  0.4576100000000 1.0
C      1  0.4764370000000  0.4786520000000  0.5445290000000 1.0
C      1  0.4738590000000  0.5585760000000  0.4444550000000 1.0
C      1  0.4750540000000  0.4201980000000  0.4761800000000 1.0
C      1  0.4749460000000  0.5200420000000  0.5831510000000 1.0
C      1  0.5044630000000  0.4188530000000  0.4741690000000 1.0
C      1  0.5046110000000  0.5183440000000  0.5839590000000 1.0
C      1  0.5036670000000  0.5624040000000  0.4439540000000 1.0
C      1  0.5501240000000  0.4244100000000  0.5340000000000 1.0
C      1  0.5494290000000  0.5679710000000  0.5495860000000 1.0
C      1  0.5503450000000  0.5083760000000  0.4199900000000 1.0
C      1  0.5772800000000  0.4754460000000  0.5369960000000 1.0
C      1  0.5787830000000  0.5481840000000  0.5042260000000 1.0
C      1  0.5789130000000  0.4785190000000  0.4582830000000 1.0
C      1  0.5819130000000  0.4453310000000  0.4971520000000 1.0
C      1  0.5816760000000  0.5247340000000  0.5483220000000 1.0
C      1  0.5809970000000  0.5291650000000  0.4570700000000 1.0
C      1  0.4236530000000  0.5298850000000  0.4560770000000 1.0
C      1  0.4257660000000  0.4486250000000  0.4960800000000 1.0
C      1  0.4239440000000  0.5242260000000  0.5485370000000 1.0
C      1  0.5014700000000  0.5165400000000  0.4638570000000 1.0
C      1  0.4970330000000  0.4585930000000  0.4998540000000 1.0
C      1  0.5009210000000  0.5223010000000  0.5347310000000 1.0
C      1  0.5387900000000  0.4489170000000  0.5460940000000 1.0
C      1  0.5388060000000  0.5670990000000  0.5224010000000 1.0
C      1  0.5391440000000  0.4855080000000  0.4340210000000 1.0
C      1  0.5114380000000  0.4745870000000  0.4216210000000 1.0
C      1  0.5117420000000  0.4459030000000  0.5606830000000 1.0
C      1  0.5113000000000  0.5804900000000  0.5178160000000 1.0
C      1  0.5175220000000  0.5703210000000  0.4683060000000 1.0
C      1  0.5181510000000  0.4353690000000  0.4544300000000 1.0
C      1  0.5187310000000  0.4932760000000  0.5785820000000 1.0
C      1  0.4170950000000  0.5027050000000  0.4656900000000 1.0
C      1  0.4175790000000  0.4710600000000  0.5131890000000 1.0
C      1  0.4173880000000  0.5277690000000  0.5202200000000 1.0
C      1  0.5386980000000  0.5046170000000  0.4594050000000 1.0
C      1  0.5345930000000  0.4579160000000  0.5158760000000 1.0
C      1  0.5361630000000  0.5364640000000  0.5259450000000 1.0
C      1  0.5014080000000  0.4486240000000  0.4340130000000 1.0
C      1  0.5030280000000  0.4685750000000  0.5778920000000 1.0
C      1  0.5006020000000  0.5796760000000  0.4901910000000 1.0
C      1  0.5452920000000  0.4442310000000  0.4625250000000 1.0
C      1  0.5456430000000  0.4952800000000  0.5673320000000 1.0
C      1  0.5444280000000  0.5596340000000  0.4726430000000 1.0
C      1  0.4713670000000  0.5098210000000  0.5406610000000 1.0
C      1  0.4723670000000  0.5286090000000  0.4697870000000 1.0
C      1  0.4671680000000  0.4619600000000  0.4873490000000 1.0
END
