TITL C-3577087-600-269 -2.76379647430425e-08 125000 -1163.0915979926 0 0 185 (C1) n - 1
REM
REM in /home/bkarasulu/work/CARBON/AIRSS/Generating-Clusters/EDIP-Nigel-Params/with-SteepDescent/Higher-Symm/SD-CG/HFTN-CG
REM
REM
REM
REM
REM
REM ./C.cell (12c818d87b63d06a65506943cc24bca4)
REM
REM compiler GCC version 9.2.1 20190827 (Red Hat 9.2.1-1)
REM options -cpp -mtune=generic -march=x86-64 -g -O0 -fpre-include=/usr/include/finclude/math-vector-fortran.h
REM seed -1943560242 1933764188 -203118466 -1018388075 552972815 551708023 -631112335 -2034482545 -1161479845 -1919204517 1655091009 -1503526445 -1329783711 -2084887443 -2066366263 -60786156 1779869056 -1007181161 -1310138162 961778035 650388291 1148887238 -2029160032 -1959092328 932406757 1454298163 -880582367 -918269554 -232458912 984788681 -1745832671 -1102170337 -1930512926
REM
CELL 1.54180   50.00000   50.00000   50.00000   90.00000   90.00000   90.00000
LATT -1
SFAC C  
C      1  0.4210110000000  0.4176490000000  0.4464480000000 1.0
C      1  0.4242270000000  0.5756140000000  0.5503070000000 1.0
C      1  0.5049630000000  0.5780030000000  0.4639740000000 1.0
C      1  0.5055240000000  0.4236710000000  0.5322580000000 1.0
C      1  0.5617790000000  0.5972820000000  0.5322230000000 1.0
C      1  0.5565570000000  0.4054530000000  0.4701940000000 1.0
C      1  0.5379920000000  0.4599110000000  0.5994720000000 1.0
C      1  0.5408250000000  0.5412140000000  0.3957670000000 1.0
C      1  0.4230980000000  0.4728690000000  0.4280540000000 1.0
C      1  0.4331220000000  0.5197100000000  0.5666740000000 1.0
C      1  0.5194610000000  0.4980520000000  0.3862450000000 1.0
C      1  0.5210670000000  0.5026050000000  0.6148640000000 1.0
C      1  0.4970320000000  0.4361100000000  0.6017390000000 1.0
C      1  0.5011570000000  0.5693010000000  0.3918460000000 1.0
C      1  0.5600910000000  0.4211520000000  0.5606370000000 1.0
C      1  0.5635590000000  0.5810470000000  0.4383830000000 1.0
C      1  0.4096470000000  0.4408530000000  0.5192720000000 1.0
C      1  0.4228780000000  0.5456010000000  0.4814550000000 1.0
C      1  0.4538930000000  0.4037150000000  0.5214180000000 1.0
C      1  0.4633250000000  0.5935060000000  0.4811970000000 1.0
C      1  0.5454410000000  0.4237830000000  0.5170270000000 1.0
C      1  0.5436490000000  0.5798560000000  0.4830840000000 1.0
C      1  0.4490600000000  0.5745950000000  0.5630900000000 1.0
C      1  0.4452960000000  0.4191070000000  0.4325810000000 1.0
C      1  0.5648690000000  0.4489050000000  0.5481990000000 1.0
C      1  0.5658040000000  0.5537130000000  0.4517680000000 1.0
C      1  0.5350710000000  0.4555820000000  0.5359780000000 1.0
C      1  0.5360510000000  0.5478070000000  0.4622970000000 1.0
C      1  0.4293900000000  0.4910390000000  0.5696700000000 1.0
C      1  0.4351320000000  0.5002610000000  0.4261910000000 1.0
C      1  0.5769450000000  0.4084160000000  0.4898940000000 1.0
C      1  0.5796400000000  0.5920230000000  0.5112150000000 1.0
C      1  0.5235130000000  0.5603610000000  0.4109520000000 1.0
C      1  0.5196250000000  0.4432510000000  0.5832570000000 1.0
C      1  0.4764500000000  0.5368130000000  0.5347710000000 1.0
C      1  0.4569770000000  0.4627980000000  0.4660950000000 1.0
C      1  0.5865130000000  0.5177960000000  0.5360090000000 1.0
C      1  0.5894140000000  0.4848270000000  0.4632660000000 1.0
C      1  0.5862470000000  0.4762160000000  0.5164380000000 1.0
C      1  0.5869530000000  0.5264030000000  0.4827360000000 1.0
C      1  0.5711720000000  0.5571970000000  0.5693880000000 1.0
C      1  0.5661810000000  0.4468800000000  0.4373950000000 1.0
C      1  0.5826770000000  0.4470580000000  0.5227860000000 1.0
C      1  0.5822170000000  0.5557040000000  0.4774510000000 1.0
C      1  0.5199140000000  0.4043120000000  0.5506940000000 1.0
C      1  0.5224200000000  0.5960350000000  0.4453470000000 1.0
C      1  0.4457970000000  0.6211760000000  0.5194530000000 1.0
C      1  0.4710740000000  0.3762920000000  0.4911650000000 1.0
C      1  0.4611210000000  0.5697220000000  0.4992800000000 1.0
C      1  0.4526770000000  0.4288670000000  0.5033860000000 1.0
C      1  0.4693930000000  0.4730200000000  0.6089440000000 1.0
C      1  0.4715280000000  0.5324850000000  0.3967710000000 1.0
C      1  0.5023560000000  0.4944260000000  0.5690300000000 1.0
C      1  0.5058430000000  0.5164660000000  0.4273870000000 1.0
C      1  0.4834610000000  0.4640230000000  0.5059040000000 1.0
C      1  0.4819900000000  0.5097410000000  0.4816050000000 1.0
C      1  0.6035730000000  0.4864770000000  0.4939370000000 1.0
C      1  0.6029990000000  0.5163390000000  0.5064710000000 1.0
C      1  0.4397260000000  0.4852990000000  0.5084390000000 1.0
C      1  0.4457930000000  0.5123740000000  0.5148080000000 1.0
C      1  0.5096530000000  0.5679070000000  0.5168020000000 1.0
C      1  0.4995920000000  0.4445740000000  0.4880090000000 1.0
C      1  0.4693760000000  0.4346700000000  0.4761970000000 1.0
C      1  0.4805400000000  0.5662790000000  0.5233310000000 1.0
C      1  0.3987080000000  0.5110330000000  0.5088800000000 1.0
C      1  0.4103420000000  0.4845130000000  0.5005420000000 1.0
C      1  0.4692390000000  0.5934300000000  0.5545800000000 1.0
C      1  0.4667600000000  0.4043400000000  0.4453680000000 1.0
C      1  0.4806190000000  0.5502590000000  0.5939170000000 1.0
C      1  0.4765580000000  0.4478750000000  0.4032540000000 1.0
C      1  0.4979540000000  0.4386870000000  0.4231090000000 1.0
C      1  0.5041060000000  0.5628790000000  0.5777620000000 1.0
C      1  0.4498090000000  0.4406160000000  0.4133430000000 1.0
C      1  0.4541150000000  0.5549690000000  0.5835080000000 1.0
C      1  0.4560840000000  0.5880750000000  0.4511850000000 1.0
C      1  0.4478360000000  0.4090100000000  0.5520840000000 1.0
C      1  0.4826970000000  0.3895230000000  0.5170400000000 1.0
C      1  0.4926850000000  0.6014310000000  0.4806480000000 1.0
C      1  0.4811500000000  0.4770390000000  0.3940350000000 1.0
C      1  0.4826280000000  0.5231190000000  0.6065910000000 1.0
C      1  0.5885480000000  0.4673600000000  0.4379680000000 1.0
C      1  0.5886350000000  0.5334150000000  0.5630250000000 1.0
C      1  0.5974750000000  0.5141350000000  0.4568660000000 1.0
C      1  0.5950420000000  0.4888530000000  0.5420640000000 1.0
C      1  0.5680540000000  0.5713430000000  0.4969070000000 1.0
C      1  0.5690790000000  0.4326940000000  0.5022870000000 1.0
C      1  0.5785610000000  0.5107580000000  0.4108000000000 1.0
C      1  0.5772330000000  0.4890640000000  0.5883710000000 1.0
C      1  0.4940550000000  0.5431310000000  0.3789250000000 1.0
C      1  0.4932810000000  0.4589010000000  0.6195540000000 1.0
C      1  0.4683300000000  0.5275940000000  0.4574460000000 1.0
C      1  0.4629530000000  0.4508220000000  0.5240090000000 1.0
C      1  0.4973010000000  0.5203110000000  0.5510980000000 1.0
C      1  0.4743160000000  0.4770360000000  0.4469460000000 1.0
C      1  0.5203630000000  0.4732410000000  0.6201030000000 1.0
C      1  0.5208040000000  0.5268930000000  0.3774620000000 1.0
C      1  0.5504390000000  0.5210220000000  0.4159070000000 1.0
C      1  0.5488080000000  0.4809430000000  0.5817570000000 1.0
C      1  0.4255290000000  0.5548110000000  0.5311690000000 1.0
C      1  0.4147360000000  0.4367430000000  0.4661220000000 1.0
C      1  0.5279450000000  0.5028200000000  0.5855970000000 1.0
C      1  0.5268030000000  0.5010920000000  0.4158040000000 1.0
C      1  0.5397260000000  0.5911290000000  0.5703930000000 1.0
C      1  0.5365010000000  0.4143710000000  0.4322220000000 1.0
C      1  0.4325400000000  0.5629380000000  0.5032080000000 1.0
C      1  0.4233660000000  0.4306350000000  0.4952280000000 1.0
C      1  0.5263420000000  0.4762720000000  0.4338560000000 1.0
C      1  0.5371910000000  0.5288260000000  0.5746030000000 1.0
C      1  0.5531830000000  0.5737100000000  0.5496300000000 1.0
C      1  0.5512950000000  0.4344040000000  0.4618540000000 1.0
C      1  0.3806570000000  0.5068900000000  0.5308770000000 1.0
C      1  0.4092700000000  0.4835440000000  0.4717040000000 1.0
C      1  0.4545140000000  0.4763210000000  0.5732310000000 1.0
C      1  0.4640280000000  0.5032000000000  0.4360580000000 1.0
C      1  0.4781570000000  0.4970140000000  0.5893520000000 1.0
C      1  0.4810530000000  0.5081690000000  0.4122720000000 1.0
C      1  0.5503820000000  0.5988310000000  0.4606270000000 1.0
C      1  0.5524650000000  0.4031060000000  0.5376320000000 1.0
C      1  0.5333270000000  0.4185600000000  0.5742950000000 1.0
C      1  0.5379470000000  0.5840410000000  0.4209790000000 1.0
C      1  0.5505370000000  0.5498350000000  0.5905770000000 1.0
C      1  0.5441230000000  0.4561460000000  0.4195130000000 1.0
C      1  0.4014880000000  0.5097850000000  0.4611880000000 1.0
C      1  0.3892300000000  0.4807570000000  0.5395520000000 1.0
C      1  0.4642210000000  0.4802060000000  0.4901960000000 1.0
C      1  0.4734520000000  0.5194340000000  0.5091420000000 1.0
C      1  0.4345290000000  0.5359650000000  0.5895930000000 1.0
C      1  0.4278850000000  0.4559720000000  0.4059800000000 1.0
C      1  0.4846230000000  0.4397260000000  0.5456930000000 1.0
C      1  0.4874730000000  0.5574080000000  0.4477450000000 1.0
C      1  0.5189860000000  0.6046330000000  0.5537870000000 1.0
C      1  0.5170420000000  0.4023290000000  0.4497290000000 1.0
C      1  0.4720530000000  0.4274520000000  0.5894220000000 1.0
C      1  0.4767620000000  0.5799260000000  0.4052740000000 1.0
C      1  0.5131340000000  0.5445300000000  0.4360980000000 1.0
C      1  0.5093210000000  0.4598720000000  0.5577900000000 1.0
C      1  0.5294100000000  0.5549260000000  0.5351850000000 1.0
C      1  0.5289850000000  0.4579260000000  0.4832350000000 1.0
C      1  0.4608910000000  0.5564130000000  0.4129180000000 1.0
C      1  0.4494800000000  0.4476460000000  0.5866160000000 1.0
C      1  0.5303440000000  0.4823820000000  0.4644820000000 1.0
C      1  0.5400690000000  0.5338110000000  0.5178580000000 1.0
C      1  0.5262320000000  0.4333480000000  0.4133420000000 1.0
C      1  0.5297550000000  0.5723370000000  0.5916510000000 1.0
C      1  0.4203470000000  0.5207910000000  0.4411530000000 1.0
C      1  0.4182830000000  0.4783950000000  0.5465520000000 1.0
C      1  0.5285670000000  0.3987970000000  0.4763580000000 1.0
C      1  0.5337220000000  0.6080110000000  0.5260790000000 1.0
C      1  0.5159030000000  0.5415290000000  0.5591270000000 1.0
C      1  0.4995540000000  0.4641800000000  0.4375800000000 1.0
C      1  0.5207920000000  0.5912080000000  0.5028880000000 1.0
C      1  0.5100760000000  0.4195890000000  0.5022210000000 1.0
C      1  0.4796880000000  0.5930000000000  0.4324220000000 1.0
C      1  0.4748600000000  0.4146730000000  0.5630830000000 1.0
C      1  0.4925260000000  0.4169940000000  0.4435700000000 1.0
C      1  0.4966850000000  0.5856060000000  0.5593750000000 1.0
C      1  0.4333700000000  0.4334480000000  0.5628010000000 1.0
C      1  0.4450700000000  0.5631300000000  0.4385460000000 1.0
C      1  0.4944570000000  0.3906450000000  0.5596950000000 1.0
C      1  0.5000640000000  0.6160520000000  0.4395650000000 1.0
C      1  0.5565920000000  0.5132590000000  0.5302100000000 1.0
C      1  0.5590930000000  0.4906310000000  0.4658720000000 1.0
C      1  0.5868480000000  0.5150280000000  0.5842190000000 1.0
C      1  0.5864370000000  0.4843870000000  0.4157570000000 1.0
C      1  0.4877890000000  0.3725500000000  0.5393630000000 1.0
C      1  0.4951470000000  0.6262930000000  0.4653630000000 1.0
C      1  0.5590780000000  0.4908580000000  0.5106160000000 1.0
C      1  0.5600700000000  0.5103990000000  0.4859150000000 1.0
C      1  0.4382630000000  0.5399190000000  0.4558720000000 1.0
C      1  0.4299380000000  0.4515770000000  0.5391650000000 1.0
C      1  0.5837270000000  0.4718410000000  0.5640590000000 1.0
C      1  0.5840410000000  0.5298040000000  0.4350080000000 1.0
C      1  0.5360410000000  0.4714560000000  0.5104700000000 1.0
C      1  0.5337480000000  0.5267060000000  0.4858130000000 1.0
C      1  0.5022900000000  0.5199580000000  0.6261890000000 1.0
C      1  0.5005820000000  0.4808800000000  0.3746280000000 1.0
C      1  0.4418020000000  0.5307400000000  0.5394490000000 1.0
C      1  0.4258870000000  0.4636060000000  0.4573510000000 1.0
C      1  0.4659390000000  0.6035430000000  0.5275820000000 1.0
C      1  0.4585760000000  0.3969780000000  0.4729200000000 1.0
C      1  0.4433410000000  0.3794550000000  0.5047470000000 1.0
C      1  0.4480450000000  0.6154600000000  0.4928210000000 1.0
C      1  0.3917350000000  0.4633690000000  0.5144040000000 1.0
C      1  0.3987380000000  0.5286970000000  0.4847890000000 1.0
C      1  0.5130910000000  0.5056260000000  0.4780000000000 1.0
END
