TITL C-3577090-796-690 4.5466417049384e-07 125000 -270.469778669476 0 0 45 (C1) n - 1
REM
REM in /home/bkarasulu/work/CARBON/AIRSS/Generating-Clusters/EDIP-Nigel-Params/with-SteepDescent/Higher-Symm/SD-CG/HFTN-CG
REM
REM
REM
REM
REM
REM ./C.cell (12c818d87b63d06a65506943cc24bca4)
REM
REM compiler GCC version 9.2.1 20190827 (Red Hat 9.2.1-1)
REM options -cpp -mtune=generic -march=x86-64 -g -O0 -fpre-include=/usr/include/finclude/math-vector-fortran.h
REM seed 7558085 -1825387599 -1092076763 779105796 -485959676 1952322078 -633658054 -214377712 1425744717 503248577 -1219744221 -373874388 -834011549 2137144259 591262504 1318516220 205294580 -1198437805 1397607685 -1270434227 -2122348193 1695803423 -195380669 -1934570293 -1286219940 1857870731 -1521200518 614610382 -2143788168 -184740815 -563517373 1429173855 1750308517
REM
CELL 1.54180   50.00000   50.00000   50.00000   90.00000   90.00000   90.00000
LATT -1
SFAC C  
C      1  0.5414070000000  0.4677180000000  0.5180310000000 1.0
C      1  0.5248220000000  0.4551090000000  0.5382090000000 1.0
C      1  0.5240150000000  0.4493100000000  0.4816180000000 1.0
C      1  0.5126990000000  0.5200860000000  0.4515170000000 1.0
C      1  0.5058070000000  0.5848520000000  0.5009460000000 1.0
C      1  0.4613120000000  0.5344860000000  0.5275340000000 1.0
C      1  0.5151090000000  0.5475350000000  0.5307240000000 1.0
C      1  0.5567330000000  0.4805310000000  0.4637300000000 1.0
C      1  0.4805790000000  0.4828470000000  0.4550510000000 1.0
C      1  0.5054020000000  0.5204780000000  0.5386250000000 1.0
C      1  0.5231250000000  0.5297810000000  0.4769860000000 1.0
C      1  0.4373210000000  0.4748710000000  0.5102250000000 1.0
C      1  0.5022880000000  0.5563890000000  0.5055100000000 1.0
C      1  0.4564860000000  0.4970020000000  0.5210050000000 1.0
C      1  0.4536780000000  0.4401920000000  0.4793840000000 1.0
C      1  0.5496140000000  0.5198920000000  0.5439140000000 1.0
C      1  0.4654380000000  0.4941760000000  0.5508500000000 1.0
C      1  0.4326200000000  0.4823880000000  0.4812540000000 1.0
C      1  0.4770850000000  0.5223100000000  0.5495510000000 1.0
C      1  0.4606480000000  0.5431170000000  0.4792570000000 1.0
C      1  0.5437970000000  0.5456690000000  0.5319210000000 1.0
C      1  0.4727690000000  0.5487260000000  0.5048900000000 1.0
C      1  0.5294720000000  0.4799950000000  0.4740300000000 1.0
C      1  0.4967430000000  0.4420890000000  0.4893210000000 1.0
C      1  0.4542010000000  0.4498570000000  0.5080750000000 1.0
C      1  0.4958060000000  0.4559670000000  0.5377660000000 1.0
C      1  0.4916650000000  0.5352730000000  0.4406510000000 1.0
C      1  0.4833670000000  0.4591440000000  0.5100560000000 1.0
C      1  0.4730450000000  0.5005650000000  0.4766790000000 1.0
C      1  0.4444470000000  0.5083290000000  0.4764280000000 1.0
C      1  0.5356840000000  0.5544930000000  0.4775420000000 1.0
C      1  0.4482380000000  0.4642620000000  0.4645960000000 1.0
C      1  0.5641040000000  0.4849780000000  0.5112430000000 1.0
C      1  0.5091710000000  0.4902070000000  0.4526240000000 1.0
C      1  0.5260630000000  0.5096890000000  0.5565260000000 1.0
C      1  0.5052740000000  0.5040870000000  0.5138060000000 1.0
C      1  0.4810040000000  0.4901410000000  0.5042290000000 1.0
C      1  0.4731730000000  0.5484870000000  0.4552000000000 1.0
C      1  0.4836470000000  0.4735070000000  0.5557970000000 1.0
C      1  0.5404230000000  0.4430230000000  0.5044920000000 1.0
C      1  0.5547240000000  0.5131490000000  0.5135450000000 1.0
C      1  0.5732920000000  0.4802170000000  0.4852490000000 1.0
C      1  0.4787270000000  0.4288320000000  0.4718950000000 1.0
C      1  0.5264250000000  0.5793760000000  0.4838310000000 1.0
C      1  0.5285510000000  0.5068690000000  0.4956870000000 1.0
END
