TITL C-3577090-796-412 -3.70698854298202e-06 125000 -498.739254837543 0 0 83 (C1) n - 1
REM
REM in /home/bkarasulu/work/CARBON/AIRSS/Generating-Clusters/EDIP-Nigel-Params/with-SteepDescent/Higher-Symm/SD-CG/HFTN-CG
REM
REM
REM
REM
REM
REM ./C.cell (12c818d87b63d06a65506943cc24bca4)
REM
REM compiler GCC version 9.2.1 20190827 (Red Hat 9.2.1-1)
REM options -cpp -mtune=generic -march=x86-64 -g -O0 -fpre-include=/usr/include/finclude/math-vector-fortran.h
REM seed -167158136 1844625884 544627455 -747586011 1652279240 -1274237975 -1819408162 -494134174 -1568859336 1380676710 -853484049 -1258668765 1478220236 -1508497868 217035832 -1966718490 545405349 1212668699 -1023756332 183238505 -2076653712 1666244685 -1302425043 339374305 -1296537612 1390687349 -1575515654 -623983354 -695057225 451886070 939710691 2104948941 746099608
REM
CELL 1.54180   50.00000   50.00000   50.00000   90.00000   90.00000   90.00000
LATT -1
SFAC C  
C      1  0.4546330000000  0.5601130000000  0.4576220000000 1.0
C      1  0.5581900000000  0.5603680000000  0.5215360000000 1.0
C      1  0.4432100000000  0.4398300000000  0.4736220000000 1.0
C      1  0.5445440000000  0.4408070000000  0.5389310000000 1.0
C      1  0.4581070000000  0.5534020000000  0.5460280000000 1.0
C      1  0.5390850000000  0.5562410000000  0.4627170000000 1.0
C      1  0.4429480000000  0.4373810000000  0.5271850000000 1.0
C      1  0.5540480000000  0.4397300000000  0.4782970000000 1.0
C      1  0.5318200000000  0.4880120000000  0.4060420000000 1.0
C      1  0.4760600000000  0.4782540000000  0.5959050000000 1.0
C      1  0.5321600000000  0.5152100000000  0.4082310000000 1.0
C      1  0.4763920000000  0.5054880000000  0.5960220000000 1.0
C      1  0.5311700000000  0.4899140000000  0.5894060000000 1.0
C      1  0.4674860000000  0.4900110000000  0.4057990000000 1.0
C      1  0.5233030000000  0.5152380000000  0.5972050000000 1.0
C      1  0.4740080000000  0.5162670000000  0.4064620000000 1.0
C      1  0.4359220000000  0.5115920000000  0.4529830000000 1.0
C      1  0.5663410000000  0.5136600000000  0.5391860000000 1.0
C      1  0.4427840000000  0.4845740000000  0.4486160000000 1.0
C      1  0.5571210000000  0.4884420000000  0.5475130000000 1.0
C      1  0.4514490000000  0.5069860000000  0.5543090000000 1.0
C      1  0.5573860000000  0.5110790000000  0.4542350000000 1.0
C      1  0.4482840000000  0.4774230000000  0.5547100000000 1.0
C      1  0.5534920000000  0.4822910000000  0.4502610000000 1.0
C      1  0.5283550000000  0.4786570000000  0.4331210000000 1.0
C      1  0.4733970000000  0.4707310000000  0.5688500000000 1.0
C      1  0.5265700000000  0.5226690000000  0.4358160000000 1.0
C      1  0.4767790000000  0.5159870000000  0.5688720000000 1.0
C      1  0.5290690000000  0.4858160000000  0.5605020000000 1.0
C      1  0.4672630000000  0.4803180000000  0.4322140000000 1.0
C      1  0.5189950000000  0.5289530000000  0.5725060000000 1.0
C      1  0.4821690000000  0.5222100000000  0.4326810000000 1.0
C      1  0.4466260000000  0.5322020000000  0.4686850000000 1.0
C      1  0.5510390000000  0.5360520000000  0.5334400000000 1.0
C      1  0.4438000000000  0.4693000000000  0.4740590000000 1.0
C      1  0.5521580000000  0.4682380000000  0.5263500000000 1.0
C      1  0.4471820000000  0.5207250000000  0.5290200000000 1.0
C      1  0.5465630000000  0.5290070000000  0.4748850000000 1.0
C      1  0.4462760000000  0.4655230000000  0.5272000000000 1.0
C      1  0.5534200000000  0.4684320000000  0.4762930000000 1.0
C      1  0.4747230000000  0.5776390000000  0.5040720000000 1.0
C      1  0.5278460000000  0.5768180000000  0.4837860000000 1.0
C      1  0.4580180000000  0.4171590000000  0.5147850000000 1.0
C      1  0.5366240000000  0.4199330000000  0.4896620000000 1.0
C      1  0.4642750000000  0.5832150000000  0.4762770000000 1.0
C      1  0.5412700000000  0.5806400000000  0.5114100000000 1.0
C      1  0.4591530000000  0.4184700000000  0.4857460000000 1.0
C      1  0.5339880000000  0.4180320000000  0.5199450000000 1.0
C      1  0.5160430000000  0.5820000000000  0.5266230000000 1.0
C      1  0.4834850000000  0.6008790000000  0.4650940000000 1.0
C      1  0.5085060000000  0.4068320000000  0.5276680000000 1.0
C      1  0.4845990000000  0.4095570000000  0.4751430000000 1.0
C      1  0.5096610000000  0.5966660000000  0.4719830000000 1.0
C      1  0.4948050000000  0.5955750000000  0.5134310000000 1.0
C      1  0.5127030000000  0.4104740000000  0.4766270000000 1.0
C      1  0.4810590000000  0.4067590000000  0.5278640000000 1.0
C      1  0.4723630000000  0.5238740000000  0.4834470000000 1.0
C      1  0.5234270000000  0.5284630000000  0.5267930000000 1.0
C      1  0.4725640000000  0.4745200000000  0.4843590000000 1.0
C      1  0.5261960000000  0.4752700000000  0.5135910000000 1.0
C      1  0.4701150000000  0.5271280000000  0.5124860000000 1.0
C      1  0.5244970000000  0.5218940000000  0.4947590000000 1.0
C      1  0.4724220000000  0.4707560000000  0.5147390000000 1.0
C      1  0.5248500000000  0.4792190000000  0.4839470000000 1.0
C      1  0.5119480000000  0.5505730000000  0.4905370000000 1.0
C      1  0.4768760000000  0.5536190000000  0.5230230000000 1.0
C      1  0.5133170000000  0.4513070000000  0.4699210000000 1.0
C      1  0.4869360000000  0.4474820000000  0.5273170000000 1.0
C      1  0.5054810000000  0.5547630000000  0.5346570000000 1.0
C      1  0.4879080000000  0.5473440000000  0.4746190000000 1.0
C      1  0.5124950000000  0.4490340000000  0.5118440000000 1.0
C      1  0.4833430000000  0.4504690000000  0.4688360000000 1.0
C      1  0.4899380000000  0.4502770000000  0.5571370000000 1.0
C      1  0.5138510000000  0.4535600000000  0.4376240000000 1.0
C      1  0.4741430000000  0.5457560000000  0.5692110000000 1.0
C      1  0.5201960000000  0.5518140000000  0.4391350000000 1.0
C      1  0.4824650000000  0.4557830000000  0.4385500000000 1.0
C      1  0.5190490000000  0.4561780000000  0.5524470000000 1.0
C      1  0.4896230000000  0.5495340000000  0.4433350000000 1.0
C      1  0.5024510000000  0.5528930000000  0.5652600000000 1.0
C      1  0.5106480000000  0.5092370000000  0.5508720000000 1.0
C      1  0.5014010000000  0.5038260000000  0.4460770000000 1.0
C      1  0.4917870000000  0.4994470000000  0.4760740000000 1.0
END
