TITL C-3578209-2550-141 -6.733741525699e-06 125000 -1112.19745865104 0 0 178 (C1) n - 1
REM
REM in /home/bkarasulu/work/CARBON/AIRSS/Generating-Clusters/EDIP-Nigel-Params/with-SteepDescent/Higher-Symm/SD-CG/HFTN-CG
REM
REM
REM
REM
REM
REM ./C.cell (12c818d87b63d06a65506943cc24bca4)
REM
REM compiler GCC version 9.2.1 20190827 (Red Hat 9.2.1-1)
REM options -cpp -mtune=generic -march=x86-64 -g -O0 -fpre-include=/usr/include/finclude/math-vector-fortran.h
REM seed 245340706 1877017339 1129794672 -1584165377 2142539807 1875742089 -1245170399 1046880676 852916735 850922294 -331552335 -1550393629 199362502 1259100089 -1807854298 -760568965 396014303 240526125 1446121715 -1427540393 -1247723702 1234910508 -590419334 1773592307 -1036284367 -1884139003 956736944 -344010238 1969839209 229512338 1774393193 1022845450 901715523
REM
CELL 1.54180   50.00000   50.00000   50.00000   90.00000   90.00000   90.00000
LATT -1
SFAC C  
C      1  0.4362610000000  0.4588500000000  0.5778740000000 1.0
C      1  0.4337260000000  0.5474780000000  0.5794290000000 1.0
C      1  0.4336700000000  0.5841470000000  0.5128250000000 1.0
C      1  0.4312260000000  0.5670130000000  0.4374850000000 1.0
C      1  0.4306420000000  0.5044870000000  0.4008200000000 1.0
C      1  0.4353330000000  0.4142720000000  0.4518010000000 1.0
C      1  0.4348570000000  0.3998640000000  0.5259490000000 1.0
C      1  0.4742380000000  0.5164940000000  0.4228280000000 1.0
C      1  0.4671250000000  0.4473220000000  0.4290300000000 1.0
C      1  0.4756570000000  0.4110050000000  0.5035230000000 1.0
C      1  0.4737840000000  0.4395800000000  0.5649830000000 1.0
C      1  0.4717660000000  0.5180900000000  0.5823900000000 1.0
C      1  0.4770450000000  0.5736410000000  0.5324100000000 1.0
C      1  0.4606190000000  0.5948630000000  0.4558230000000 1.0
C      1  0.4426460000000  0.5210880000000  0.4214420000000 1.0
C      1  0.4434440000000  0.4662910000000  0.4290540000000 1.0
C      1  0.4449610000000  0.4110350000000  0.5014760000000 1.0
C      1  0.4456840000000  0.4402220000000  0.5553060000000 1.0
C      1  0.4410780000000  0.5197390000000  0.5778400000000 1.0
C      1  0.4453540000000  0.5679120000000  0.5356120000000 1.0
C      1  0.4338690000000  0.5827650000000  0.4611730000000 1.0
C      1  0.4925480000000  0.3863700000000  0.5449520000000 1.0
C      1  0.4857530000000  0.4642960000000  0.6068110000000 1.0
C      1  0.4848970000000  0.5657320000000  0.5893110000000 1.0
C      1  0.4931200000000  0.6211290000000  0.5141990000000 1.0
C      1  0.4848010000000  0.5745580000000  0.4196930000000 1.0
C      1  0.4905110000000  0.4882990000000  0.3845640000000 1.0
C      1  0.4824100000000  0.4013490000000  0.4462380000000 1.0
C      1  0.5097260000000  0.4467820000000  0.3974580000000 1.0
C      1  0.5126970000000  0.3888930000000  0.4821060000000 1.0
C      1  0.5108790000000  0.4103240000000  0.5826090000000 1.0
C      1  0.5091920000000  0.5061480000000  0.6144660000000 1.0
C      1  0.5099750000000  0.5985160000000  0.5672410000000 1.0
C      1  0.5079220000000  0.6089620000000  0.4730750000000 1.0
C      1  0.5112210000000  0.5419150000000  0.3960530000000 1.0
C      1  0.5724130000000  0.4619060000000  0.5628310000000 1.0
C      1  0.5745920000000  0.5273400000000  0.5718910000000 1.0
C      1  0.5768840000000  0.5722510000000  0.5234120000000 1.0
C      1  0.5750920000000  0.5634390000000  0.4587080000000 1.0
C      1  0.5755420000000  0.5078900000000  0.4249500000000 1.0
C      1  0.5715600000000  0.4461230000000  0.4481580000000 1.0
C      1  0.5742620000000  0.4244170000000  0.5115480000000 1.0
C      1  0.5545340000000  0.5026900000000  0.5348210000000 1.0
C      1  0.5535180000000  0.5286520000000  0.5206960000000 1.0
C      1  0.5541250000000  0.5336400000000  0.4915250000000 1.0
C      1  0.5546510000000  0.5143800000000  0.4693200000000 1.0
C      1  0.5505960000000  0.4855740000000  0.4706260000000 1.0
C      1  0.5558750000000  0.4691780000000  0.4948060000000 1.0
C      1  0.5455420000000  0.4762720000000  0.5227810000000 1.0
C      1  0.5273890000000  0.3991230000000  0.5042980000000 1.0
C      1  0.5270600000000  0.4346220000000  0.5824280000000 1.0
C      1  0.5270160000000  0.5248960000000  0.6018640000000 1.0
C      1  0.5312350000000  0.5943060000000  0.5481890000000 1.0
C      1  0.5262070000000  0.5950340000000  0.4549470000000 1.0
C      1  0.5301140000000  0.5205250000000  0.3991720000000 1.0
C      1  0.5238060000000  0.4369850000000  0.4207500000000 1.0
C      1  0.4772310000000  0.4656650000000  0.5767790000000 1.0
C      1  0.4861350000000  0.5420760000000  0.5704710000000 1.0
C      1  0.4904230000000  0.5837130000000  0.5067780000000 1.0
C      1  0.4741650000000  0.5707100000000  0.4469720000000 1.0
C      1  0.4834620000000  0.4873720000000  0.4230400000000 1.0
C      1  0.4606720000000  0.4202900000000  0.4405320000000 1.0
C      1  0.4838520000000  0.4131590000000  0.5324160000000 1.0
C      1  0.5993130000000  0.4378560000000  0.5084410000000 1.0
C      1  0.5965250000000  0.4715300000000  0.5492970000000 1.0
C      1  0.6007810000000  0.5228430000000  0.5584590000000 1.0
C      1  0.6019600000000  0.5580790000000  0.5179470000000 1.0
C      1  0.6008920000000  0.5503750000000  0.4656670000000 1.0
C      1  0.6008170000000  0.5045120000000  0.4395310000000 1.0
C      1  0.5977550000000  0.4545630000000  0.4587400000000 1.0
C      1  0.5628210000000  0.4829150000000  0.4159520000000 1.0
C      1  0.5561090000000  0.4256910000000  0.4626480000000 1.0
C      1  0.5587330000000  0.4250960000000  0.5357630000000 1.0
C      1  0.5605320000000  0.4796930000000  0.5822210000000 1.0
C      1  0.5616980000000  0.5534960000000  0.5666480000000 1.0
C      1  0.5625570000000  0.5850920000000  0.5010600000000 1.0
C      1  0.5600010000000  0.5539630000000  0.4352380000000 1.0
C      1  0.4779180000000  0.6098590000000  0.4740120000000 1.0
C      1  0.4827070000000  0.5331450000000  0.3977020000000 1.0
C      1  0.4793130000000  0.4467140000000  0.4008810000000 1.0
C      1  0.4849060000000  0.3851810000000  0.4903960000000 1.0
C      1  0.4811200000000  0.4160140000000  0.5810080000000 1.0
C      1  0.4795140000000  0.5108170000000  0.6108550000000 1.0
C      1  0.4822400000000  0.5942630000000  0.5555270000000 1.0
C      1  0.4660180000000  0.4758280000000  0.5236320000000 1.0
C      1  0.4637320000000  0.4942360000000  0.5458420000000 1.0
C      1  0.4616070000000  0.5308490000000  0.5118540000000 1.0
C      1  0.4581690000000  0.5486650000000  0.4874010000000 1.0
C      1  0.4567590000000  0.5332000000000  0.4625580000000 1.0
C      1  0.4614270000000  0.4766420000000  0.4721230000000 1.0
C      1  0.4601240000000  0.4501850000000  0.4823620000000 1.0
C      1  0.5059100000000  0.5057600000000  0.5268890000000 1.0
C      1  0.5098670000000  0.5346580000000  0.5195960000000 1.0
C      1  0.5041750000000  0.5371410000000  0.4897470000000 1.0
C      1  0.4942070000000  0.5132750000000  0.4751770000000 1.0
C      1  0.5062770000000  0.4884320000000  0.4678030000000 1.0
C      1  0.5140850000000  0.4678650000000  0.4868660000000 1.0
C      1  0.5154820000000  0.4797810000000  0.5158510000000 1.0
C      1  0.5472210000000  0.4400940000000  0.4894170000000 1.0
C      1  0.5505650000000  0.4529830000000  0.5443630000000 1.0
C      1  0.5543610000000  0.5051560000000  0.5657280000000 1.0
C      1  0.5564970000000  0.5546880000000  0.5367580000000 1.0
C      1  0.5547470000000  0.5625660000000  0.4810230000000 1.0
C      1  0.5541810000000  0.5235740000000  0.4400970000000 1.0
C      1  0.5530030000000  0.4693620000000  0.4438990000000 1.0
C      1  0.5149400000000  0.4861240000000  0.4239220000000 1.0
C      1  0.5080300000000  0.4390070000000  0.4687070000000 1.0
C      1  0.5064710000000  0.4352910000000  0.5321080000000 1.0
C      1  0.5043600000000  0.4768970000000  0.5665160000000 1.0
C      1  0.5155730000000  0.5377770000000  0.5605140000000 1.0
C      1  0.5200690000000  0.5740320000000  0.5064910000000 1.0
C      1  0.5077800000000  0.5492620000000  0.4476790000000 1.0
C      1  0.4424450000000  0.4563640000000  0.5274260000000 1.0
C      1  0.4392130000000  0.5118270000000  0.5487220000000 1.0
C      1  0.4384250000000  0.5364860000000  0.5298250000000 1.0
C      1  0.4330450000000  0.5667430000000  0.4878270000000 1.0
C      1  0.4342340000000  0.5153950000000  0.4517210000000 1.0
C      1  0.4370040000000  0.4821210000000  0.4548560000000 1.0
C      1  0.4388710000000  0.4416740000000  0.5003840000000 1.0
C      1  0.5399190000000  0.4028620000000  0.5405770000000 1.0
C      1  0.5395540000000  0.4663540000000  0.5987160000000 1.0
C      1  0.5333110000000  0.5559190000000  0.5800440000000 1.0
C      1  0.5420020000000  0.6050890000000  0.5130350000000 1.0
C      1  0.5388640000000  0.5730860000000  0.4264800000000 1.0
C      1  0.5452960000000  0.4862830000000  0.3915670000000 1.0
C      1  0.5362320000000  0.4115710000000  0.4455030000000 1.0
C      1  0.4078650000000  0.5243170000000  0.4679360000000 1.0
C      1  0.4107450000000  0.4732900000000  0.4702640000000 1.0
C      1  0.4124490000000  0.4543620000000  0.4931650000000 1.0
C      1  0.4159320000000  0.4716250000000  0.5267510000000 1.0
C      1  0.4138290000000  0.4993290000000  0.5372110000000 1.0
C      1  0.4111990000000  0.5322950000000  0.5175420000000 1.0
C      1  0.4103050000000  0.5454470000000  0.4903590000000 1.0
C      1  0.4854670000000  0.4386900000000  0.4905040000000 1.0
C      1  0.4942810000000  0.4622680000000  0.5256260000000 1.0
C      1  0.4915670000000  0.5019450000000  0.5529560000000 1.0
C      1  0.4830390000000  0.5435020000000  0.5316720000000 1.0
C      1  0.4851510000000  0.5617150000000  0.4832220000000 1.0
C      1  0.4832020000000  0.5275080000000  0.4508590000000 1.0
C      1  0.4848970000000  0.4732010000000  0.4535780000000 1.0
C      1  0.5124700000000  0.4797030000000  0.5999960000000 1.0
C      1  0.5125850000000  0.5778960000000  0.5885490000000 1.0
C      1  0.5178330000000  0.6174980000000  0.4991220000000 1.0
C      1  0.5119410000000  0.5612100000000  0.4195920000000 1.0
C      1  0.5161020000000  0.4764010000000  0.3948150000000 1.0
C      1  0.5099210000000  0.4089880000000  0.4593520000000 1.0
C      1  0.5184170000000  0.3928820000000  0.5586900000000 1.0
C      1  0.6074270000000  0.4787960000000  0.4486010000000 1.0
C      1  0.6071700000000  0.4427860000000  0.4822310000000 1.0
C      1  0.6060240000000  0.4561370000000  0.5282040000000 1.0
C      1  0.6078190000000  0.4958390000000  0.5569260000000 1.0
C      1  0.6093260000000  0.5408550000000  0.5387280000000 1.0
C      1  0.6102790000000  0.5557840000000  0.4913970000000 1.0
C      1  0.6097520000000  0.5281770000000  0.4512550000000 1.0
C      1  0.4450320000000  0.6092590000000  0.5093000000000 1.0
C      1  0.4402160000000  0.5507570000000  0.4158120000000 1.0
C      1  0.4445250000000  0.4802660000000  0.4037220000000 1.0
C      1  0.4415200000000  0.3974060000000  0.4735730000000 1.0
C      1  0.4439850000000  0.4095250000000  0.5506330000000 1.0
C      1  0.4432030000000  0.4832840000000  0.5922830000000 1.0
C      1  0.4403790000000  0.5712510000000  0.5658370000000 1.0
C      1  0.5229100000000  0.4495560000000  0.5572210000000 1.0
C      1  0.5271610000000  0.5136190000000  0.5748790000000 1.0
C      1  0.5297860000000  0.5683130000000  0.5351430000000 1.0
C      1  0.5260070000000  0.5687050000000  0.4685980000000 1.0
C      1  0.5276570000000  0.5154060000000  0.4274660000000 1.0
C      1  0.5245070000000  0.4595010000000  0.4398540000000 1.0
C      1  0.5246960000000  0.4276730000000  0.5074270000000 1.0
C      1  0.4674990000000  0.4704530000000  0.3865920000000 1.0
C      1  0.4677410000000  0.3844450000000  0.4663030000000 1.0
C      1  0.4680330000000  0.3952740000000  0.5637760000000 1.0
C      1  0.4644120000000  0.4848100000000  0.6137980000000 1.0
C      1  0.4645030000000  0.5848440000000  0.5776050000000 1.0
C      1  0.4682400000000  0.6208860000000  0.4990230000000 1.0
C      1  0.4664340000000  0.5581880000000  0.4024270000000 1.0
C      1  0.4082260000000  0.4993630000000  0.4843350000000 1.0
C      1  0.4619060000000  0.4944940000000  0.4986250000000 1.0
C      1  0.4334780000000  0.5000330000000  0.4977940000000 1.0
END
