TITL C-3577077-324-21 -1.94224121071931e-06 125000 -969.30681424173 0 0 154 (C1) n - 1
REM
REM in /home/bkarasulu/work/CARBON/AIRSS/Generating-Clusters/EDIP-Nigel-Params/with-SteepDescent/Higher-Symm/SD-CG/HFTN-CG
REM
REM
REM
REM
REM
REM ./C.cell (12c818d87b63d06a65506943cc24bca4)
REM
REM compiler GCC version 9.2.1 20190827 (Red Hat 9.2.1-1)
REM options -cpp -mtune=generic -march=x86-64 -g -O0 -fpre-include=/usr/include/finclude/math-vector-fortran.h
REM seed -1455989771 -1698345009 -493513717 1729442147 -1987907508 52429665 895010625 2108955507 -2093950233 -1820404113 -1597765695 1406222189 16438051 -712302595 -93452555 119580492 1959217289 -1882529350 388911726 -1828478719 1575471995 987848608 -629711942 -1151542583 -799346625 973246503 92443803 1322753949 933105056 -1391440709 -1060735826 -1346252796 -2069750296
REM
CELL 1.54180   50.00000   50.00000   50.00000   90.00000   90.00000   90.00000
LATT -1
SFAC C  
C      1  0.4924220000000  0.5860200000000  0.4673110000000 1.0
C      1  0.4054880000000  0.5180450000000  0.4738110000000 1.0
C      1  0.4479970000000  0.4163870000000  0.4750950000000 1.0
C      1  0.5683360000000  0.4261230000000  0.4722580000000 1.0
C      1  0.5952740000000  0.5344790000000  0.4709470000000 1.0
C      1  0.4931690000000  0.5549200000000  0.4719780000000 1.0
C      1  0.4308420000000  0.5051270000000  0.4636970000000 1.0
C      1  0.4708720000000  0.4329880000000  0.4635630000000 1.0
C      1  0.5608370000000  0.4539700000000  0.4634890000000 1.0
C      1  0.5697700000000  0.5221500000000  0.4601380000000 1.0
C      1  0.4880100000000  0.4266560000000  0.5692680000000 1.0
C      1  0.5698950000000  0.4661360000000  0.5732250000000 1.0
C      1  0.5503940000000  0.5508150000000  0.5654930000000 1.0
C      1  0.4681060000000  0.5702250000000  0.5694980000000 1.0
C      1  0.4223900000000  0.4849100000000  0.5772450000000 1.0
C      1  0.5362470000000  0.4426350000000  0.4238120000000 1.0
C      1  0.5687250000000  0.5093660000000  0.4178540000000 1.0
C      1  0.5127040000000  0.5743890000000  0.4214160000000 1.0
C      1  0.4378040000000  0.5339400000000  0.4236280000000 1.0
C      1  0.4588750000000  0.4511030000000  0.4214970000000 1.0
C      1  0.4690250000000  0.5690490000000  0.4242820000000 1.0
C      1  0.4336790000000  0.4899920000000  0.4220920000000 1.0
C      1  0.4932780000000  0.4229400000000  0.4207650000000 1.0
C      1  0.5797830000000  0.4609580000000  0.4241210000000 1.0
C      1  0.5545580000000  0.5511280000000  0.4211760000000 1.0
C      1  0.5150620000000  0.5284580000000  0.5135680000000 1.0
C      1  0.4672760000000  0.5271520000000  0.5307470000000 1.0
C      1  0.4500390000000  0.4768210000000  0.5270460000000 1.0
C      1  0.4954530000000  0.4829120000000  0.5244110000000 1.0
C      1  0.5255200000000  0.4807640000000  0.5266010000000 1.0
C      1  0.4379600000000  0.4650620000000  0.4354800000000 1.0
C      1  0.5198590000000  0.4190610000000  0.4256580000000 1.0
C      1  0.5701250000000  0.4860590000000  0.4341890000000 1.0
C      1  0.5388180000000  0.5722010000000  0.4326440000000 1.0
C      1  0.4467760000000  0.5567560000000  0.4379600000000 1.0
C      1  0.5851590000000  0.4879470000000  0.5601570000000 1.0
C      1  0.5365740000000  0.5731830000000  0.5506960000000 1.0
C      1  0.4418740000000  0.5571190000000  0.5630050000000 1.0
C      1  0.4208810000000  0.4572670000000  0.5630190000000 1.0
C      1  0.5136020000000  0.4243420000000  0.5564410000000 1.0
C      1  0.4686640000000  0.5978080000000  0.4838920000000 1.0
C      1  0.3883430000000  0.4975760000000  0.4880330000000 1.0
C      1  0.4640160000000  0.3968100000000  0.4885960000000 1.0
C      1  0.5931910000000  0.4311590000000  0.4887720000000 1.0
C      1  0.5917820000000  0.5605620000000  0.4843520000000 1.0
C      1  0.5335450000000  0.4389760000000  0.5700690000000 1.0
C      1  0.5724240000000  0.5118210000000  0.5696260000000 1.0
C      1  0.5099500000000  0.5649290000000  0.5564810000000 1.0
C      1  0.4383090000000  0.5295190000000  0.5740980000000 1.0
C      1  0.4440050000000  0.4431700000000  0.5738520000000 1.0
C      1  0.5017070000000  0.5546250000000  0.5035550000000 1.0
C      1  0.4418650000000  0.5235160000000  0.5140510000000 1.0
C      1  0.4621400000000  0.4539160000000  0.5163070000000 1.0
C      1  0.5041990000000  0.4432300000000  0.5004440000000 1.0
C      1  0.5524300000000  0.4884840000000  0.4935270000000 1.0
C      1  0.5836570000000  0.5368570000000  0.5282240000000 1.0
C      1  0.4925130000000  0.5936200000000  0.5212840000000 1.0
C      1  0.4061380000000  0.5160350000000  0.5380660000000 1.0
C      1  0.4515210000000  0.4142730000000  0.5326840000000 1.0
C      1  0.5644920000000  0.4336600000000  0.5311730000000 1.0
C      1  0.5866360000000  0.5612350000000  0.5127610000000 1.0
C      1  0.4757000000000  0.6116290000000  0.5076140000000 1.0
C      1  0.3883010000000  0.4965040000000  0.5256120000000 1.0
C      1  0.4709230000000  0.4002010000000  0.5154250000000 1.0
C      1  0.5919950000000  0.4354620000000  0.5200170000000 1.0
C      1  0.4432960000000  0.5815250000000  0.5217520000000 1.0
C      1  0.3941740000000  0.4676500000000  0.5205430000000 1.0
C      1  0.4979990000000  0.3968420000000  0.5211540000000 1.0
C      1  0.6055390000000  0.4640410000000  0.5227580000000 1.0
C      1  0.5677620000000  0.5837710000000  0.5134600000000 1.0
C      1  0.5864530000000  0.4852840000000  0.4819930000000 1.0
C      1  0.5464740000000  0.5957270000000  0.4692810000000 1.0
C      1  0.4293480000000  0.5642510000000  0.4780040000000 1.0
C      1  0.4122120000000  0.4502510000000  0.4763890000000 1.0
C      1  0.5215090000000  0.4058950000000  0.4738060000000 1.0
C      1  0.4673260000000  0.5435150000000  0.4863340000000 1.0
C      1  0.4534030000000  0.4940530000000  0.4809560000000 1.0
C      1  0.4720060000000  0.4668060000000  0.4711920000000 1.0
C      1  0.5377570000000  0.4692120000000  0.4742670000000 1.0
C      1  0.5425320000000  0.5278070000000  0.4687810000000 1.0
C      1  0.4268900000000  0.4273300000000  0.5206790000000 1.0
C      1  0.5435870000000  0.4185680000000  0.5174860000000 1.0
C      1  0.5976610000000  0.5133620000000  0.5192640000000 1.0
C      1  0.5192970000000  0.5937600000000  0.5097320000000 1.0
C      1  0.4097590000000  0.5432700000000  0.5244320000000 1.0
C      1  0.5371390000000  0.5156900000000  0.4945480000000 1.0
C      1  0.4714630000000  0.5550440000000  0.5176270000000 1.0
C      1  0.4408800000000  0.4951320000000  0.5073410000000 1.0
C      1  0.4843790000000  0.4636940000000  0.5018610000000 1.0
C      1  0.5305970000000  0.4581390000000  0.5050850000000 1.0
C      1  0.5631810000000  0.4403090000000  0.4365280000000 1.0
C      1  0.5801700000000  0.5355720000000  0.4347170000000 1.0
C      1  0.4899110000000  0.5893140000000  0.4368640000000 1.0
C      1  0.4179430000000  0.5132650000000  0.4370010000000 1.0
C      1  0.4697680000000  0.4278050000000  0.4340600000000 1.0
C      1  0.5696900000000  0.5919830000000  0.4855990000000 1.0
C      1  0.4460680000000  0.5815620000000  0.4934700000000 1.0
C      1  0.3949840000000  0.4688050000000  0.4913990000000 1.0
C      1  0.4958040000000  0.4187790000000  0.4840870000000 1.0
C      1  0.6037660000000  0.4612300000000  0.4925620000000 1.0
C      1  0.5232240000000  0.4702960000000  0.4219700000000 1.0
C      1  0.5407510000000  0.5231710000000  0.4187990000000 1.0
C      1  0.4946990000000  0.5488910000000  0.4194170000000 1.0
C      1  0.4585540000000  0.5108240000000  0.4196050000000 1.0
C      1  0.4857360000000  0.4660880000000  0.4193190000000 1.0
C      1  0.5257900000000  0.5025890000000  0.5543910000000 1.0
C      1  0.5241740000000  0.5318300000000  0.5433360000000 1.0
C      1  0.4611530000000  0.5146180000000  0.5589590000000 1.0
C      1  0.4545700000000  0.4847250000000  0.5553670000000 1.0
C      1  0.4836690000000  0.4750820000000  0.5564760000000 1.0
C      1  0.6001240000000  0.5108150000000  0.4904000000000 1.0
C      1  0.5195020000000  0.5954620000000  0.4805110000000 1.0
C      1  0.4150470000000  0.5417070000000  0.4921260000000 1.0
C      1  0.4270150000000  0.4298580000000  0.4909060000000 1.0
C      1  0.5455660000000  0.4137630000000  0.4885370000000 1.0
C      1  0.4616650000000  0.5112860000000  0.5982590000000 1.0
C      1  0.4606660000000  0.4597380000000  0.5910880000000 1.0
C      1  0.5265450000000  0.4574070000000  0.5910760000000 1.0
C      1  0.5451440000000  0.5058170000000  0.5798110000000 1.0
C      1  0.5035960000000  0.5373580000000  0.5906260000000 1.0
C      1  0.5337170000000  0.5346560000000  0.5865290000000 1.0
C      1  0.4838960000000  0.5584740000000  0.5904080000000 1.0
C      1  0.4462160000000  0.4851520000000  0.5976850000000 1.0
C      1  0.4895850000000  0.4509730000000  0.5861220000000 1.0
C      1  0.5486680000000  0.4768930000000  0.5921710000000 1.0
C      1  0.5504660000000  0.5958850000000  0.4415820000000 1.0
C      1  0.4267740000000  0.5707790000000  0.4509230000000 1.0
C      1  0.4167930000000  0.4525930000000  0.4488790000000 1.0
C      1  0.5253370000000  0.4018750000000  0.4465800000000 1.0
C      1  0.5913240000000  0.4842490000000  0.4527920000000 1.0
C      1  0.5229120000000  0.5155970000000  0.3954050000000 1.0
C      1  0.4970250000000  0.5304950000000  0.3947720000000 1.0
C      1  0.4749650000000  0.5099770000000  0.3939090000000 1.0
C      1  0.4878880000000  0.4829770000000  0.3930430000000 1.0
C      1  0.5173260000000  0.4862270000000  0.3952670000000 1.0
C      1  0.5256580000000  0.5174880000000  0.4460750000000 1.0
C      1  0.4979570000000  0.5320310000000  0.4452430000000 1.0
C      1  0.4775160000000  0.5095900000000  0.4431790000000 1.0
C      1  0.4888290000000  0.4821080000000  0.4474970000000 1.0
C      1  0.5204050000000  0.4859710000000  0.4497310000000 1.0
C      1  0.5925960000000  0.4877900000000  0.5324480000000 1.0
C      1  0.5408470000000  0.5795190000000  0.5230870000000 1.0
C      1  0.4315630000000  0.5604490000000  0.5363450000000 1.0
C      1  0.4146240000000  0.4511990000000  0.5347160000000 1.0
C      1  0.5198220000000  0.4098180000000  0.5326650000000 1.0
C      1  0.4877930000000  0.5813660000000  0.5485070000000 1.0
C      1  0.4148250000000  0.5126730000000  0.5657630000000 1.0
C      1  0.4608770000000  0.4256460000000  0.5579840000000 1.0
C      1  0.5584150000000  0.4442300000000  0.5575040000000 1.0
C      1  0.5751710000000  0.5372200000000  0.5556980000000 1.0
C      1  0.4752370000000  0.5140490000000  0.4868110000000 1.0
C      1  0.4888910000000  0.5114120000000  0.5143370000000 1.0
C      1  0.4907960000000  0.5114030000000  0.5908490000000 1.0
C      1  0.5000530000000  0.4964500000000  0.5678030000000 1.0
END
