TITL C-3578205-846-294 -7.42099483358139e-06 125000 -557.965450312832 0 0 91 (C1) n - 1
REM
REM in /home/bkarasulu/work/CARBON/AIRSS/Generating-Clusters/EDIP-Nigel-Params/with-SteepDescent/Higher-Symm/SD-CG/HFTN-CG
REM
REM
REM
REM
REM
REM ./C.cell (12c818d87b63d06a65506943cc24bca4)
REM
REM compiler GCC version 9.2.1 20190827 (Red Hat 9.2.1-1)
REM options -cpp -mtune=generic -march=x86-64 -g -O0 -fpre-include=/usr/include/finclude/math-vector-fortran.h
REM seed -1114537412 -678501410 -1880300542 -826266865 -414196303 1921583366 -824128553 816519328 -1694651438 60273315 309303069 -598113366 -330697703 -2146301400 -1395764768 -1473743286 -1902952979 671768837 1220134002 1685069134 1171400538 1946770173 1500062341 311911001 -1620952298 902249184 1950509813 1440339905 -1235994311 1553396266 2018160455 -845973162 1821584582
REM
CELL 1.54180   50.00000   50.00000   50.00000   90.00000   90.00000   90.00000
LATT -1
SFAC C  
C      1  0.5049970000000  0.5655900000000  0.5538250000000 1.0
C      1  0.4524270000000  0.5653040000000  0.4747430000000 1.0
C      1  0.5439650000000  0.5781770000000  0.4685230000000 1.0
C      1  0.5039790000000  0.4260560000000  0.5556450000000 1.0
C      1  0.4480420000000  0.4236790000000  0.4764060000000 1.0
C      1  0.5439650000000  0.4320010000000  0.4712660000000 1.0
C      1  0.4697690000000  0.4289530000000  0.4595910000000 1.0
C      1  0.5490240000000  0.4348460000000  0.4985880000000 1.0
C      1  0.4801870000000  0.4334360000000  0.5428430000000 1.0
C      1  0.4727610000000  0.5702750000000  0.4557150000000 1.0
C      1  0.5515060000000  0.5722470000000  0.4949320000000 1.0
C      1  0.4783600000000  0.5683260000000  0.5452810000000 1.0
C      1  0.5289560000000  0.5515420000000  0.4315660000000 1.0
C      1  0.5510310000000  0.5445040000000  0.5526970000000 1.0
C      1  0.4313900000000  0.5442200000000  0.5153520000000 1.0
C      1  0.5166540000000  0.4543580000000  0.4370610000000 1.0
C      1  0.5431000000000  0.4550990000000  0.5530740000000 1.0
C      1  0.4336750000000  0.4522340000000  0.5141750000000 1.0
C      1  0.5839180000000  0.4673100000000  0.4904070000000 1.0
C      1  0.4725550000000  0.4661650000000  0.5764460000000 1.0
C      1  0.4419370000000  0.4632000000000  0.4386830000000 1.0
C      1  0.5724480000000  0.5255500000000  0.4931580000000 1.0
C      1  0.4689570000000  0.5223070000000  0.5632010000000 1.0
C      1  0.4571730000000  0.5288520000000  0.4400950000000 1.0
C      1  0.5237250000000  0.4852260000000  0.4668960000000 1.0
C      1  0.5145220000000  0.4821900000000  0.5328940000000 1.0
C      1  0.4595520000000  0.4809630000000  0.4932220000000 1.0
C      1  0.5181140000000  0.5130650000000  0.4537420000000 1.0
C      1  0.5332530000000  0.5058950000000  0.5346070000000 1.0
C      1  0.4521650000000  0.5059220000000  0.5098160000000 1.0
C      1  0.4893070000000  0.4637950000000  0.4307830000000 1.0
C      1  0.5650350000000  0.4658520000000  0.5357430000000 1.0
C      1  0.4411160000000  0.4644890000000  0.5400110000000 1.0
C      1  0.5035670000000  0.5391470000000  0.4201330000000 1.0
C      1  0.5745440000000  0.5417200000000  0.5344610000000 1.0
C      1  0.4333940000000  0.5415440000000  0.5456850000000 1.0
C      1  0.4851820000000  0.5147710000000  0.5398950000000 1.0
C      1  0.4710010000000  0.5161930000000  0.4618420000000 1.0
C      1  0.5440260000000  0.5163510000000  0.4911360000000 1.0
C      1  0.4852000000000  0.4843410000000  0.5402950000000 1.0
C      1  0.4691890000000  0.4860610000000  0.4628270000000 1.0
C      1  0.5446890000000  0.4854540000000  0.4908810000000 1.0
C      1  0.5221660000000  0.5726130000000  0.4513400000000 1.0
C      1  0.5290760000000  0.5603820000000  0.5403640000000 1.0
C      1  0.4513310000000  0.5608350000000  0.5024230000000 1.0
C      1  0.5196490000000  0.4342640000000  0.4574860000000 1.0
C      1  0.5285080000000  0.4317370000000  0.5435900000000 1.0
C      1  0.4513370000000  0.4323170000000  0.5028350000000 1.0
C      1  0.5060870000000  0.5099500000000  0.4263550000000 1.0
C      1  0.5809260000000  0.5154560000000  0.5210210000000 1.0
C      1  0.4321800000000  0.5135270000000  0.5553890000000 1.0
C      1  0.4838470000000  0.4917350000000  0.4270660000000 1.0
C      1  0.5599370000000  0.4937700000000  0.5249770000000 1.0
C      1  0.4467710000000  0.4943220000000  0.5382330000000 1.0
C      1  0.4905560000000  0.4858910000000  0.5843400000000 1.0
C      1  0.4272400000000  0.4850320000000  0.4482830000000 1.0
C      1  0.5825490000000  0.4836090000000  0.4678200000000 1.0
C      1  0.4854310000000  0.5142760000000  0.5863140000000 1.0
C      1  0.4225490000000  0.5156740000000  0.4475620000000 1.0
C      1  0.5871440000000  0.5140480000000  0.4684560000000 1.0
C      1  0.4591930000000  0.5518890000000  0.5609190000000 1.0
C      1  0.4717740000000  0.5524780000000  0.4321610000000 1.0
C      1  0.5743550000000  0.5550900000000  0.4988800000000 1.0
C      1  0.4615820000000  0.4507160000000  0.5561310000000 1.0
C      1  0.4659020000000  0.4489720000000  0.4392110000000 1.0
C      1  0.5689350000000  0.4531600000000  0.5090290000000 1.0
C      1  0.4189410000000  0.5224670000000  0.5000610000000 1.0
C      1  0.5421310000000  0.5312800000000  0.4498590000000 1.0
C      1  0.5405560000000  0.5180750000000  0.5615210000000 1.0
C      1  0.4218810000000  0.4712880000000  0.4962290000000 1.0
C      1  0.5390920000000  0.4724240000000  0.4332520000000 1.0
C      1  0.5366900000000  0.4668770000000  0.5779220000000 1.0
C      1  0.4069820000000  0.5139850000000  0.4746860000000 1.0
C      1  0.5670010000000  0.5164870000000  0.4427360000000 1.0
C      1  0.5240310000000  0.5146250000000  0.5851410000000 1.0
C      1  0.4094900000000  0.4824210000000  0.4727630000000 1.0
C      1  0.5621480000000  0.4858790000000  0.4453530000000 1.0
C      1  0.5192720000000  0.4857520000000  0.5895980000000 1.0
C      1  0.5299390000000  0.5650310000000  0.5122220000000 1.0
C      1  0.4750960000000  0.5645780000000  0.5171370000000 1.0
C      1  0.4986110000000  0.5612480000000  0.4665190000000 1.0
C      1  0.5271090000000  0.4302460000000  0.5153720000000 1.0
C      1  0.4754440000000  0.4266080000000  0.5160980000000 1.0
C      1  0.4955870000000  0.4298210000000  0.4715650000000 1.0
C      1  0.4760960000000  0.5262290000000  0.5144990000000 1.0
C      1  0.4970820000000  0.5283020000000  0.4699770000000 1.0
C      1  0.5256930000000  0.5268410000000  0.5116640000000 1.0
C      1  0.4807070000000  0.4646280000000  0.5110130000000 1.0
C      1  0.4966470000000  0.4683100000000  0.4741810000000 1.0
C      1  0.5203670000000  0.4673250000000  0.5070070000000 1.0
C      1  0.4998040000000  0.5212860000000  0.4984180000000 1.0
END
