TITL C-3578196-9646-675 1.93951824231164e-06 125000 -880.700425465757 0 0 139 (C1) n - 1
REM
REM in /home/bkarasulu/work/CARBON/AIRSS/Generating-Clusters/EDIP-Nigel-Params/with-SteepDescent/Higher-Symm/SD-CG/HFTN-CG
REM
REM
REM
REM
REM
REM ./C.cell (12c818d87b63d06a65506943cc24bca4)
REM
REM compiler GCC version 9.2.1 20190827 (Red Hat 9.2.1-1)
REM options -cpp -mtune=generic -march=x86-64 -g -O0 -fpre-include=/usr/include/finclude/math-vector-fortran.h
REM seed -1708003031 -533608322 14043159 1257516564 112166554 -1583611329 -349351294 -1510940559 -1014308219 859939463 1454614494 -1507147575 2005422000 -766392193 -1000909484 -1852690382 1440654569 1986242024 -576970517 -649388286 -1173230212 -1705091806 -1306259463 -490004561 1709950916 -1839921719 1674457937 1691069446 -1518718031 1186111125 9561437 1239634920 -2039087594
REM
CELL 1.54180   50.00000   50.00000   50.00000   90.00000   90.00000   90.00000
LATT -1
SFAC C  
C      1  0.4212280000000  0.4365800000000  0.5034270000000 1.0
C      1  0.5006620000000  0.4013980000000  0.5087210000000 1.0
C      1  0.5802250000000  0.4349670000000  0.5059520000000 1.0
C      1  0.5970690000000  0.5201050000000  0.5030910000000 1.0
C      1  0.5428090000000  0.5904550000000  0.5026420000000 1.0
C      1  0.4546630000000  0.5914740000000  0.5042460000000 1.0
C      1  0.4029750000000  0.5209540000000  0.5034190000000 1.0
C      1  0.4969030000000  0.4655950000000  0.4007240000000 1.0
C      1  0.5260330000000  0.4727910000000  0.4044150000000 1.0
C      1  0.5346470000000  0.5018140000000  0.4058640000000 1.0
C      1  0.5167510000000  0.5314130000000  0.4024940000000 1.0
C      1  0.4857120000000  0.5391810000000  0.4019070000000 1.0
C      1  0.4639400000000  0.5179620000000  0.3999790000000 1.0
C      1  0.4735020000000  0.4880670000000  0.4039230000000 1.0
C      1  0.5244600000000  0.4758360000000  0.4545130000000 1.0
C      1  0.5419510000000  0.5017420000000  0.4560580000000 1.0
C      1  0.5249730000000  0.5272540000000  0.4478170000000 1.0
C      1  0.4954600000000  0.5343390000000  0.4532940000000 1.0
C      1  0.4664600000000  0.5195170000000  0.4458310000000 1.0
C      1  0.4568650000000  0.4927920000000  0.4544790000000 1.0
C      1  0.4803860000000  0.4702300000000  0.4520100000000 1.0
C      1  0.4992730000000  0.5805940000000  0.4219470000000 1.0
C      1  0.4362800000000  0.5519110000000  0.4222800000000 1.0
C      1  0.4220100000000  0.4823710000000  0.4171050000000 1.0
C      1  0.4729020000000  0.4288950000000  0.4249190000000 1.0
C      1  0.5275880000000  0.4309130000000  0.4277810000000 1.0
C      1  0.5773280000000  0.4814010000000  0.4231950000000 1.0
C      1  0.5608000000000  0.5491400000000  0.4187110000000 1.0
C      1  0.4763440000000  0.4732600000000  0.5369820000000 1.0
C      1  0.5054400000000  0.4680700000000  0.5383900000000 1.0
C      1  0.5242900000000  0.4863890000000  0.5509500000000 1.0
C      1  0.5305210000000  0.5111750000000  0.5301120000000 1.0
C      1  0.5062700000000  0.5267000000000  0.5490000000000 1.0
C      1  0.4857160000000  0.5202060000000  0.5267460000000 1.0
C      1  0.4674480000000  0.5006080000000  0.5371840000000 1.0
C      1  0.4487150000000  0.4730140000000  0.4221360000000 1.0
C      1  0.4919200000000  0.4518940000000  0.4278180000000 1.0
C      1  0.5360620000000  0.4584260000000  0.4296170000000 1.0
C      1  0.5581800000000  0.5026200000000  0.4279600000000 1.0
C      1  0.5327200000000  0.5464940000000  0.4251850000000 1.0
C      1  0.4834820000000  0.5568550000000  0.4267680000000 1.0
C      1  0.4456820000000  0.5244320000000  0.4236660000000 1.0
C      1  0.5640360000000  0.4349640000000  0.5321170000000 1.0
C      1  0.5878320000000  0.5068250000000  0.5279540000000 1.0
C      1  0.5424520000000  0.5656580000000  0.5195420000000 1.0
C      1  0.4689750000000  0.5880150000000  0.5308460000000 1.0
C      1  0.4272700000000  0.5283930000000  0.5206080000000 1.0
C      1  0.4213860000000  0.4510340000000  0.5296940000000 1.0
C      1  0.4877880000000  0.4244610000000  0.5233770000000 1.0
C      1  0.4984010000000  0.5797620000000  0.5212820000000 1.0
C      1  0.4285680000000  0.5583300000000  0.5299850000000 1.0
C      1  0.4249300000000  0.4807560000000  0.5210380000000 1.0
C      1  0.4578990000000  0.4184870000000  0.5303900000000 1.0
C      1  0.5354760000000  0.4341730000000  0.5218230000000 1.0
C      1  0.5767730000000  0.4784070000000  0.5218790000000 1.0
C      1  0.5697250000000  0.5531340000000  0.5270510000000 1.0
C      1  0.5485880000000  0.4723990000000  0.5644520000000 1.0
C      1  0.5556540000000  0.5211090000000  0.5651150000000 1.0
C      1  0.5173220000000  0.5585940000000  0.5679950000000 1.0
C      1  0.4649250000000  0.5479200000000  0.5654870000000 1.0
C      1  0.4325510000000  0.5047860000000  0.5668780000000 1.0
C      1  0.4603840000000  0.4585630000000  0.5603010000000 1.0
C      1  0.5100840000000  0.4383140000000  0.5711620000000 1.0
C      1  0.4592220000000  0.4847670000000  0.6013550000000 1.0
C      1  0.4806970000000  0.4642840000000  0.6040440000000 1.0
C      1  0.5293990000000  0.4706240000000  0.6071720000000 1.0
C      1  0.5444860000000  0.4966670000000  0.6048410000000 1.0
C      1  0.5234490000000  0.5200600000000  0.5972530000000 1.0
C      1  0.4927700000000  0.5318410000000  0.6019150000000 1.0
C      1  0.4701210000000  0.5125550000000  0.5957320000000 1.0
C      1  0.4502080000000  0.5263430000000  0.5795900000000 1.0
C      1  0.4421060000000  0.4778980000000  0.5780440000000 1.0
C      1  0.4812550000000  0.4463050000000  0.5803520000000 1.0
C      1  0.5352480000000  0.4525650000000  0.5837180000000 1.0
C      1  0.5599600000000  0.4956940000000  0.5795760000000 1.0
C      1  0.5380800000000  0.5395070000000  0.5797360000000 1.0
C      1  0.4898720000000  0.5529450000000  0.5806240000000 1.0
C      1  0.4835520000000  0.4413360000000  0.4980500000000 1.0
C      1  0.5366060000000  0.4562090000000  0.4992960000000 1.0
C      1  0.5554370000000  0.5030380000000  0.4853570000000 1.0
C      1  0.5336720000000  0.5483700000000  0.4923390000000 1.0
C      1  0.4875920000000  0.5590140000000  0.5000450000000 1.0
C      1  0.4478190000000  0.5297370000000  0.4978130000000 1.0
C      1  0.4450880000000  0.4764850000000  0.4981760000000 1.0
C      1  0.5814730000000  0.5313190000000  0.4591250000000 1.0
C      1  0.5242090000000  0.5782470000000  0.4614260000000 1.0
C      1  0.4554160000000  0.5643010000000  0.4637670000000 1.0
C      1  0.4153210000000  0.5056990000000  0.4602750000000 1.0
C      1  0.4479890000000  0.4423990000000  0.4632570000000 1.0
C      1  0.5110840000000  0.4112260000000  0.4653870000000 1.0
C      1  0.5726210000000  0.4559330000000  0.4624470000000 1.0
C      1  0.5106070000000  0.4397460000000  0.5404310000000 1.0
C      1  0.5695060000000  0.4610480000000  0.5454650000000 1.0
C      1  0.5700810000000  0.5268320000000  0.5406040000000 1.0
C      1  0.5192220000000  0.5669660000000  0.5388820000000 1.0
C      1  0.4529950000000  0.5666430000000  0.5456900000000 1.0
C      1  0.4377750000000  0.5041760000000  0.5376240000000 1.0
C      1  0.4430920000000  0.4386970000000  0.5462950000000 1.0
C      1  0.4332400000000  0.5525650000000  0.4808290000000 1.0
C      1  0.4058590000000  0.4809650000000  0.4748250000000 1.0
C      1  0.4634770000000  0.4230040000000  0.4820120000000 1.0
C      1  0.5371990000000  0.4136920000000  0.4794730000000 1.0
C      1  0.5924960000000  0.4739000000000  0.4757750000000 1.0
C      1  0.5735260000000  0.5551700000000  0.4760570000000 1.0
C      1  0.5024150000000  0.5938340000000  0.4745560000000 1.0
C      1  0.5297910000000  0.4083390000000  0.5071640000000 1.0
C      1  0.5947000000000  0.4620250000000  0.5036160000000 1.0
C      1  0.5865980000000  0.5489260000000  0.5025940000000 1.0
C      1  0.5134970000000  0.5988010000000  0.5019950000000 1.0
C      1  0.4297670000000  0.5735340000000  0.5039730000000 1.0
C      1  0.4014790000000  0.4910070000000  0.5033070000000 1.0
C      1  0.4434990000000  0.4162860000000  0.5042150000000 1.0
C      1  0.5727940000000  0.5279260000000  0.4312910000000 1.0
C      1  0.5235940000000  0.5738790000000  0.4331020000000 1.0
C      1  0.4564950000000  0.5658590000000  0.4351630000000 1.0
C      1  0.4218970000000  0.5065830000000  0.4311350000000 1.0
C      1  0.4492630000000  0.4439410000000  0.4338930000000 1.0
C      1  0.5066130000000  0.4149820000000  0.4372460000000 1.0
C      1  0.5654570000000  0.4593270000000  0.4346120000000 1.0
C      1  0.4091170000000  0.5308010000000  0.4755260000000 1.0
C      1  0.4280490000000  0.4568280000000  0.4808530000000 1.0
C      1  0.4889760000000  0.4010580000000  0.4810080000000 1.0
C      1  0.5624640000000  0.4338310000000  0.4806540000000 1.0
C      1  0.5853280000000  0.5066080000000  0.4785790000000 1.0
C      1  0.5509020000000  0.5795210000000  0.4754420000000 1.0
C      1  0.4735150000000  0.5798380000000  0.4817580000000 1.0
C      1  0.4524770000000  0.5010820000000  0.4837690000000 1.0
C      1  0.4723180000000  0.4676730000000  0.5071040000000 1.0
C      1  0.5124000000000  0.4619760000000  0.4815730000000 1.0
C      1  0.5517100000000  0.4807340000000  0.5057030000000 1.0
C      1  0.5451420000000  0.5241460000000  0.5041450000000 1.0
C      1  0.5050230000000  0.5384890000000  0.4859600000000 1.0
C      1  0.4701370000000  0.5410730000000  0.5138730000000 1.0
C      1  0.4927760000000  0.4842790000000  0.4918370000000 1.0
C      1  0.5066350000000  0.5027800000000  0.5727450000000 1.0
C      1  0.4998540000000  0.4908060000000  0.4486060000000 1.0
C      1  0.4989450000000  0.5027640000000  0.4213570000000 1.0
C      1  0.5032280000000  0.4811530000000  0.6042790000000 1.0
C      1  0.5030080000000  0.5110300000000  0.5033010000000 1.0
END
