TITL C-3577077-324-358 -0.0053824359454223 125000 -533.190696247493 0 0 88 (C1) n - 1
REM
REM in /home/bkarasulu/work/CARBON/AIRSS/Generating-Clusters/EDIP-Nigel-Params/with-SteepDescent/Higher-Symm/SD-CG/HFTN-CG
REM
REM
REM
REM
REM
REM ./C.cell (12c818d87b63d06a65506943cc24bca4)
REM
REM compiler GCC version 9.2.1 20190827 (Red Hat 9.2.1-1)
REM options -cpp -mtune=generic -march=x86-64 -g -O0 -fpre-include=/usr/include/finclude/math-vector-fortran.h
REM seed -1728814598 478743847 -1607174719 1115681107 -368982683 1166784903 1702955043 -1252546565 562626823 938499565 -251918804 2104373171 1035781457 271748504 -2043068321 1207271170 -1638011219 1487123641 1023786237 -1169056409 -1785227084 105970015 -1867161469 -140158356 308482024 -1652263463 -300529361 -1596892572 513284747 461608201 -1969852974 -1863010731 1184219311
REM
CELL 1.54180   50.00000   50.00000   50.00000   90.00000   90.00000   90.00000
LATT -1
SFAC C  
C      1  0.4529900000000  0.4727800000000  0.5453700000000 1.0
C      1  0.5478520000000  0.5225830000000  0.5503760000000 1.0
C      1  0.5514990000000  0.4716420000000  0.5475580000000 1.0
C      1  0.4548080000000  0.5220890000000  0.5475110000000 1.0
C      1  0.5272550000000  0.4322600000000  0.5253570000000 1.0
C      1  0.4707450000000  0.5656750000000  0.5329590000000 1.0
C      1  0.4737540000000  0.4313470000000  0.5242510000000 1.0
C      1  0.5270990000000  0.5651910000000  0.5335960000000 1.0
C      1  0.4656100000000  0.5347720000000  0.4262490000000 1.0
C      1  0.5285630000000  0.4631090000000  0.4143340000000 1.0
C      1  0.5329170000000  0.5281990000000  0.4307340000000 1.0
C      1  0.4799810000000  0.4650280000000  0.4135830000000 1.0
C      1  0.5467530000000  0.5416800000000  0.4540230000000 1.0
C      1  0.4587330000000  0.4618290000000  0.4341040000000 1.0
C      1  0.4523860000000  0.5354150000000  0.4561210000000 1.0
C      1  0.5458140000000  0.4547890000000  0.4355250000000 1.0
C      1  0.5211230000000  0.5166420000000  0.5648270000000 1.0
C      1  0.4735540000000  0.4712660000000  0.5665020000000 1.0
C      1  0.4723370000000  0.5223800000000  0.5717190000000 1.0
C      1  0.5294630000000  0.4689160000000  0.5693530000000 1.0
C      1  0.5239240000000  0.5822630000000  0.5096940000000 1.0
C      1  0.4760680000000  0.4205340000000  0.4963640000000 1.0
C      1  0.4752250000000  0.5820690000000  0.5087880000000 1.0
C      1  0.5236900000000  0.4229030000000  0.4979360000000 1.0
C      1  0.5605530000000  0.5271390000000  0.4786690000000 1.0
C      1  0.4292790000000  0.4753020000000  0.4816710000000 1.0
C      1  0.4291460000000  0.5329770000000  0.4778620000000 1.0
C      1  0.5629750000000  0.4801830000000  0.4736100000000 1.0
C      1  0.5287790000000  0.4468700000000  0.4574870000000 1.0
C      1  0.4714620000000  0.5548150000000  0.4684530000000 1.0
C      1  0.4721660000000  0.4491050000000  0.4574190000000 1.0
C      1  0.5275140000000  0.5599680000000  0.4659780000000 1.0
C      1  0.4507340000000  0.5444260000000  0.5288200000000 1.0
C      1  0.5463430000000  0.4552760000000  0.5230270000000 1.0
C      1  0.5488880000000  0.5445350000000  0.5303230000000 1.0
C      1  0.4564090000000  0.4551090000000  0.5216990000000 1.0
C      1  0.4358140000000  0.5425590000000  0.5041610000000 1.0
C      1  0.5592070000000  0.4560020000000  0.4953830000000 1.0
C      1  0.5599030000000  0.5407040000000  0.5043770000000 1.0
C      1  0.4396870000000  0.4519240000000  0.4964860000000 1.0
C      1  0.4604350000000  0.5742650000000  0.4861260000000 1.0
C      1  0.5434120000000  0.4356260000000  0.4803860000000 1.0
C      1  0.5385710000000  0.5759780000000  0.4867660000000 1.0
C      1  0.4563510000000  0.4343880000000  0.4783780000000 1.0
C      1  0.4995590000000  0.4376880000000  0.4888010000000 1.0
C      1  0.4997800000000  0.5686250000000  0.4994330000000 1.0
C      1  0.5000220000000  0.4342380000000  0.5398040000000 1.0
C      1  0.4976440000000  0.5545910000000  0.5442350000000 1.0
C      1  0.5407090000000  0.4979180000000  0.4271290000000 1.0
C      1  0.4586930000000  0.5083350000000  0.4148300000000 1.0
C      1  0.5947490000000  0.5020940000000  0.5027600000000 1.0
C      1  0.4010800000000  0.5038850000000  0.5042000000000 1.0
C      1  0.4505980000000  0.4954270000000  0.4868100000000 1.0
C      1  0.5370020000000  0.4957160000000  0.4736250000000 1.0
C      1  0.5802160000000  0.5037980000000  0.4793780000000 1.0
C      1  0.4109090000000  0.5095050000000  0.4779470000000 1.0
C      1  0.4993950000000  0.5532860000000  0.4580940000000 1.0
C      1  0.5002460000000  0.4378810000000  0.4491400000000 1.0
C      1  0.4760470000000  0.4948750000000  0.5850210000000 1.0
C      1  0.5247110000000  0.4941970000000  0.5848820000000 1.0
C      1  0.4615850000000  0.5054710000000  0.4594090000000 1.0
C      1  0.5217540000000  0.4895970000000  0.4488350000000 1.0
C      1  0.5655490000000  0.4736210000000  0.4444820000000 1.0
C      1  0.4472390000000  0.4900050000000  0.4369600000000 1.0
C      1  0.5001070000000  0.5338540000000  0.4351380000000 1.0
C      1  0.5036250000000  0.4491890000000  0.4205340000000 1.0
C      1  0.4962400000000  0.4650760000000  0.5072690000000 1.0
C      1  0.4931730000000  0.5307570000000  0.4986110000000 1.0
C      1  0.4762190000000  0.4859280000000  0.4968330000000 1.0
C      1  0.5201200000000  0.4922380000000  0.4959470000000 1.0
C      1  0.5002590000000  0.4582600000000  0.5584930000000 1.0
C      1  0.4981940000000  0.5381830000000  0.5700480000000 1.0
C      1  0.5639030000000  0.4984610000000  0.5439770000000 1.0
C      1  0.4390470000000  0.4984730000000  0.5422300000000 1.0
C      1  0.5102600000000  0.4769510000000  0.5348560000000 1.0
C      1  0.5072360000000  0.5323460000000  0.5237480000000 1.0
C      1  0.5866100000000  0.5006850000000  0.5280910000000 1.0
C      1  0.4263800000000  0.5012440000000  0.5167540000000 1.0
C      1  0.5018980000000  0.5035160000000  0.3925550000000 1.0
C      1  0.5010010000000  0.5120920000000  0.6229960000000 1.0
C      1  0.5012040000000  0.5269550000000  0.6448710000000 1.0
C      1  0.4950660000000  0.5040360000000  0.4436570000000 1.0
C      1  0.5007750000000  0.4930870000000  0.6026250000000 1.0
C      1  0.4855690000000  0.4944420000000  0.4141890000000 1.0
C      1  0.5138690000000  0.5135210000000  0.3721540000000 1.0
C      1  0.5075890000000  0.5066450000000  0.5400990000000 1.0
C      1  0.4956860000000  0.5045600000000  0.4876720000000 1.0
C      1  0.5014060000000  0.5426550000000  0.6650530000000 1.0
END
