TITL C-3578200-9634-586 1.90002859318898e-07 125000 -62.3093853814154 0 0 12 (C1) n - 1
REM
REM in /home/bkarasulu/work/CARBON/AIRSS/Generating-Clusters/EDIP-Nigel-Params/with-SteepDescent/Higher-Symm/SD-CG/HFTN-CG
REM
REM
REM
REM
REM
REM ./C.cell (12c818d87b63d06a65506943cc24bca4)
REM
REM compiler GCC version 9.2.1 20190827 (Red Hat 9.2.1-1)
REM options -cpp -mtune=generic -march=x86-64 -g -O0 -fpre-include=/usr/include/finclude/math-vector-fortran.h
REM seed -116917064 -790985859 -931145425 1827050227 -1114651654 601275704 -427554762 319642930 -682526895 -1247941820 -1562921899 243028021 1401137671 -1953216778 -1555863247 -240607950 375211077 1559345608 -397503765 -2041390945 -1447023340 191376333 1705199652 837809561 -1051330064 -252307352 -14040626 -292279777 -1740357075 5904875 1117009218 768003246 2144854535
REM
CELL 1.54180   50.00000   50.00000   50.00000   90.00000   90.00000   90.00000
LATT -1
SFAC C  
C      1  0.5073100000000  0.5360580000000  0.4738890000000 1.0
C      1  0.5099770000000  0.4860900000000  0.4681980000000 1.0
C      1  0.5098040000000  0.4526120000000  0.5053940000000 1.0
C      1  0.5121780000000  0.4887740000000  0.5392750000000 1.0
C      1  0.5016560000000  0.5343810000000  0.5230070000000 1.0
C      1  0.5161810000000  0.5155180000000  0.5383660000000 1.0
C      1  0.5106320000000  0.5469320000000  0.4990540000000 1.0
C      1  0.5114700000000  0.5119690000000  0.4624510000000 1.0
C      1  0.5096570000000  0.4627620000000  0.4808450000000 1.0
C      1  0.5107420000000  0.4642070000000  0.5292860000000 1.0
C      1  0.4707330000000  0.5037520000000  0.5028630000000 1.0
C      1  0.4972890000000  0.5095490000000  0.5034250000000 1.0
END
