TITL C-3578196-9646-334 2.75781326307062e-06 125000 -118.676373158486 0 0 20 (D3d) n - 1
REM
REM in /home/bkarasulu/work/CARBON/AIRSS/Generating-Clusters/EDIP-Nigel-Params/with-SteepDescent/Higher-Symm/SD-CG/HFTN-CG
REM
REM
REM
REM
REM
REM ./C.cell (12c818d87b63d06a65506943cc24bca4)
REM
REM compiler GCC version 9.2.1 20190827 (Red Hat 9.2.1-1)
REM options -cpp -mtune=generic -march=x86-64 -g -O0 -fpre-include=/usr/include/finclude/math-vector-fortran.h
REM seed 1765440357 170490794 90322884 249939438 -1802018827 363384769 620312411 -1810822444 -864312824 -1070500255 -1097007357 -997331738 -34320267 -484732611 966348028 410273754 882369895 1532701138 -1265790040 406249845 -1129543857 -1182402426 -1728895238 -138800219 -324740576 -1619090709 -630945803 1035704967 1129597119 -571215836 -519119455 1912881104 -1786225833
REM
CELL 1.54180   50.00000   50.00000   50.00000   90.00000   90.00000   90.00000
LATT -1
SFAC C  
C      1  0.4838880000000  0.5007170000000  0.5398930000000 1.0
C      1  0.5137330000000  0.4989810000000  0.4621840000000 1.0
C      1  0.4983990000000  0.4612260000000  0.5165700000000 1.0
C      1  0.4600430000000  0.5150150000000  0.5006370000000 1.0
C      1  0.4992210000000  0.5384710000000  0.4855070000000 1.0
C      1  0.5375770000000  0.4846820000000  0.5014410000000 1.0
C      1  0.4962920000000  0.4637700000000  0.4863680000000 1.0
C      1  0.5013280000000  0.5359280000000  0.5157090000000 1.0
C      1  0.5140590000000  0.5026030000000  0.5368600000000 1.0
C      1  0.4835610000000  0.4970940000000  0.4652180000000 1.0
C      1  0.5347660000000  0.5148890000000  0.5030930000000 1.0
C      1  0.4628540000000  0.4848090000000  0.4989850000000 1.0
C      1  0.5226580000000  0.4756190000000  0.4770120000000 1.0
C      1  0.4749620000000  0.5240790000000  0.5250660000000 1.0
C      1  0.4745590000000  0.5236280000000  0.4769650000000 1.0
C      1  0.4749570000000  0.4759760000000  0.5254150000000 1.0
C      1  0.5279080000000  0.5290290000000  0.5294990000000 1.0
C      1  0.5226630000000  0.5237220000000  0.4766630000000 1.0
C      1  0.5230610000000  0.4760700000000  0.5251130000000 1.0
C      1  0.4697120000000  0.4706690000000  0.4725780000000 1.0
END
