TITL C-3578201-9217-487 -2.85718310292502e-06 125000 -759.441559168562 0 0 126 (C1) n - 1
REM
REM in /home/bkarasulu/work/CARBON/AIRSS/Generating-Clusters/EDIP-Nigel-Params/with-SteepDescent/Higher-Symm/SD-CG/HFTN-CG
REM
REM
REM
REM
REM
REM ./C.cell (12c818d87b63d06a65506943cc24bca4)
REM
REM compiler GCC version 9.2.1 20190827 (Red Hat 9.2.1-1)
REM options -cpp -mtune=generic -march=x86-64 -g -O0 -fpre-include=/usr/include/finclude/math-vector-fortran.h
REM seed 41870569 306679636 1179616029 -1001242369 -1491528387 -1739284942 790787104 -747680774 -2072962322 1497062803 1808038380 981975565 357199767 -345173150 1567210771 -2107232567 967268051 1948742280 -1846300321 -2001947093 1927686123 -843983370 -1109245449 -1087953708 -1039627215 -2091918649 1928203477 776969011 -1829562084 -992684969 405291251 -1394423184 -225128380
REM
CELL 1.54180   50.00000   50.00000   50.00000   90.00000   90.00000   90.00000
LATT -1
SFAC C  
C      1  0.4973670000000  0.4457900000000  0.5989300000000 1.0
C      1  0.4950420000000  0.5300330000000  0.6198940000000 1.0
C      1  0.4999050000000  0.5857170000000  0.5666310000000 1.0
C      1  0.4881330000000  0.6113540000000  0.4791690000000 1.0
C      1  0.5067180000000  0.5696990000000  0.4221690000000 1.0
C      1  0.4857030000000  0.5102610000000  0.3947130000000 1.0
C      1  0.5025760000000  0.4571910000000  0.4149070000000 1.0
C      1  0.5003660000000  0.3931870000000  0.4588150000000 1.0
C      1  0.5026520000000  0.3997240000000  0.5476450000000 1.0
C      1  0.5400350000000  0.5046390000000  0.5877800000000 1.0
C      1  0.5469400000000  0.5477050000000  0.5421490000000 1.0
C      1  0.5377220000000  0.5802740000000  0.4976690000000 1.0
C      1  0.5572290000000  0.5539570000000  0.4532070000000 1.0
C      1  0.5475690000000  0.5233100000000  0.4078550000000 1.0
C      1  0.5620080000000  0.4642490000000  0.4333580000000 1.0
C      1  0.5413980000000  0.4362100000000  0.4672710000000 1.0
C      1  0.5579570000000  0.4260540000000  0.5231600000000 1.0
C      1  0.5433200000000  0.4566690000000  0.5506410000000 1.0
C      1  0.4545500000000  0.4773180000000  0.5383040000000 1.0
C      1  0.4412980000000  0.5042630000000  0.5474550000000 1.0
C      1  0.4544830000000  0.5305390000000  0.5376360000000 1.0
C      1  0.4472940000000  0.5380970000000  0.5083850000000 1.0
C      1  0.4679340000000  0.5290160000000  0.4888000000000 1.0
C      1  0.4605510000000  0.5171350000000  0.4638960000000 1.0
C      1  0.4640130000000  0.4883710000000  0.4604890000000 1.0
C      1  0.4643150000000  0.4681720000000  0.4848280000000 1.0
C      1  0.4472650000000  0.4645300000000  0.5110820000000 1.0
C      1  0.5101130000000  0.4779630000000  0.4746180000000 1.0
C      1  0.4928470000000  0.4628620000000  0.4929190000000 1.0
C      1  0.5018740000000  0.4680540000000  0.5216170000000 1.0
C      1  0.4839360000000  0.4783930000000  0.5424860000000 1.0
C      1  0.4921600000000  0.5029110000000  0.5535840000000 1.0
C      1  0.4848660000000  0.5289140000000  0.5446950000000 1.0
C      1  0.5021580000000  0.5346990000000  0.5214110000000 1.0
C      1  0.4924010000000  0.5199110000000  0.4986810000000 1.0
C      1  0.5096600000000  0.5056030000000  0.4817000000000 1.0
C      1  0.5853010000000  0.4822790000000  0.5345730000000 1.0
C      1  0.5952730000000  0.5087160000000  0.5323960000000 1.0
C      1  0.5908680000000  0.5322880000000  0.5173990000000 1.0
C      1  0.6003490000000  0.5336220000000  0.4910240000000 1.0
C      1  0.5970300000000  0.5233610000000  0.4652700000000 1.0
C      1  0.6071550000000  0.4981540000000  0.4593850000000 1.0
C      1  0.6045760000000  0.4719200000000  0.4679680000000 1.0
C      1  0.6096880000000  0.4674200000000  0.4948500000000 1.0
C      1  0.5924500000000  0.4607270000000  0.5155900000000 1.0
C      1  0.4622070000000  0.5531260000000  0.5916200000000 1.0
C      1  0.4686250000000  0.5950810000000  0.5317030000000 1.0
C      1  0.4527000000000  0.5805860000000  0.4607530000000 1.0
C      1  0.4633880000000  0.5523080000000  0.4090440000000 1.0
C      1  0.4457410000000  0.4849260000000  0.4020650000000 1.0
C      1  0.4708320000000  0.4243070000000  0.4300030000000 1.0
C      1  0.4757360000000  0.4039530000000  0.4983340000000 1.0
C      1  0.4626320000000  0.4212540000000  0.5667280000000 1.0
C      1  0.4663490000000  0.4817480000000  0.6067450000000 1.0
C      1  0.5100250000000  0.5075860000000  0.6262460000000 1.0
C      1  0.5181870000000  0.5681410000000  0.5775210000000 1.0
C      1  0.5064260000000  0.6180800000000  0.4989250000000 1.0
C      1  0.5238040000000  0.5873050000000  0.4349280000000 1.0
C      1  0.5020990000000  0.5324750000000  0.3981090000000 1.0
C      1  0.5257480000000  0.4518900000000  0.4007510000000 1.0
C      1  0.5262770000000  0.3889300000000  0.4674380000000 1.0
C      1  0.5209460000000  0.3942330000000  0.5275680000000 1.0
C      1  0.5137010000000  0.4298740000000  0.5830210000000 1.0
C      1  0.4730990000000  0.4593210000000  0.5921090000000 1.0
C      1  0.4723660000000  0.5298970000000  0.6026670000000 1.0
C      1  0.4751340000000  0.5796530000000  0.5536960000000 1.0
C      1  0.4671620000000  0.5924550000000  0.4828640000000 1.0
C      1  0.4786920000000  0.5736190000000  0.4177270000000 1.0
C      1  0.4617970000000  0.5064170000000  0.4102640000000 1.0
C      1  0.4766630000000  0.4443900000000  0.4120680000000 1.0
C      1  0.4821150000000  0.4102130000000  0.4725350000000 1.0
C      1  0.4770790000000  0.4124180000000  0.5450030000000 1.0
C      1  0.4133430000000  0.5168630000000  0.4549670000000 1.0
C      1  0.4165400000000  0.4847790000000  0.4535480000000 1.0
C      1  0.4161230000000  0.4665590000000  0.4772980000000 1.0
C      1  0.4203490000000  0.4746240000000  0.5056700000000 1.0
C      1  0.4099800000000  0.4765400000000  0.5340030000000 1.0
C      1  0.4029540000000  0.5031270000000  0.5432170000000 1.0
C      1  0.4091730000000  0.5289770000000  0.5317510000000 1.0
C      1  0.4207790000000  0.5262230000000  0.5047660000000 1.0
C      1  0.4086150000000  0.5338470000000  0.4796000000000 1.0
C      1  0.5657210000000  0.4767490000000  0.5565540000000 1.0
C      1  0.5516110000000  0.5023850000000  0.5624670000000 1.0
C      1  0.5696650000000  0.5532780000000  0.5231500000000 1.0
C      1  0.5557430000000  0.5586760000000  0.4971600000000 1.0
C      1  0.5803310000000  0.5362990000000  0.4442610000000 1.0
C      1  0.5691470000000  0.5161950000000  0.4253390000000 1.0
C      1  0.5828920000000  0.4545410000000  0.4561400000000 1.0
C      1  0.5700260000000  0.4358300000000  0.4762240000000 1.0
C      1  0.5679950000000  0.4464910000000  0.5052320000000 1.0
C      1  0.5387070000000  0.4489940000000  0.4249940000000 1.0
C      1  0.5260240000000  0.4145710000000  0.4781730000000 1.0
C      1  0.5364210000000  0.4151860000000  0.5369070000000 1.0
C      1  0.5262450000000  0.4528720000000  0.5740330000000 1.0
C      1  0.5300100000000  0.5174880000000  0.6098440000000 1.0
C      1  0.5330040000000  0.5699470000000  0.5542780000000 1.0
C      1  0.5246810000000  0.6015950000000  0.4862240000000 1.0
C      1  0.5440150000000  0.5685410000000  0.4317330000000 1.0
C      1  0.5206270000000  0.5146310000000  0.4090720000000 1.0
C      1  0.5551680000000  0.4823280000000  0.4565650000000 1.0
C      1  0.5370800000000  0.4664540000000  0.4754250000000 1.0
C      1  0.5477140000000  0.4681430000000  0.5030200000000 1.0
C      1  0.5312270000000  0.4735110000000  0.5273470000000 1.0
C      1  0.5338520000000  0.5019070000000  0.5384910000000 1.0
C      1  0.5313720000000  0.5285130000000  0.5241520000000 1.0
C      1  0.5434970000000  0.5313600000000  0.4945300000000 1.0
C      1  0.5409060000000  0.5320540000000  0.4647270000000 1.0
C      1  0.5448160000000  0.5094140000000  0.4444020000000 1.0
C      1  0.4412770000000  0.5055150000000  0.5759910000000 1.0
C      1  0.4354260000000  0.5491680000000  0.5517390000000 1.0
C      1  0.4416440000000  0.5658910000000  0.5079150000000 1.0
C      1  0.4342840000000  0.5572590000000  0.4623000000000 1.0
C      1  0.4396300000000  0.5311770000000  0.4478220000000 1.0
C      1  0.4434780000000  0.4793900000000  0.4404260000000 1.0
C      1  0.4480810000000  0.4478310000000  0.4674500000000 1.0
C      1  0.4462790000000  0.4361590000000  0.5160110000000 1.0
C      1  0.4368740000000  0.4606270000000  0.5563680000000 1.0
C      1  0.4642380000000  0.5873380000000  0.4365670000000 1.0
C      1  0.4482320000000  0.5308100000000  0.4183030000000 1.0
C      1  0.4521610000000  0.4586540000000  0.4086450000000 1.0
C      1  0.4626190000000  0.4239460000000  0.4565510000000 1.0
C      1  0.4637320000000  0.4149900000000  0.5201240000000 1.0
C      1  0.4527430000000  0.4454380000000  0.5762540000000 1.0
C      1  0.4569310000000  0.5062530000000  0.5986240000000 1.0
C      1  0.4537970000000  0.5654320000000  0.5679950000000 1.0
C      1  0.4556470000000  0.5891860000000  0.5082130000000 1.0
END
