TITL C-3578203-1966-233 -1.94291150434123e-06 125000 -306.972506682388 0 0 53 (C1) n - 1
REM
REM in /home/bkarasulu/work/CARBON/AIRSS/Generating-Clusters/EDIP-Nigel-Params/with-SteepDescent/Higher-Symm/SD-CG/HFTN-CG
REM
REM
REM
REM
REM
REM ./C.cell (12c818d87b63d06a65506943cc24bca4)
REM
REM compiler GCC version 9.2.1 20190827 (Red Hat 9.2.1-1)
REM options -cpp -mtune=generic -march=x86-64 -g -O0 -fpre-include=/usr/include/finclude/math-vector-fortran.h
REM seed -1660570526 -1282545865 1181155927 -744318989 1057389621 -1277019100 768980318 1619433586 310459238 -1137766989 1245348739 668780403 -86793315 -143284205 677661454 -1458574478 -35738717 -65165427 -1442805968 92025777 567467597 -824927265 -82835278 -366476017 1022367944 1453654412 1462876063 1840077947 -1770126537 1119192231 1467083909 -1560745882 1191313414
REM
CELL 1.54180   50.00000   50.00000   50.00000   90.00000   90.00000   90.00000
LATT -1
SFAC C  
C      1  0.5469900000000  0.4919850000000  0.5411440000000 1.0
C      1  0.5669840000000  0.5098380000000  0.5790760000000 1.0
C      1  0.5322580000000  0.5315750000000  0.4708170000000 1.0
C      1  0.5314250000000  0.4625220000000  0.4690940000000 1.0
C      1  0.4734380000000  0.4503820000000  0.5315540000000 1.0
C      1  0.4753810000000  0.5465420000000  0.5330320000000 1.0
C      1  0.4560340000000  0.4608590000000  0.5111980000000 1.0
C      1  0.4574820000000  0.5380300000000  0.5121360000000 1.0
C      1  0.5073080000000  0.5632860000000  0.5004080000000 1.0
C      1  0.5040310000000  0.4322860000000  0.4982760000000 1.0
C      1  0.4810620000000  0.5159540000000  0.4210170000000 1.0
C      1  0.4802570000000  0.4828420000000  0.4204370000000 1.0
C      1  0.5384300000000  0.4730410000000  0.4437840000000 1.0
C      1  0.5392180000000  0.5223690000000  0.4449440000000 1.0
C      1  0.5084560000000  0.5470340000000  0.4760060000000 1.0
C      1  0.5064870000000  0.4488470000000  0.4741580000000 1.0
C      1  0.4748730000000  0.4223000000000  0.5048730000000 1.0
C      1  0.4790350000000  0.5752810000000  0.5072330000000 1.0
C      1  0.4875600000000  0.5409620000000  0.4314330000000 1.0
C      1  0.4857010000000  0.4572040000000  0.4298980000000 1.0
C      1  0.5003520000000  0.4435720000000  0.5251130000000 1.0
C      1  0.5027640000000  0.5515740000000  0.5268900000000 1.0
C      1  0.4564380000000  0.5608720000000  0.4938390000000 1.0
C      1  0.4533000000000  0.4387290000000  0.4922180000000 1.0
C      1  0.4606310000000  0.4398710000000  0.4654420000000 1.0
C      1  0.4634570000000  0.5596400000000  0.4669690000000 1.0
C      1  0.4882560000000  0.5537260000000  0.4559600000000 1.0
C      1  0.4856960000000  0.4440040000000  0.4542060000000 1.0
C      1  0.5208450000000  0.4972910000000  0.5350540000000 1.0
C      1  0.5126250000000  0.4957140000000  0.5076550000000 1.0
C      1  0.5048920000000  0.4968880000000  0.5584210000000 1.0
C      1  0.5735160000000  0.5036190000000  0.5077710000000 1.0
C      1  0.5252920000000  0.4980870000000  0.4370780000000 1.0
C      1  0.4796830000000  0.5053470000000  0.5618060000000 1.0
C      1  0.5584550000000  0.4970400000000  0.4666850000000 1.0
C      1  0.4274580000000  0.5004680000000  0.4492070000000 1.0
C      1  0.4606490000000  0.4993260000000  0.5148670000000 1.0
C      1  0.4582150000000  0.4988390000000  0.5448600000000 1.0
C      1  0.5847540000000  0.5051310000000  0.4798660000000 1.0
C      1  0.6023250000000  0.5127980000000  0.5041910000000 1.0
C      1  0.4318390000000  0.5014400000000  0.5537800000000 1.0
C      1  0.4948200000000  0.4986730000000  0.4428680000000 1.0
C      1  0.4855870000000  0.4988220000000  0.4980000000000 1.0
C      1  0.5416250000000  0.5077290000000  0.5884040000000 1.0
C      1  0.5694720000000  0.5033860000000  0.5521060000000 1.0
C      1  0.5151430000000  0.5042670000000  0.5822980000000 1.0
C      1  0.4159470000000  0.5015690000000  0.5319540000000 1.0
C      1  0.5896880000000  0.5112060000000  0.5324500000000 1.0
C      1  0.5346120000000  0.4965380000000  0.4876140000000 1.0
C      1  0.4786710000000  0.4986900000000  0.4696510000000 1.0
C      1  0.4213430000000  0.5006100000000  0.4775810000000 1.0
C      1  0.4496170000000  0.5000830000000  0.4666820000000 1.0
C      1  0.4177770000000  0.5009550000000  0.5052440000000 1.0
END
