TITL C-3578205-846-559 -3.58589848344873e-06 125000 -929.916226472842 0 0 150 (C1) n - 1
REM
REM in /home/bkarasulu/work/CARBON/AIRSS/Generating-Clusters/EDIP-Nigel-Params/with-SteepDescent/Higher-Symm/SD-CG/HFTN-CG
REM
REM
REM
REM
REM
REM ./C.cell (12c818d87b63d06a65506943cc24bca4)
REM
REM compiler GCC version 9.2.1 20190827 (Red Hat 9.2.1-1)
REM options -cpp -mtune=generic -march=x86-64 -g -O0 -fpre-include=/usr/include/finclude/math-vector-fortran.h
REM seed 1043263256 -571216134 2066826478 -999703933 725605077 -1104071859 327219638 2001510509 -1653301089 -1000707222 1228294205 -2070538260 -60259788 1316120442 1917042676 -517905093 -572049775 -369917304 1063470306 421283548 -1598688777 -1443104000 -534197950 -922558053 451639324 789835118 885961213 989896953 1912902114 -914610410 674290263 2112229127 1057304872
REM
CELL 1.54180   50.00000   50.00000   50.00000   90.00000   90.00000   90.00000
LATT -1
SFAC C  
C      1  0.4311130000000  0.5312520000000  0.4418990000000 1.0
C      1  0.5341410000000  0.5783590000000  0.4407170000000 1.0
C      1  0.5736760000000  0.4669600000000  0.4354000000000 1.0
C      1  0.4662670000000  0.4275400000000  0.4435590000000 1.0
C      1  0.4308230000000  0.5347710000000  0.5603890000000 1.0
C      1  0.5338750000000  0.5778410000000  0.5618870000000 1.0
C      1  0.5720390000000  0.4642340000000  0.5646040000000 1.0
C      1  0.4630930000000  0.4288410000000  0.5595110000000 1.0
C      1  0.5380170000000  0.4300370000000  0.5495950000000 1.0
C      1  0.4257840000000  0.4587530000000  0.5546980000000 1.0
C      1  0.4561180000000  0.5748080000000  0.5570850000000 1.0
C      1  0.5674760000000  0.5445270000000  0.5523640000000 1.0
C      1  0.5419470000000  0.4305440000000  0.4501380000000 1.0
C      1  0.4275250000000  0.4563800000000  0.4497620000000 1.0
C      1  0.4582890000000  0.5692850000000  0.4502680000000 1.0
C      1  0.5680320000000  0.5450870000000  0.4498560000000 1.0
C      1  0.4354410000000  0.4967720000000  0.4066000000000 1.0
C      1  0.5011170000000  0.5562800000000  0.4163430000000 1.0
C      1  0.5637830000000  0.5077770000000  0.4044910000000 1.0
C      1  0.5014030000000  0.4445100000000  0.4166250000000 1.0
C      1  0.4371060000000  0.4994840000000  0.5942040000000 1.0
C      1  0.5018350000000  0.5568420000000  0.5865870000000 1.0
C      1  0.5637130000000  0.5055320000000  0.5967990000000 1.0
C      1  0.4988440000000  0.4453560000000  0.5847720000000 1.0
C      1  0.5265940000000  0.4455870000000  0.5959680000000 1.0
C      1  0.4611280000000  0.4839500000000  0.5925940000000 1.0
C      1  0.4770650000000  0.5505250000000  0.6020960000000 1.0
C      1  0.5419870000000  0.5246330000000  0.5958380000000 1.0
C      1  0.5288130000000  0.4469160000000  0.4048980000000 1.0
C      1  0.4606120000000  0.4831440000000  0.4083400000000 1.0
C      1  0.4760110000000  0.5501390000000  0.4014690000000 1.0
C      1  0.5417360000000  0.5265110000000  0.4057700000000 1.0
C      1  0.4404840000000  0.5096620000000  0.4831900000000 1.0
C      1  0.5047430000000  0.5583300000000  0.4717390000000 1.0
C      1  0.5548320000000  0.5011090000000  0.4764070000000 1.0
C      1  0.4974700000000  0.4471380000000  0.4678760000000 1.0
C      1  0.4414680000000  0.5062600000000  0.5159380000000 1.0
C      1  0.5039930000000  0.5592140000000  0.5302670000000 1.0
C      1  0.5555090000000  0.5017490000000  0.5250090000000 1.0
C      1  0.4917950000000  0.4457150000000  0.5309940000000 1.0
C      1  0.5518680000000  0.5572910000000  0.4279510000000 1.0
C      1  0.5448000000000  0.4537540000000  0.4306680000000 1.0
C      1  0.4521570000000  0.4530000000000  0.4328120000000 1.0
C      1  0.4553780000000  0.5463420000000  0.4308330000000 1.0
C      1  0.5510650000000  0.5561230000000  0.5743040000000 1.0
C      1  0.5433890000000  0.4513640000000  0.5702960000000 1.0
C      1  0.4496870000000  0.4533240000000  0.5715320000000 1.0
C      1  0.4545250000000  0.5492290000000  0.5734160000000 1.0
C      1  0.5152920000000  0.4840800000000  0.5194960000000 1.0
C      1  0.4882870000000  0.4715540000000  0.5162580000000 1.0
C      1  0.4842900000000  0.5153800000000  0.5224550000000 1.0
C      1  0.5124930000000  0.5120460000000  0.5276350000000 1.0
C      1  0.5269210000000  0.4801390000000  0.4927430000000 1.0
C      1  0.4837630000000  0.4661240000000  0.4858890000000 1.0
C      1  0.4844330000000  0.5099950000000  0.4788400000000 1.0
C      1  0.5106270000000  0.4993600000000  0.4752950000000 1.0
C      1  0.4153910000000  0.4916650000000  0.4792360000000 1.0
C      1  0.4884030000000  0.5861050000000  0.4784370000000 1.0
C      1  0.5837460000000  0.5126590000000  0.4777650000000 1.0
C      1  0.5061080000000  0.4100470000000  0.4815790000000 1.0
C      1  0.4134960000000  0.4930810000000  0.5238300000000 1.0
C      1  0.4884650000000  0.5858500000000  0.5257980000000 1.0
C      1  0.5833180000000  0.5123320000000  0.5239480000000 1.0
C      1  0.5085390000000  0.3971510000000  0.5279900000000 1.0
C      1  0.4723480000000  0.4782680000000  0.4382810000000 1.0
C      1  0.4761920000000  0.5267310000000  0.4388690000000 1.0
C      1  0.5310240000000  0.5254400000000  0.4354370000000 1.0
C      1  0.5280960000000  0.4757130000000  0.4420650000000 1.0
C      1  0.4736370000000  0.4826570000000  0.5631620000000 1.0
C      1  0.4750980000000  0.5300920000000  0.5631810000000 1.0
C      1  0.5306870000000  0.5240630000000  0.5660740000000 1.0
C      1  0.5278330000000  0.4739640000000  0.5602930000000 1.0
C      1  0.5204070000000  0.5171420000000  0.6147830000000 1.0
C      1  0.5247120000000  0.4668210000000  0.6142100000000 1.0
C      1  0.4816620000000  0.4960340000000  0.6116610000000 1.0
C      1  0.4832530000000  0.5254930000000  0.6165810000000 1.0
C      1  0.5197720000000  0.5184860000000  0.3873490000000 1.0
C      1  0.5253100000000  0.4684600000000  0.3873170000000 1.0
C      1  0.4814690000000  0.4965690000000  0.3906380000000 1.0
C      1  0.4822640000000  0.5259360000000  0.3858070000000 1.0
C      1  0.5774410000000  0.4578050000000  0.4637660000000 1.0
C      1  0.4585360000000  0.4268390000000  0.4719650000000 1.0
C      1  0.4317730000000  0.5361700000000  0.4724080000000 1.0
C      1  0.5335860000000  0.5711260000000  0.4700880000000 1.0
C      1  0.5746320000000  0.4557730000000  0.5357270000000 1.0
C      1  0.4567280000000  0.4294650000000  0.5300010000000 1.0
C      1  0.4286630000000  0.5447380000000  0.5322850000000 1.0
C      1  0.5331310000000  0.5711280000000  0.5322840000000 1.0
C      1  0.3918510000000  0.5123180000000  0.5159890000000 1.0
C      1  0.5067570000000  0.6080800000000  0.5165580000000 1.0
C      1  0.6038800000000  0.4916400000000  0.5155620000000 1.0
C      1  0.4845140000000  0.3850460000000  0.5175380000000 1.0
C      1  0.3927900000000  0.5113640000000  0.4854260000000 1.0
C      1  0.5068470000000  0.6081810000000  0.4861310000000 1.0
C      1  0.6049210000000  0.4926530000000  0.4862550000000 1.0
C      1  0.4857450000000  0.3888930000000  0.4868590000000 1.0
C      1  0.4364260000000  0.4473330000000  0.4772450000000 1.0
C      1  0.4549940000000  0.5567030000000  0.4779650000000 1.0
C      1  0.5547650000000  0.5491840000000  0.4764290000000 1.0
C      1  0.5623040000000  0.4338620000000  0.4707570000000 1.0
C      1  0.4291330000000  0.4455640000000  0.5283170000000 1.0
C      1  0.4431630000000  0.5707460000000  0.5303620000000 1.0
C      1  0.5542720000000  0.5492830000000  0.5258040000000 1.0
C      1  0.5563300000000  0.4346710000000  0.5268800000000 1.0
C      1  0.4987820000000  0.4637640000000  0.5592480000000 1.0
C      1  0.4660650000000  0.5082860000000  0.5455050000000 1.0
C      1  0.5028080000000  0.5411270000000  0.5601310000000 1.0
C      1  0.5451010000000  0.4983190000000  0.5542520000000 1.0
C      1  0.5001710000000  0.4636210000000  0.4411080000000 1.0
C      1  0.4666840000000  0.5043590000000  0.4563100000000 1.0
C      1  0.5031300000000  0.5399330000000  0.4417630000000 1.0
C      1  0.5448340000000  0.5001610000000  0.4469360000000 1.0
C      1  0.5054820000000  0.5824080000000  0.4291330000000 1.0
C      1  0.5708380000000  0.4982590000000  0.4311110000000 1.0
C      1  0.4942590000000  0.4204030000000  0.4327460000000 1.0
C      1  0.4294710000000  0.5032900000000  0.4330140000000 1.0
C      1  0.5057810000000  0.5831250000000  0.5740710000000 1.0
C      1  0.5711600000000  0.4963180000000  0.5702600000000 1.0
C      1  0.4907830000000  0.4214260000000  0.5694140000000 1.0
C      1  0.4286320000000  0.5067410000000  0.5687640000000 1.0
C      1  0.5357030000000  0.5968990000000  0.5171070000000 1.0
C      1  0.5965650000000  0.4635160000000  0.5185520000000 1.0
C      1  0.4567700000000  0.4020010000000  0.5173200000000 1.0
C      1  0.4038760000000  0.5407660000000  0.5163780000000 1.0
C      1  0.5357880000000  0.5967830000000  0.4857290000000 1.0
C      1  0.5994100000000  0.4646120000000  0.4808040000000 1.0
C      1  0.4580810000000  0.4015180000000  0.4862370000000 1.0
C      1  0.4044930000000  0.5405090000000  0.4848060000000 1.0
C      1  0.5145710000000  0.4320120000000  0.5121640000000 1.0
C      1  0.4544670000000  0.4787300000000  0.5159980000000 1.0
C      1  0.4839000000000  0.5428080000000  0.5140760000000 1.0
C      1  0.5384020000000  0.5239880000000  0.5155870000000 1.0
C      1  0.5246840000000  0.4494120000000  0.4859250000000 1.0
C      1  0.4550490000000  0.4684710000000  0.4869920000000 1.0
C      1  0.4820950000000  0.5406510000000  0.4852120000000 1.0
C      1  0.5381040000000  0.5242640000000  0.4856040000000 1.0
C      1  0.4166350000000  0.4836550000000  0.4506120000000 1.0
C      1  0.4811280000000  0.5882930000000  0.4493230000000 1.0
C      1  0.5851790000000  0.5205550000000  0.4482710000000 1.0
C      1  0.5168870000000  0.4131210000000  0.4531130000000 1.0
C      1  0.4155280000000  0.4865050000000  0.5525840000000 1.0
C      1  0.4819470000000  0.5893250000000  0.5544100000000 1.0
C      1  0.5847710000000  0.5198490000000  0.5533640000000 1.0
C      1  0.5135040000000  0.4130160000000  0.5514400000000 1.0
C      1  0.5816880000000  0.5362810000000  0.5011760000000 1.0
C      1  0.5545760000000  0.4273960000000  0.4983520000000 1.0
C      1  0.4155980000000  0.4630980000000  0.5051510000000 1.0
C      1  0.4614650000000  0.5798940000000  0.5064430000000 1.0
C      1  0.5101600000000  0.4906380000000  0.6101390000000 1.0
C      1  0.5101200000000  0.4917460000000  0.3919020000000 1.0
END
