TITL C-3578194-7807-172 -8.10786012908838e-07 125000 -412.568117288058 0 0 69 (C1) n - 1
REM
REM in /home/bkarasulu/work/CARBON/AIRSS/Generating-Clusters/EDIP-Nigel-Params/with-SteepDescent/Higher-Symm/SD-CG/HFTN-CG
REM
REM
REM
REM
REM
REM ./C.cell (12c818d87b63d06a65506943cc24bca4)
REM
REM compiler GCC version 9.2.1 20190827 (Red Hat 9.2.1-1)
REM options -cpp -mtune=generic -march=x86-64 -g -O0 -fpre-include=/usr/include/finclude/math-vector-fortran.h
REM seed 1981055976 -158695115 1818441616 -735669249 574638084 -459807566 -506180599 -2018546574 -260240991 1596687969 -1808689744 11699517 -1928165626 -23553641 424062089 -526138813 13324673 -1347139564 -141668599 1719289672 1181551153 -708277712 71318463 -573687288 1238314395 421386913 851819815 -1661218718 -1506997397 -983095802 2035520358 1087263465 -609989862
REM
CELL 1.54180   50.00000   50.00000   50.00000   90.00000   90.00000   90.00000
LATT -1
SFAC C  
C      1  0.5319730000000  0.5538000000000  0.5295020000000 1.0
C      1  0.4695610000000  0.5669220000000  0.5304120000000 1.0
C      1  0.4561660000000  0.5550610000000  0.4799250000000 1.0
C      1  0.5010920000000  0.5492200000000  0.4552670000000 1.0
C      1  0.5447360000000  0.5481250000000  0.4819820000000 1.0
C      1  0.5094320000000  0.5261240000000  0.3993720000000 1.0
C      1  0.5963020000000  0.4939490000000  0.4774890000000 1.0
C      1  0.5393570000000  0.4929020000000  0.5836180000000 1.0
C      1  0.4305580000000  0.5002210000000  0.5777610000000 1.0
C      1  0.4143410000000  0.4842130000000  0.4569260000000 1.0
C      1  0.5091970000000  0.4704290000000  0.5221040000000 1.0
C      1  0.4833640000000  0.4781690000000  0.5108070000000 1.0
C      1  0.4842890000000  0.4777620000000  0.4791080000000 1.0
C      1  0.5178400000000  0.4781660000000  0.4750570000000 1.0
C      1  0.5317000000000  0.4768610000000  0.5044440000000 1.0
C      1  0.5351420000000  0.4335540000000  0.4722730000000 1.0
C      1  0.5294750000000  0.4316380000000  0.5132920000000 1.0
C      1  0.4856860000000  0.4503610000000  0.5590930000000 1.0
C      1  0.4710850000000  0.4329820000000  0.5044910000000 1.0
C      1  0.4900430000000  0.4343270000000  0.4591320000000 1.0
C      1  0.5247600000000  0.4296690000000  0.5414450000000 1.0
C      1  0.4610120000000  0.4527030000000  0.5488310000000 1.0
C      1  0.4526790000000  0.4378180000000  0.4828440000000 1.0
C      1  0.5076250000000  0.4461260000000  0.4400990000000 1.0
C      1  0.5604500000000  0.4410840000000  0.4840930000000 1.0
C      1  0.5248250000000  0.5251990000000  0.5321500000000 1.0
C      1  0.4638290000000  0.5406720000000  0.5408330000000 1.0
C      1  0.4544880000000  0.5260030000000  0.4868720000000 1.0
C      1  0.4991400000000  0.5221140000000  0.4676380000000 1.0
C      1  0.5436960000000  0.5188980000000  0.4839040000000 1.0
C      1  0.4337990000000  0.4921280000000  0.4407460000000 1.0
C      1  0.5289530000000  0.5176060000000  0.4151240000000 1.0
C      1  0.5904630000000  0.4984440000000  0.5030300000000 1.0
C      1  0.5159130000000  0.5061940000000  0.5871890000000 1.0
C      1  0.4243130000000  0.5011050000000  0.5520630000000 1.0
C      1  0.4776530000000  0.5124730000000  0.5908660000000 1.0
C      1  0.4154910000000  0.4916800000000  0.5068730000000 1.0
C      1  0.4654540000000  0.5197210000000  0.4195890000000 1.0
C      1  0.5654420000000  0.4977430000000  0.4374780000000 1.0
C      1  0.5744830000000  0.4958120000000  0.5475260000000 1.0
C      1  0.4519440000000  0.5038690000000  0.5929500000000 1.0
C      1  0.4078560000000  0.4843210000000  0.4826110000000 1.0
C      1  0.4830090000000  0.5274060000000  0.4012770000000 1.0
C      1  0.5868000000000  0.4933660000000  0.4526880000000 1.0
C      1  0.5620910000000  0.4904370000000  0.5702880000000 1.0
C      1  0.5077830000000  0.5688330000000  0.5259360000000 1.0
C      1  0.4578240000000  0.5716020000000  0.5037270000000 1.0
C      1  0.4770500000000  0.5619330000000  0.4619120000000 1.0
C      1  0.5257760000000  0.5595730000000  0.4642470000000 1.0
C      1  0.5488380000000  0.5590710000000  0.5074930000000 1.0
C      1  0.5388360000000  0.5048630000000  0.4372920000000 1.0
C      1  0.5708980000000  0.5038830000000  0.5216000000000 1.0
C      1  0.4942720000000  0.5058930000000  0.5688130000000 1.0
C      1  0.4320490000000  0.5025440000000  0.5258410000000 1.0
C      1  0.4585030000000  0.5040660000000  0.4409790000000 1.0
C      1  0.5429180000000  0.5065410000000  0.5117390000000 1.0
C      1  0.4945370000000  0.5215920000000  0.5432650000000 1.0
C      1  0.4542680000000  0.5207970000000  0.5176430000000 1.0
C      1  0.4717480000000  0.5068330000000  0.4677450000000 1.0
C      1  0.5252580000000  0.5058880000000  0.4642040000000 1.0
C      1  0.5277410000000  0.4566120000000  0.4565470000000 1.0
C      1  0.5501870000000  0.4528730000000  0.5079290000000 1.0
C      1  0.5101530000000  0.4532370000000  0.5461440000000 1.0
C      1  0.4637770000000  0.4571240000000  0.5210890000000 1.0
C      1  0.4692950000000  0.4537010000000  0.4658160000000 1.0
C      1  0.4978160000000  0.5278220000000  0.4973250000000 1.0
C      1  0.4941240000000  0.5579220000000  0.5018550000000 1.0
C      1  0.4998460000000  0.4318680000000  0.4892810000000 1.0
C      1  0.4825060000000  0.5086890000000  0.5167790000000 1.0
END
