TITL C-3577078-809-36 -8.84540683988442e-08 125000 -280.691127609738 0 0 47 (C1) n - 1
REM
REM in /home/bkarasulu/work/CARBON/AIRSS/Generating-Clusters/EDIP-Nigel-Params/with-SteepDescent/Higher-Symm/SD-CG/HFTN-CG
REM
REM
REM
REM
REM
REM ./C.cell (12c818d87b63d06a65506943cc24bca4)
REM
REM compiler GCC version 9.2.1 20190827 (Red Hat 9.2.1-1)
REM options -cpp -mtune=generic -march=x86-64 -g -O0 -fpre-include=/usr/include/finclude/math-vector-fortran.h
REM seed 450581960 -414777296 -1941845475 -424546280 -454082802 162594655 2001549140 -57154740 -1294812463 -1534526381 -116899722 -1998275594 1482013081 -1714709051 153742176 239991647 1990298772 995028415 -2103199239 -20637459 -1743869391 -2055762 972775251 -1548608480 -1798128461 -1323418156 -28313730 -390551482 -561262566 1378129844 -798650108 -124203230 128244539
REM
CELL 1.54180   50.00000   50.00000   50.00000   90.00000   90.00000   90.00000
LATT -1
SFAC C  
C      1  0.5421660000000  0.4840190000000  0.5240930000000 1.0
C      1  0.5431280000000  0.4817820000000  0.4750800000000 1.0
C      1  0.5547330000000  0.4587120000000  0.5246680000000 1.0
C      1  0.5531980000000  0.4556050000000  0.4779780000000 1.0
C      1  0.4503260000000  0.4936200000000  0.4697110000000 1.0
C      1  0.4418550000000  0.4897850000000  0.5381060000000 1.0
C      1  0.5123040000000  0.4770510000000  0.5620630000000 1.0
C      1  0.5159350000000  0.4839170000000  0.4341250000000 1.0
C      1  0.4615090000000  0.5317120000000  0.4496160000000 1.0
C      1  0.4614150000000  0.5301550000000  0.5538020000000 1.0
C      1  0.5358360000000  0.5235610000000  0.4523820000000 1.0
C      1  0.5271600000000  0.5454870000000  0.5356860000000 1.0
C      1  0.4861000000000  0.5220130000000  0.4348650000000 1.0
C      1  0.4876610000000  0.5182970000000  0.5623820000000 1.0
C      1  0.5519280000000  0.5412050000000  0.5222880000000 1.0
C      1  0.5547760000000  0.5346950000000  0.4706520000000 1.0
C      1  0.4708440000000  0.4848870000000  0.5337270000000 1.0
C      1  0.4788810000000  0.4870850000000  0.4672040000000 1.0
C      1  0.5114840000000  0.5197970000000  0.5418480000000 1.0
C      1  0.5097090000000  0.5378570000000  0.4459210000000 1.0
C      1  0.4761060000000  0.5378440000000  0.4751200000000 1.0
C      1  0.4684940000000  0.5356690000000  0.5260430000000 1.0
C      1  0.5201320000000  0.5513850000000  0.4921850000000 1.0
C      1  0.5106730000000  0.5637280000000  0.5184330000000 1.0
C      1  0.4833050000000  0.5591100000000  0.5226450000000 1.0
C      1  0.5001380000000  0.5551280000000  0.4692620000000 1.0
C      1  0.4268360000000  0.4873670000000  0.5147510000000 1.0
C      1  0.4374010000000  0.4772430000000  0.4905820000000 1.0
C      1  0.4701080000000  0.4781650000000  0.5824660000000 1.0
C      1  0.4724950000000  0.4791540000000  0.4201250000000 1.0
C      1  0.5273640000000  0.4949930000000  0.5465310000000 1.0
C      1  0.5366710000000  0.4944040000000  0.4494840000000 1.0
C      1  0.4755930000000  0.4580590000000  0.5207560000000 1.0
C      1  0.4827440000000  0.4590470000000  0.4776520000000 1.0
C      1  0.4876080000000  0.5114760000000  0.4862350000000 1.0
C      1  0.4825070000000  0.5103560000000  0.5174140000000 1.0
C      1  0.4394440000000  0.5120650000000  0.5550140000000 1.0
C      1  0.4398720000000  0.5135040000000  0.4530410000000 1.0
C      1  0.4886000000000  0.4920380000000  0.4379310000000 1.0
C      1  0.4850580000000  0.4877940000000  0.5617380000000 1.0
C      1  0.5417210000000  0.4989890000000  0.4989810000000 1.0
C      1  0.4566960000000  0.4548470000000  0.4953220000000 1.0
C      1  0.5618800000000  0.5381910000000  0.4968890000000 1.0
C      1  0.5211620000000  0.5208460000000  0.4992320000000 1.0
C      1  0.5000490000000  0.4564130000000  0.5024480000000 1.0
C      1  0.5464670000000  0.4433700000000  0.5024790000000 1.0
C      1  0.5193520000000  0.4361640000000  0.5040410000000 1.0
END
