TITL C-3577077-324-383 3.75315384653518e-05 125000 -148.101081239373 0 0 27 (Cs) n - 1
REM
REM in /home/bkarasulu/work/CARBON/AIRSS/Generating-Clusters/EDIP-Nigel-Params/with-SteepDescent/Higher-Symm/SD-CG/HFTN-CG
REM
REM
REM
REM
REM
REM ./C.cell (12c818d87b63d06a65506943cc24bca4)
REM
REM compiler GCC version 9.2.1 20190827 (Red Hat 9.2.1-1)
REM options -cpp -mtune=generic -march=x86-64 -g -O0 -fpre-include=/usr/include/finclude/math-vector-fortran.h
REM seed 752898035 1834919305 -1032982440 1802975292 -1071689418 739085177 465133216 -885074167 -850119083 66865961 372890425 2086645243 -859777635 -1313439683 479826981 314944040 830838174 -42802775 -1655169513 2004149429 2076451107 -481933798 2072492559 -1464744219 237267248 -733061771 -1605047779 939824418 -693292313 1306754294 344604178 1819162471 373421343
REM
CELL 1.54180   50.00000   50.00000   50.00000   90.00000   90.00000   90.00000
LATT -1
SFAC C  
C      1  0.4538590000000  0.5166880000000  0.5690320000000 1.0
C      1  0.5520130000000  0.5164960000000  0.5310640000000 1.0
C      1  0.5459660000000  0.5165070000000  0.4369990000000 1.0
C      1  0.4485410000000  0.5165150000000  0.4638440000000 1.0
C      1  0.4538570000000  0.4884700000000  0.5690370000000 1.0
C      1  0.5520110000000  0.4886320000000  0.5310700000000 1.0
C      1  0.5459640000000  0.4885850000000  0.4370040000000 1.0
C      1  0.4485390000000  0.4886020000000  0.4638500000000 1.0
C      1  0.5293860000000  0.5409650000000  0.4773690000000 1.0
C      1  0.4907090000000  0.5412210000000  0.4747560000000 1.0
C      1  0.4811150000000  0.5365980000000  0.5329980000000 1.0
C      1  0.5069070000000  0.5371360000000  0.5232020000000 1.0
C      1  0.5293800000000  0.4641460000000  0.4773840000000 1.0
C      1  0.4907040000000  0.4638940000000  0.4747710000000 1.0
C      1  0.4811100000000  0.4685420000000  0.5330120000000 1.0
C      1  0.5069020000000  0.4679960000000  0.5232160000000 1.0
C      1  0.4761940000000  0.5217840000000  0.4595810000000 1.0
C      1  0.4596500000000  0.5211020000000  0.5410020000000 1.0
C      1  0.5253500000000  0.5219130000000  0.5392020000000 1.0
C      1  0.5465280000000  0.5217570000000  0.4649940000000 1.0
C      1  0.4761910000000  0.4833270000000  0.4595880000000 1.0
C      1  0.4596480000000  0.4840440000000  0.5410090000000 1.0
C      1  0.5253470000000  0.4832230000000  0.5392090000000 1.0
C      1  0.5465260000000  0.4833460000000  0.4650020000000 1.0
C      1  0.5087650000000  0.5301770000000  0.4939190000000 1.0
C      1  0.5087610000000  0.4749430000000  0.4939290000000 1.0
C      1  0.5083320000000  0.5025590000000  0.4905710000000 1.0
END
