TITL C-3577076-40-460 4.41249080678514e-06 125000 -394.216884249468 0 0 67 (C2) n - 1
REM
REM in /home/bkarasulu/work/CARBON/AIRSS/Generating-Clusters/EDIP-Nigel-Params/with-SteepDescent/Higher-Symm/SD-CG/HFTN-CG
REM
REM
REM
REM
REM
REM ./C.cell (12c818d87b63d06a65506943cc24bca4)
REM
REM compiler GCC version 9.2.1 20190827 (Red Hat 9.2.1-1)
REM options -cpp -mtune=generic -march=x86-64 -g -O0 -fpre-include=/usr/include/finclude/math-vector-fortran.h
REM seed -1172292733 -1990252106 419215837 -1072740350 -37244874 -884104625 1858454620 877980570 -631355469 1714258500 214890176 -25571797 -356882890 1507287433 833234026 1255933986 -1369020923 1141330054 2075510140 -1636687735 918591331 -1995055974 -735338337 -1057542906 -948112001 86146867 -1771787393 -1630509615 438348490 1516537311 851776700 2095441040 1050778364
REM
CELL 1.54180   50.00000   50.00000   50.00000   90.00000   90.00000   90.00000
LATT -1
SFAC C  
C      1  0.5760190000000  0.5244940000000  0.5264120000000 1.0
C      1  0.4853270000000  0.5268080000000  0.4226510000000 1.0
C      1  0.4388510000000  0.5225250000000  0.5471990000000 1.0
C      1  0.5759410000000  0.4744650000000  0.4752160000000 1.0
C      1  0.4829990000000  0.4744670000000  0.5769920000000 1.0
C      1  0.4393470000000  0.4798870000000  0.4514710000000 1.0
C      1  0.4245300000000  0.4834460000000  0.4774660000000 1.0
C      1  0.5138680000000  0.4741110000000  0.5787450000000 1.0
C      1  0.5603980000000  0.4747500000000  0.4490430000000 1.0
C      1  0.4245140000000  0.5193340000000  0.5208890000000 1.0
C      1  0.5162260000000  0.5263850000000  0.4215660000000 1.0
C      1  0.5599120000000  0.5246080000000  0.5522430000000 1.0
C      1  0.4654290000000  0.5230210000000  0.4559210000000 1.0
C      1  0.4775530000000  0.5197490000000  0.5459700000000 1.0
C      1  0.5584560000000  0.5196420000000  0.4916780000000 1.0
C      1  0.4639260000000  0.4787460000000  0.5433020000000 1.0
C      1  0.4780720000000  0.4816870000000  0.4535370000000 1.0
C      1  0.5577600000000  0.4797680000000  0.5095650000000 1.0
C      1  0.5384280000000  0.4782560000000  0.5490160000000 1.0
C      1  0.5222230000000  0.4817170000000  0.4537900000000 1.0
C      1  0.4372640000000  0.4746540000000  0.5037890000000 1.0
C      1  0.5400260000000  0.5216300000000  0.4518190000000 1.0
C      1  0.5216840000000  0.5186050000000  0.5466710000000 1.0
C      1  0.4380310000000  0.5277940000000  0.4948490000000 1.0
C      1  0.5781400000000  0.4928980000000  0.5279720000000 1.0
C      1  0.4854400000000  0.4955320000000  0.4276260000000 1.0
C      1  0.4374230000000  0.4904190000000  0.5513830000000 1.0
C      1  0.5788910000000  0.5059960000000  0.4737110000000 1.0
C      1  0.4840080000000  0.5057290000000  0.5720300000000 1.0
C      1  0.4388210000000  0.5120180000000  0.4472650000000 1.0
C      1  0.4219640000000  0.5140830000000  0.4727900000000 1.0
C      1  0.5137090000000  0.5056740000000  0.5730660000000 1.0
C      1  0.5655180000000  0.5058440000000  0.4461970000000 1.0
C      1  0.4210750000000  0.4887730000000  0.5255000000000 1.0
C      1  0.5151490000000  0.4948380000000  0.4272320000000 1.0
C      1  0.5641830000000  0.4933960000000  0.5551910000000 1.0
C      1  0.4422140000000  0.5568600000000  0.4940970000000 1.0
C      1  0.5291160000000  0.5472510000000  0.5477460000000 1.0
C      1  0.5301550000000  0.5497370000000  0.4481270000000 1.0
C      1  0.4406950000000  0.4454930000000  0.5046240000000 1.0
C      1  0.5289510000000  0.4528930000000  0.4528670000000 1.0
C      1  0.5277750000000  0.4504080000000  0.5524850000000 1.0
C      1  0.5576370000000  0.4516660000000  0.5003260000000 1.0
C      1  0.4679340000000  0.4539100000000  0.4542850000000 1.0
C      1  0.4701330000000  0.4502060000000  0.5505420000000 1.0
C      1  0.5588430000000  0.5477410000000  0.5009190000000 1.0
C      1  0.4681370000000  0.5477720000000  0.5450100000000 1.0
C      1  0.4725090000000  0.5513930000000  0.4488240000000 1.0
C      1  0.4845310000000  0.5571850000000  0.5224150000000 1.0
C      1  0.5312060000000  0.5583680000000  0.4990420000000 1.0
C      1  0.4870030000000  0.5627440000000  0.4716740000000 1.0
C      1  0.4835930000000  0.4440930000000  0.4772270000000 1.0
C      1  0.5297070000000  0.4417390000000  0.5016020000000 1.0
C      1  0.4848270000000  0.4384870000000  0.5280080000000 1.0
C      1  0.5139880000000  0.4441550000000  0.4765460000000 1.0
C      1  0.4687470000000  0.4387600000000  0.5025850000000 1.0
C      1  0.5140500000000  0.4446240000000  0.5271260000000 1.0
C      1  0.5148940000000  0.5563560000000  0.5237520000000 1.0
C      1  0.4703760000000  0.5628840000000  0.4967430000000 1.0
C      1  0.5160360000000  0.5558720000000  0.4731850000000 1.0
C      1  0.4662660000000  0.5201280000000  0.4863340000000 1.0
C      1  0.4654930000000  0.4816090000000  0.5129150000000 1.0
C      1  0.5312950000000  0.4852370000000  0.5211660000000 1.0
C      1  0.5321190000000  0.5148380000000  0.4795050000000 1.0
C      1  0.4986830000000  0.5150600000000  0.5239660000000 1.0
C      1  0.4988330000000  0.4858470000000  0.4759930000000 1.0
C      1  0.4842390000000  0.5006370000000  0.4998230000000 1.0
END
