TITL C-3578199-7832-137 7.19931181851978e-07 125000 -1251.64486547416 0 0 196 (Cs) n - 1
REM
REM in /home/bkarasulu/work/CARBON/AIRSS/Generating-Clusters/EDIP-Nigel-Params/with-SteepDescent/Higher-Symm/SD-CG/HFTN-CG
REM
REM
REM
REM
REM
REM ./C.cell (12c818d87b63d06a65506943cc24bca4)
REM
REM compiler GCC version 9.2.1 20190827 (Red Hat 9.2.1-1)
REM options -cpp -mtune=generic -march=x86-64 -g -O0 -fpre-include=/usr/include/finclude/math-vector-fortran.h
REM seed 1810363217 -1620881189 1891321381 -689101619 648611172 -1804598155 33759050 669262770 -278149857 -962502325 860720099 -464944912 -1071140432 861465127 -1172999775 -378139601 166443778 -1468274763 -913145729 893317248 -32286876 192409843 148438032 2087094293 1081559202 1730023824 -690960292 48241063 153762395 1745535936 7700199 1644894035 -1833541812
REM
CELL 1.54180   50.00000   50.00000   50.00000   90.00000   90.00000   90.00000
LATT -1
SFAC C  
C      1  0.3955000000000  0.4435390000000  0.5486130000000 1.0
C      1  0.3957510000000  0.5560500000000  0.4510160000000 1.0
C      1  0.6040860000000  0.4436890000000  0.5484360000000 1.0
C      1  0.6044650000000  0.5562850000000  0.4514160000000 1.0
C      1  0.3957050000000  0.4443040000000  0.4515800000000 1.0
C      1  0.3955040000000  0.5563730000000  0.5485410000000 1.0
C      1  0.6045360000000  0.4437220000000  0.4514210000000 1.0
C      1  0.6040520000000  0.5563260000000  0.5484470000000 1.0
C      1  0.4639470000000  0.5758820000000  0.5661400000000 1.0
C      1  0.4637000000000  0.4240000000000  0.4343080000000 1.0
C      1  0.5360070000000  0.5763200000000  0.5651430000000 1.0
C      1  0.5364310000000  0.4240780000000  0.4337780000000 1.0
C      1  0.4639260000000  0.5759790000000  0.4343010000000 1.0
C      1  0.4639940000000  0.4240590000000  0.5662160000000 1.0
C      1  0.5362640000000  0.5758720000000  0.4339120000000 1.0
C      1  0.5360630000000  0.4236580000000  0.5651460000000 1.0
C      1  0.5596810000000  0.5843920000000  0.5239330000000 1.0
C      1  0.5590100000000  0.4170130000000  0.4756500000000 1.0
C      1  0.4414420000000  0.5824740000000  0.5241340000000 1.0
C      1  0.4411960000000  0.4173390000000  0.4758180000000 1.0
C      1  0.5589560000000  0.5829590000000  0.4756800000000 1.0
C      1  0.5597250000000  0.4155800000000  0.5239250000000 1.0
C      1  0.4411190000000  0.5824970000000  0.4757420000000 1.0
C      1  0.4414990000000  0.4174290000000  0.5242330000000 1.0
C      1  0.4165350000000  0.5705700000000  0.5656280000000 1.0
C      1  0.4164090000000  0.4297910000000  0.4343120000000 1.0
C      1  0.5833710000000  0.5709100000000  0.5656620000000 1.0
C      1  0.5837380000000  0.4293090000000  0.4341480000000 1.0
C      1  0.4166040000000  0.5704920000000  0.4339520000000 1.0
C      1  0.4165650000000  0.4293570000000  0.5657040000000 1.0
C      1  0.5836140000000  0.5706560000000  0.4341720000000 1.0
C      1  0.5834160000000  0.4290940000000  0.5656530000000 1.0
C      1  0.4849020000000  0.3946870000000  0.5311880000000 1.0
C      1  0.4845590000000  0.6062930000000  0.4690730000000 1.0
C      1  0.5156940000000  0.3930060000000  0.5314520000000 1.0
C      1  0.5152320000000  0.6051680000000  0.4683510000000 1.0
C      1  0.4846000000000  0.3936640000000  0.4690660000000 1.0
C      1  0.4848390000000  0.6052420000000  0.5311320000000 1.0
C      1  0.5152620000000  0.3949220000000  0.4682240000000 1.0
C      1  0.5156340000000  0.6069370000000  0.5314280000000 1.0
C      1  0.4299230000000  0.4442780000000  0.4850110000000 1.0
C      1  0.4293640000000  0.5557890000000  0.5152660000000 1.0
C      1  0.5704710000000  0.4437850000000  0.4848010000000 1.0
C      1  0.5696930000000  0.5563720000000  0.5150150000000 1.0
C      1  0.4294730000000  0.4441150000000  0.5153710000000 1.0
C      1  0.4298820000000  0.5554700000000  0.4849000000000 1.0
C      1  0.5697240000000  0.4436080000000  0.5150040000000 1.0
C      1  0.5704320000000  0.5561920000000  0.4848180000000 1.0
C      1  0.5167720000000  0.5192440000000  0.4426670000000 1.0
C      1  0.5160820000000  0.4824870000000  0.5570430000000 1.0
C      1  0.4840850000000  0.5176590000000  0.4424650000000 1.0
C      1  0.4824810000000  0.4827400000000  0.5580640000000 1.0
C      1  0.5160510000000  0.5174660000000  0.5570350000000 1.0
C      1  0.5167750000000  0.4806850000000  0.4426820000000 1.0
C      1  0.4824330000000  0.5172360000000  0.5580540000000 1.0
C      1  0.4840560000000  0.4822870000000  0.4425280000000 1.0
C      1  0.5741670000000  0.3953720000000  0.4866140000000 1.0
C      1  0.5768060000000  0.6049820000000  0.5132110000000 1.0
C      1  0.4265790000000  0.3954700000000  0.4868420000000 1.0
C      1  0.4271710000000  0.6046110000000  0.5132160000000 1.0
C      1  0.5768690000000  0.3950020000000  0.5132080000000 1.0
C      1  0.5741200000000  0.6046120000000  0.4866150000000 1.0
C      1  0.4271970000000  0.3953080000000  0.5133280000000 1.0
C      1  0.4263980000000  0.6043040000000  0.4867370000000 1.0
C      1  0.5566450000000  0.5137330000000  0.4129480000000 1.0
C      1  0.5561600000000  0.4862590000000  0.5869230000000 1.0
C      1  0.4438630000000  0.5137720000000  0.4124920000000 1.0
C      1  0.4425690000000  0.4862320000000  0.5880630000000 1.0
C      1  0.5561470000000  0.5137290000000  0.5869250000000 1.0
C      1  0.5566650000000  0.4862560000000  0.4129460000000 1.0
C      1  0.4425650000000  0.5137320000000  0.5880860000000 1.0
C      1  0.4437640000000  0.4863330000000  0.4129090000000 1.0
C      1  0.4265840000000  0.5155620000000  0.4525890000000 1.0
C      1  0.4246320000000  0.4844460000000  0.5482400000000 1.0
C      1  0.5742880000000  0.5156080000000  0.4528510000000 1.0
C      1  0.5737110000000  0.4844150000000  0.5469390000000 1.0
C      1  0.4245830000000  0.5155060000000  0.5482850000000 1.0
C      1  0.4264120000000  0.4845990000000  0.4529900000000 1.0
C      1  0.5736970000000  0.5155770000000  0.5469430000000 1.0
C      1  0.5743080000000  0.4843810000000  0.4528500000000 1.0
C      1  0.5418760000000  0.5572970000000  0.4117960000000 1.0
C      1  0.5412650000000  0.4425140000000  0.5872150000000 1.0
C      1  0.4587160000000  0.5574580000000  0.4119100000000 1.0
C      1  0.4580940000000  0.4426660000000  0.5883900000000 1.0
C      1  0.5412200000000  0.5574650000000  0.5872100000000 1.0
C      1  0.5420210000000  0.4427140000000  0.4117460000000 1.0
C      1  0.4580670000000  0.5573110000000  0.5883480000000 1.0
C      1  0.4584270000000  0.4426440000000  0.4120370000000 1.0
C      1  0.3830550000000  0.5143780000000  0.5270270000000 1.0
C      1  0.3842370000000  0.4861830000000  0.4748840000000 1.0
C      1  0.6160850000000  0.5144330000000  0.5257230000000 1.0
C      1  0.6165070000000  0.4856000000000  0.4740330000000 1.0
C      1  0.3853720000000  0.5150190000000  0.4752840000000 1.0
C      1  0.3833140000000  0.4855470000000  0.5267670000000 1.0
C      1  0.6164900000000  0.5144250000000  0.4740310000000 1.0
C      1  0.6161040000000  0.4855920000000  0.5257250000000 1.0
C      1  0.3957060000000  0.5267560000000  0.5520920000000 1.0
C      1  0.3971720000000  0.4740870000000  0.4496270000000 1.0
C      1  0.6028400000000  0.5265190000000  0.5506520000000 1.0
C      1  0.6034400000000  0.4734730000000  0.4490670000000 1.0
C      1  0.3973410000000  0.5262120000000  0.4492650000000 1.0
C      1  0.3957860000000  0.4731660000000  0.5519560000000 1.0
C      1  0.6034080000000  0.5265380000000  0.4490630000000 1.0
C      1  0.6028610000000  0.4734930000000  0.5506490000000 1.0
C      1  0.5810100000000  0.4719870000000  0.5830180000000 1.0
C      1  0.5815640000000  0.5279400000000  0.4167370000000 1.0
C      1  0.4177890000000  0.4716950000000  0.5842080000000 1.0
C      1  0.4190470000000  0.5280350000000  0.4166220000000 1.0
C      1  0.5816260000000  0.4721120000000  0.4167200000000 1.0
C      1  0.5809850000000  0.5280180000000  0.5830200000000 1.0
C      1  0.4187710000000  0.4721780000000  0.4170420000000 1.0
C      1  0.4177850000000  0.5282510000000  0.5842730000000 1.0
C      1  0.5158010000000  0.5548940000000  0.4843770000000 1.0
C      1  0.5128850000000  0.4520050000000  0.5138260000000 1.0
C      1  0.4854240000000  0.5559270000000  0.4797070000000 1.0
C      1  0.4843150000000  0.4467940000000  0.5199250000000 1.0
C      1  0.5128310000000  0.5479340000000  0.5138110000000 1.0
C      1  0.5158350000000  0.4450740000000  0.4843860000000 1.0
C      1  0.4842500000000  0.5531300000000  0.5198910000000 1.0
C      1  0.4854350000000  0.4440360000000  0.4797500000000 1.0
C      1  0.3997750000000  0.4415500000000  0.5198290000000 1.0
C      1  0.4001410000000  0.5566330000000  0.4800750000000 1.0
C      1  0.5994880000000  0.4424330000000  0.5196700000000 1.0
C      1  0.6001470000000  0.5581050000000  0.4801810000000 1.0
C      1  0.4002260000000  0.4425870000000  0.4803070000000 1.0
C      1  0.3996620000000  0.5586010000000  0.5197240000000 1.0
C      1  0.6001890000000  0.4418940000000  0.4801800000000 1.0
C      1  0.5994550000000  0.5575630000000  0.5196770000000 1.0
C      1  0.4717340000000  0.4672570000000  0.4664400000000 1.0
C      1  0.4699270000000  0.5312060000000  0.5339500000000 1.0
C      1  0.5291460000000  0.4666790000000  0.4672580000000 1.0
C      1  0.5280180000000  0.5298800000000  0.5312680000000 1.0
C      1  0.4700110000000  0.4687360000000  0.5339720000000 1.0
C      1  0.4717790000000  0.5327190000000  0.4663400000000 1.0
C      1  0.5280510000000  0.4700820000000  0.5312700000000 1.0
C      1  0.5291210000000  0.5332850000000  0.4672480000000 1.0
C      1  0.5293210000000  0.5838640000000  0.4850290000000 1.0
C      1  0.5314300000000  0.4115100000000  0.5146780000000 1.0
C      1  0.4708910000000  0.5835310000000  0.4842610000000 1.0
C      1  0.4711810000000  0.4171850000000  0.5153460000000 1.0
C      1  0.5313860000000  0.5884260000000  0.5146900000000 1.0
C      1  0.5293640000000  0.4161160000000  0.4850060000000 1.0
C      1  0.4711240000000  0.5827200000000  0.5152920000000 1.0
C      1  0.4709530000000  0.4163900000000  0.4842920000000 1.0
C      1  0.5576030000000  0.5318760000000  0.4716980000000 1.0
C      1  0.5568070000000  0.4683120000000  0.5281610000000 1.0
C      1  0.4432800000000  0.5315670000000  0.4714670000000 1.0
C      1  0.4415410000000  0.4685020000000  0.5294240000000 1.0
C      1  0.5567780000000  0.5316670000000  0.5281680000000 1.0
C      1  0.5576300000000  0.4680890000000  0.4716800000000 1.0
C      1  0.4414360000000  0.5314480000000  0.5294260000000 1.0
C      1  0.4432110000000  0.4683290000000  0.4716020000000 1.0
C      1  0.4848160000000  0.5958300000000  0.5610580000000 1.0
C      1  0.4838640000000  0.4033110000000  0.4384710000000 1.0
C      1  0.5157250000000  0.5971650000000  0.5616070000000 1.0
C      1  0.5146630000000  0.4053730000000  0.4390040000000 1.0
C      1  0.4839510000000  0.5967980000000  0.4384670000000 1.0
C      1  0.4849000000000  0.4041470000000  0.5610960000000 1.0
C      1  0.5147660000000  0.5949560000000  0.4390070000000 1.0
C      1  0.5158040000000  0.4027940000000  0.5616370000000 1.0
C      1  0.5718560000000  0.4447500000000  0.5876580000000 1.0
C      1  0.5725420000000  0.5551660000000  0.4117570000000 1.0
C      1  0.4274000000000  0.4445080000000  0.5884140000000 1.0
C      1  0.4280370000000  0.5552110000000  0.4116090000000 1.0
C      1  0.5726730000000  0.4448630000000  0.4117460000000 1.0
C      1  0.5718130000000  0.5552480000000  0.5876630000000 1.0
C      1  0.4277400000000  0.4449830000000  0.4119080000000 1.0
C      1  0.4273790000000  0.5554560000000  0.5883690000000 1.0
C      1  0.5150340000000  0.5158680000000  0.6087370000000 1.0
C      1  0.5155200000000  0.4840730000000  0.3909670000000 1.0
C      1  0.4844070000000  0.5158460000000  0.6095270000000 1.0
C      1  0.4849260000000  0.4840770000000  0.3907350000000 1.0
C      1  0.5155500000000  0.5158130000000  0.3909420000000 1.0
C      1  0.5150370000000  0.4841160000000  0.6087410000000 1.0
C      1  0.4849940000000  0.5158970000000  0.3906560000000 1.0
C      1  0.4844070000000  0.4841370000000  0.6095340000000 1.0
C      1  0.5608860000000  0.4150570000000  0.5531710000000 1.0
C      1  0.5606840000000  0.5840610000000  0.4465840000000 1.0
C      1  0.4395570000000  0.4160850000000  0.5533280000000 1.0
C      1  0.4392420000000  0.5839950000000  0.4466670000000 1.0
C      1  0.5607900000000  0.4158900000000  0.4465400000000 1.0
C      1  0.5608330000000  0.5849290000000  0.5531750000000 1.0
C      1  0.4390680000000  0.4159810000000  0.4467390000000 1.0
C      1  0.4395060000000  0.5838430000000  0.5532400000000 1.0
C      1  0.4685040000000  0.4725350000000  0.5862300000000 1.0
C      1  0.4696560000000  0.5276500000000  0.4142180000000 1.0
C      1  0.5304580000000  0.4722810000000  0.5850670000000 1.0
C      1  0.5309790000000  0.5278040000000  0.4144640000000 1.0
C      1  0.4695400000000  0.4723760000000  0.4143540000000 1.0
C      1  0.4684870000000  0.5274410000000  0.5862230000000 1.0
C      1  0.5310130000000  0.4721470000000  0.4144680000000 1.0
C      1  0.5304370000000  0.5276930000000  0.5850570000000 1.0
C      1  0.6182520000000  0.4700950000000  0.4998830000000 1.0
C      1  0.6182490000000  0.5299290000000  0.4998810000000 1.0
C      1  0.3821560000000  0.4703640000000  0.5006040000000 1.0
C      1  0.3812020000000  0.5300780000000  0.5012280000000 1.0
END
