TITL C-3578204-4308-495 -2.09845285872228e-06 125000 -633.219382857945 0 0 102 (Ci) n - 1
REM
REM in /home/bkarasulu/work/CARBON/AIRSS/Generating-Clusters/EDIP-Nigel-Params/with-SteepDescent/Higher-Symm/SD-CG/HFTN-CG
REM
REM
REM
REM
REM
REM ./C.cell (12c818d87b63d06a65506943cc24bca4)
REM
REM compiler GCC version 9.2.1 20190827 (Red Hat 9.2.1-1)
REM options -cpp -mtune=generic -march=x86-64 -g -O0 -fpre-include=/usr/include/finclude/math-vector-fortran.h
REM seed -464673767 2013473187 -2003163020 -161482425 305113830 -112437588 979408195 -1779374929 685509357 -1526368730 1682306486 -1735085680 -757021086 -835733126 -1402500962 469791306 -1360701955 1256680463 -980815188 2067902024 -96367977 1038204978 388399357 1578150480 1154389327 -444295949 -868375235 963888691 -1428680974 -1776506423 -94805221 -427964393 -1762633187
REM
CELL 1.54180   50.00000   50.00000   50.00000   90.00000   90.00000   90.00000
LATT -1
SFAC C  
C      1  0.5621470000000  0.4406230000000  0.4936300000000 1.0
C      1  0.4378530000000  0.5593770000000  0.5063700000000 1.0
C      1  0.5048630000000  0.5160560000000  0.4589580000000 1.0
C      1  0.4951370000000  0.4839440000000  0.5410420000000 1.0
C      1  0.4379310000000  0.4208520000000  0.5152670000000 1.0
C      1  0.5620690000000  0.5791480000000  0.4847330000000 1.0
C      1  0.5317940000000  0.5312490000000  0.4908100000000 1.0
C      1  0.4682060000000  0.4687510000000  0.5091900000000 1.0
C      1  0.5122380000000  0.4420360000000  0.5212470000000 1.0
C      1  0.4877620000000  0.5579640000000  0.4787530000000 1.0
C      1  0.5198100000000  0.4820100000000  0.4933200000000 1.0
C      1  0.4801900000000  0.5179900000000  0.5066800000000 1.0
C      1  0.4290970000000  0.5502870000000  0.4492080000000 1.0
C      1  0.5709030000000  0.4497130000000  0.5507920000000 1.0
C      1  0.5505220000000  0.4314280000000  0.5407300000000 1.0
C      1  0.4494780000000  0.5685720000000  0.4592700000000 1.0
C      1  0.5616450000000  0.4990720000000  0.5408310000000 1.0
C      1  0.4383550000000  0.5009280000000  0.4591690000000 1.0
C      1  0.4634660000000  0.4486400000000  0.4441360000000 1.0
C      1  0.5365340000000  0.5513600000000  0.5558640000000 1.0
C      1  0.5550460000000  0.5161910000000  0.4127420000000 1.0
C      1  0.4449540000000  0.4838090000000  0.5872580000000 1.0
C      1  0.5200770000000  0.5567890000000  0.4784430000000 1.0
C      1  0.4799230000000  0.4432110000000  0.5215570000000 1.0
C      1  0.5621990000000  0.4695050000000  0.4967460000000 1.0
C      1  0.4378010000000  0.5304950000000  0.5032540000000 1.0
C      1  0.4399270000000  0.4864000000000  0.4145650000000 1.0
C      1  0.5600730000000  0.5136000000000  0.5854350000000 1.0
C      1  0.4745390000000  0.5728650000000  0.4463760000000 1.0
C      1  0.5254610000000  0.4271350000000  0.5536240000000 1.0
C      1  0.4442620000000  0.5689500000000  0.5319090000000 1.0
C      1  0.5557380000000  0.4310500000000  0.4680910000000 1.0
C      1  0.5192150000000  0.4885500000000  0.5845520000000 1.0
C      1  0.4807850000000  0.5114500000000  0.4154480000000 1.0
C      1  0.4225900000000  0.5123120000000  0.4828450000000 1.0
C      1  0.5774100000000  0.4876880000000  0.5171550000000 1.0
C      1  0.4946140000000  0.5649770000000  0.5199600000000 1.0
C      1  0.5053860000000  0.4350230000000  0.4800400000000 1.0
C      1  0.4739380000000  0.4732970000000  0.4818950000000 1.0
C      1  0.5260620000000  0.5267030000000  0.5181050000000 1.0
C      1  0.5743300000000  0.4961500000000  0.5684270000000 1.0
C      1  0.4256700000000  0.5038500000000  0.4315730000000 1.0
C      1  0.4700730000000  0.4489320000000  0.5502260000000 1.0
C      1  0.5299270000000  0.5510680000000  0.4497740000000 1.0
C      1  0.5495200000000  0.5309580000000  0.5360650000000 1.0
C      1  0.4504800000000  0.4690420000000  0.4639350000000 1.0
C      1  0.4298470000000  0.5329800000000  0.4248290000000 1.0
C      1  0.5701530000000  0.4670200000000  0.5751710000000 1.0
C      1  0.5222310000000  0.5702540000000  0.4300360000000 1.0
C      1  0.4777690000000  0.4297460000000  0.5699640000000 1.0
C      1  0.5165090000000  0.5357110000000  0.5714240000000 1.0
C      1  0.4834910000000  0.4642890000000  0.4285760000000 1.0
C      1  0.4683240000000  0.4854820000000  0.4146300000000 1.0
C      1  0.5316760000000  0.5145180000000  0.5853700000000 1.0
C      1  0.4923400000000  0.4806300000000  0.5721700000000 1.0
C      1  0.5076600000000  0.5193700000000  0.4278300000000 1.0
C      1  0.4731110000000  0.4131320000000  0.4821740000000 1.0
C      1  0.5268890000000  0.5868680000000  0.5178260000000 1.0
C      1  0.4355880000000  0.4803440000000  0.5608320000000 1.0
C      1  0.5644120000000  0.5196560000000  0.4391680000000 1.0
C      1  0.5020760000000  0.4654090000000  0.4753910000000 1.0
C      1  0.4979240000000  0.5345910000000  0.5246090000000 1.0
C      1  0.5600390000000  0.5471120000000  0.4488650000000 1.0
C      1  0.4399610000000  0.4528880000000  0.5511350000000 1.0
C      1  0.4142680000000  0.4934300000000  0.5064880000000 1.0
C      1  0.5857320000000  0.5065700000000  0.4935120000000 1.0
C      1  0.4725410000000  0.4932600000000  0.5245110000000 1.0
C      1  0.5274590000000  0.5067400000000  0.4754890000000 1.0
C      1  0.5753470000000  0.5342160000000  0.4964940000000 1.0
C      1  0.4246530000000  0.4657840000000  0.5035060000000 1.0
C      1  0.4774670000000  0.5578090000000  0.4227570000000 1.0
C      1  0.5225330000000  0.4421910000000  0.5772430000000 1.0
C      1  0.4943800000000  0.4495720000000  0.5824400000000 1.0
C      1  0.5056200000000  0.5504280000000  0.4175600000000 1.0
C      1  0.5374020000000  0.4675970000000  0.5740660000000 1.0
C      1  0.4625980000000  0.5324030000000  0.4259340000000 1.0
C      1  0.4666820000000  0.5185470000000  0.5632730000000 1.0
C      1  0.5333180000000  0.4814530000000  0.4367270000000 1.0
C      1  0.5306290000000  0.5025440000000  0.4161730000000 1.0
C      1  0.4693710000000  0.4974560000000  0.5838270000000 1.0
C      1  0.5507720000000  0.4985720000000  0.4564870000000 1.0
C      1  0.4492280000000  0.5014280000000  0.5435130000000 1.0
C      1  0.4654300000000  0.4198920000000  0.5091370000000 1.0
C      1  0.5345700000000  0.5801080000000  0.4908630000000 1.0
C      1  0.5176850000000  0.4722210000000  0.5238600000000 1.0
C      1  0.4823150000000  0.5277790000000  0.4761400000000 1.0
C      1  0.5721210000000  0.4858150000000  0.4734920000000 1.0
C      1  0.4278790000000  0.5141850000000  0.5265080000000 1.0
C      1  0.4268580000000  0.4452280000000  0.5249020000000 1.0
C      1  0.5731420000000  0.5547720000000  0.4750980000000 1.0
C      1  0.5720540000000  0.5438130000000  0.5227500000000 1.0
C      1  0.4279460000000  0.4561870000000  0.4772500000000 1.0
C      1  0.5061240000000  0.4735660000000  0.4465140000000 1.0
C      1  0.4938760000000  0.5264340000000  0.5534860000000 1.0
C      1  0.5469980000000  0.4269090000000  0.5130860000000 1.0
C      1  0.4530020000000  0.5730910000000  0.4869140000000 1.0
C      1  0.4766230000000  0.4255400000000  0.4566760000000 1.0
C      1  0.5233770000000  0.5744600000000  0.5433240000000 1.0
C      1  0.4706660000000  0.5748250000000  0.5317710000000 1.0
C      1  0.5293340000000  0.4251750000000  0.4682290000000 1.0
C      1  0.5424820000000  0.4748920000000  0.5418570000000 1.0
C      1  0.4575180000000  0.5251080000000  0.4581430000000 1.0
END
