TITL C-3578203-1966-507 -7.05963440600115e-07 125000 -721.871632423748 0 0 115 (C1) n - 1
REM
REM in /home/bkarasulu/work/CARBON/AIRSS/Generating-Clusters/EDIP-Nigel-Params/with-SteepDescent/Higher-Symm/SD-CG/HFTN-CG
REM
REM
REM
REM
REM
REM ./C.cell (12c818d87b63d06a65506943cc24bca4)
REM
REM compiler GCC version 9.2.1 20190827 (Red Hat 9.2.1-1)
REM options -cpp -mtune=generic -march=x86-64 -g -O0 -fpre-include=/usr/include/finclude/math-vector-fortran.h
REM seed 766556066 -1576487717 1908002731 -187157147 -824195057 1169010840 1234759922 810150046 527868274 1831255294 -1258898202 1064641747 -1785674521 -1516031048 918803267 -1008670345 2338989 -202944942 1078305553 -1270649880 -1522105397 150926174 1191989320 -1875102727 -1655852464 2055788362 296684985 -981574891 530141779 -308600001 1817676711 1491581406 1368886443
REM
CELL 1.54180   50.00000   50.00000   50.00000   90.00000   90.00000   90.00000
LATT -1
SFAC C  
C      1  0.4710210000000  0.5851780000000  0.5106850000000 1.0
C      1  0.4907290000000  0.5977780000000  0.5292840000000 1.0
C      1  0.5185160000000  0.5946590000000  0.5190120000000 1.0
C      1  0.5242100000000  0.5997640000000  0.4902100000000 1.0
C      1  0.5001270000000  0.5909650000000  0.4732920000000 1.0
C      1  0.4722860000000  0.5949780000000  0.4820750000000 1.0
C      1  0.4726830000000  0.4103740000000  0.5119830000000 1.0
C      1  0.4960790000000  0.4159060000000  0.5295500000000 1.0
C      1  0.5231410000000  0.4096660000000  0.5176740000000 1.0
C      1  0.5265690000000  0.4163150000000  0.4889270000000 1.0
C      1  0.5027210000000  0.4103010000000  0.4714950000000 1.0
C      1  0.4761000000000  0.4170310000000  0.4828240000000 1.0
C      1  0.5361750000000  0.5053330000000  0.5314930000000 1.0
C      1  0.5339800000000  0.5141560000000  0.5025030000000 1.0
C      1  0.5098390000000  0.5063870000000  0.4558460000000 1.0
C      1  0.4887100000000  0.5121610000000  0.4766270000000 1.0
C      1  0.4566740000000  0.5076800000000  0.5155610000000 1.0
C      1  0.4835530000000  0.5137470000000  0.5284560000000 1.0
C      1  0.5214410000000  0.4809980000000  0.5396650000000 1.0
C      1  0.5422490000000  0.4888980000000  0.4867230000000 1.0
C      1  0.5240650000000  0.4817300000000  0.4628790000000 1.0
C      1  0.4675030000000  0.4899180000000  0.4730510000000 1.0
C      1  0.4559950000000  0.4824920000000  0.5002540000000 1.0
C      1  0.4917200000000  0.4885340000000  0.5439220000000 1.0
C      1  0.5031640000000  0.4324700000000  0.5639620000000 1.0
C      1  0.5426410000000  0.4274970000000  0.5329150000000 1.0
C      1  0.5531090000000  0.4329750000000  0.4660320000000 1.0
C      1  0.5065060000000  0.4287410000000  0.4477000000000 1.0
C      1  0.4433920000000  0.4347180000000  0.4714810000000 1.0
C      1  0.4502810000000  0.4289870000000  0.5208570000000 1.0
C      1  0.4882250000000  0.5808700000000  0.5530870000000 1.0
C      1  0.5541370000000  0.5635520000000  0.5286740000000 1.0
C      1  0.5489270000000  0.5825980000000  0.4838270000000 1.0
C      1  0.4948330000000  0.5614890000000  0.4402550000000 1.0
C      1  0.4546670000000  0.5793300000000  0.4643310000000 1.0
C      1  0.4460820000000  0.5665690000000  0.5330650000000 1.0
C      1  0.5275650000000  0.5247840000000  0.4390260000000 1.0
C      1  0.4502340000000  0.5406050000000  0.4332760000000 1.0
C      1  0.4350270000000  0.5272540000000  0.5054450000000 1.0
C      1  0.4726200000000  0.5340030000000  0.5598970000000 1.0
C      1  0.5402570000000  0.5237040000000  0.5551620000000 1.0
C      1  0.5660750000000  0.5343870000000  0.4939700000000 1.0
C      1  0.5307600000000  0.4663240000000  0.4358940000000 1.0
C      1  0.4628710000000  0.4724980000000  0.4469110000000 1.0
C      1  0.4288940000000  0.4677900000000  0.5065910000000 1.0
C      1  0.4717690000000  0.4710760000000  0.5602480000000 1.0
C      1  0.5408410000000  0.4655120000000  0.5595030000000 1.0
C      1  0.5659760000000  0.4709380000000  0.4951810000000 1.0
C      1  0.4125000000000  0.5181020000000  0.4612710000000 1.0
C      1  0.4230450000000  0.5284120000000  0.5550140000000 1.0
C      1  0.5117270000000  0.5148220000000  0.5952240000000 1.0
C      1  0.5889800000000  0.5279810000000  0.5379650000000 1.0
C      1  0.5762490000000  0.5154690000000  0.4430860000000 1.0
C      1  0.4900170000000  0.5283760000000  0.4043120000000 1.0
C      1  0.4120640000000  0.4738030000000  0.4603990000000 1.0
C      1  0.4231650000000  0.4842930000000  0.5585180000000 1.0
C      1  0.5089410000000  0.4707760000000  0.5972270000000 1.0
C      1  0.5889110000000  0.4837150000000  0.5372990000000 1.0
C      1  0.5792080000000  0.4713990000000  0.4445200000000 1.0
C      1  0.4878960000000  0.4841600000000  0.4054800000000 1.0
C      1  0.5415290000000  0.5431380000000  0.4577800000000 1.0
C      1  0.4649290000000  0.5662060000000  0.4391990000000 1.0
C      1  0.4469180000000  0.5465950000000  0.4810230000000 1.0
C      1  0.4657180000000  0.5626060000000  0.5547270000000 1.0
C      1  0.5165660000000  0.5413570000000  0.5576290000000 1.0
C      1  0.5657120000000  0.5641000000000  0.5014500000000 1.0
C      1  0.5351950000000  0.4376820000000  0.4432780000000 1.0
C      1  0.4851100000000  0.4502620000000  0.4373420000000 1.0
C      1  0.4326010000000  0.4392010000000  0.4983480000000 1.0
C      1  0.4520690000000  0.4496450000000  0.5451910000000 1.0
C      1  0.5319180000000  0.4369930000000  0.5596260000000 1.0
C      1  0.5624670000000  0.4491570000000  0.5197300000000 1.0
C      1  0.5032870000000  0.5521150000000  0.5330560000000 1.0
C      1  0.5252700000000  0.5653830000000  0.5179360000000 1.0
C      1  0.5271160000000  0.5517220000000  0.4825220000000 1.0
C      1  0.5007370000000  0.5616610000000  0.4695210000000 1.0
C      1  0.4784030000000  0.5441000000000  0.4833270000000 1.0
C      1  0.4775930000000  0.5540740000000  0.5129540000000 1.0
C      1  0.4930360000000  0.4468610000000  0.5293280000000 1.0
C      1  0.5195150000000  0.4566340000000  0.5211230000000 1.0
C      1  0.5282500000000  0.4472730000000  0.4923150000000 1.0
C      1  0.5080310000000  0.4577850000000  0.4737330000000 1.0
C      1  0.4787380000000  0.4479710000000  0.4807060000000 1.0
C      1  0.4729300000000  0.4579220000000  0.5077580000000 1.0
C      1  0.5527350000000  0.5090880000000  0.4260650000000 1.0
C      1  0.4679110000000  0.5203000000000  0.4218780000000 1.0
C      1  0.4111350000000  0.5118710000000  0.4903550000000 1.0
C      1  0.4483190000000  0.5197720000000  0.5692510000000 1.0
C      1  0.5384540000000  0.5082860000000  0.5836260000000 1.0
C      1  0.5876680000000  0.5196330000000  0.5088380000000 1.0
C      1  0.5557040000000  0.4792060000000  0.4264780000000 1.0
C      1  0.4632840000000  0.4910000000000  0.4214270000000 1.0
C      1  0.4091120000000  0.4818700000000  0.4894800000000 1.0
C      1  0.4491070000000  0.4900240000000  0.5721760000000 1.0
C      1  0.5363130000000  0.4784450000000  0.5858070000000 1.0
C      1  0.5879470000000  0.4894230000000  0.5081710000000 1.0
C      1  0.5092920000000  0.5428330000000  0.4215990000000 1.0
C      1  0.4376590000000  0.5316640000000  0.4578320000000 1.0
C      1  0.4268370000000  0.5443020000000  0.5295190000000 1.0
C      1  0.4975190000000  0.5331570000000  0.5772740000000 1.0
C      1  0.5637430000000  0.5418910000000  0.5470940000000 1.0
C      1  0.5680440000000  0.5343270000000  0.4638670000000 1.0
C      1  0.5039280000000  0.4640110000000  0.4193560000000 1.0
C      1  0.4366470000000  0.4571840000000  0.4526350000000 1.0
C      1  0.4273180000000  0.4640750000000  0.5378550000000 1.0
C      1  0.4900470000000  0.4547800000000  0.5794080000000 1.0
C      1  0.5689290000000  0.4634290000000  0.5448260000000 1.0
C      1  0.5731890000000  0.4550740000000  0.4696170000000 1.0
C      1  0.4974660000000  0.4942100000000  0.6087520000000 1.0
C      1  0.4065270000000  0.4964410000000  0.4441020000000 1.0
C      1  0.4058100000000  0.5060430000000  0.5525790000000 1.0
C      1  0.5949120000000  0.4947810000000  0.4489670000000 1.0
C      1  0.5952920000000  0.5054880000000  0.5542980000000 1.0
C      1  0.5013430000000  0.5054180000000  0.3921780000000 1.0
C      1  0.5027040000000  0.5129750000000  0.5034200000000 1.0
END
