TITL C-3577081-279-254 -2.47497027172032e-06 125000 -673.731533196613 0 0 111 (C1) n - 1
REM
REM in /home/bkarasulu/work/CARBON/AIRSS/Generating-Clusters/EDIP-Nigel-Params/with-SteepDescent/Higher-Symm/SD-CG/HFTN-CG
REM
REM
REM
REM
REM
REM ./C.cell (12c818d87b63d06a65506943cc24bca4)
REM
REM compiler GCC version 9.2.1 20190827 (Red Hat 9.2.1-1)
REM options -cpp -mtune=generic -march=x86-64 -g -O0 -fpre-include=/usr/include/finclude/math-vector-fortran.h
REM seed -1806970348 397096319 -396408392 -110390051 -2145691156 747563301 2042252850 1094842945 1462634624 -474234753 1022399502 882803492 1710979996 1694101107 797357478 -1305452480 -1287702470 502393247 -384462938 -693757407 -874315741 -660892129 843067424 1170996366 -1766646416 -660364425 -1563325946 -1801204457 1363026471 -1670243323 486071870 224227478 2141636252
REM
CELL 1.54180   50.00000   50.00000   50.00000   90.00000   90.00000   90.00000
LATT -1
SFAC C  
C      1  0.5242900000000  0.4907100000000  0.4534500000000 1.0
C      1  0.5134320000000  0.5164840000000  0.4516930000000 1.0
C      1  0.5253690000000  0.5370750000000  0.4663600000000 1.0
C      1  0.5165070000000  0.5428510000000  0.4919710000000 1.0
C      1  0.5222720000000  0.5198380000000  0.5073030000000 1.0
C      1  0.5167160000000  0.5209740000000  0.5344600000000 1.0
C      1  0.5268400000000  0.4979770000000  0.5461550000000 1.0
C      1  0.5119610000000  0.4745450000000  0.5447080000000 1.0
C      1  0.5058230000000  0.4673620000000  0.5177500000000 1.0
C      1  0.5212580000000  0.4772190000000  0.4960310000000 1.0
C      1  0.5137240000000  0.4704350000000  0.4693280000000 1.0
C      1  0.5747870000000  0.5012150000000  0.4374060000000 1.0
C      1  0.5747720000000  0.5370170000000  0.4495310000000 1.0
C      1  0.5704640000000  0.5514060000000  0.4743260000000 1.0
C      1  0.5719530000000  0.5536740000000  0.5112190000000 1.0
C      1  0.5723140000000  0.5415190000000  0.5374670000000 1.0
C      1  0.5707240000000  0.5095050000000  0.5569480000000 1.0
C      1  0.5727140000000  0.4809650000000  0.5613040000000 1.0
C      1  0.5706120000000  0.4628910000000  0.5389120000000 1.0
C      1  0.5698200000000  0.4507340000000  0.5031610000000 1.0
C      1  0.5713410000000  0.4539580000000  0.4742200000000 1.0
C      1  0.5680090000000  0.4753050000000  0.4490430000000 1.0
C      1  0.4928300000000  0.4982910000000  0.5821660000000 1.0
C      1  0.4894610000000  0.4758820000000  0.5629270000000 1.0
C      1  0.4845380000000  0.4490530000000  0.5137010000000 1.0
C      1  0.4724410000000  0.4463540000000  0.4864450000000 1.0
C      1  0.4855720000000  0.4623580000000  0.4622040000000 1.0
C      1  0.4724130000000  0.4883180000000  0.4476660000000 1.0
C      1  0.4843820000000  0.5179950000000  0.4491350000000 1.0
C      1  0.4731360000000  0.5426360000000  0.4672230000000 1.0
C      1  0.4883170000000  0.5526700000000  0.4938240000000 1.0
C      1  0.4778170000000  0.5487640000000  0.5241210000000 1.0
C      1  0.4895350000000  0.5269170000000  0.5407350000000 1.0
C      1  0.4391740000000  0.5194240000000  0.5694540000000 1.0
C      1  0.4399460000000  0.4922910000000  0.5798820000000 1.0
C      1  0.4378320000000  0.4707330000000  0.5602110000000 1.0
C      1  0.4416780000000  0.4382270000000  0.5173320000000 1.0
C      1  0.4366760000000  0.4218440000000  0.4937100000000 1.0
C      1  0.4414700000000  0.4474590000000  0.4404480000000 1.0
C      1  0.4384090000000  0.4718840000000  0.4249340000000 1.0
C      1  0.4401040000000  0.5306320000000  0.4313480000000 1.0
C      1  0.4354180000000  0.5545410000000  0.4472760000000 1.0
C      1  0.4464650000000  0.5732640000000  0.5046180000000 1.0
C      1  0.4406570000000  0.5701510000000  0.5329880000000 1.0
C      1  0.4236770000000  0.5566350000000  0.4944560000000 1.0
C      1  0.4215740000000  0.5476630000000  0.5309130000000 1.0
C      1  0.4246490000000  0.5223780000000  0.5444330000000 1.0
C      1  0.4098240000000  0.5001830000000  0.5358630000000 1.0
C      1  0.4182350000000  0.4736870000000  0.5390410000000 1.0
C      1  0.4176840000000  0.4540570000000  0.5178750000000 1.0
C      1  0.4141870000000  0.4379790000000  0.4830450000000 1.0
C      1  0.4180770000000  0.4511320000000  0.4581480000000 1.0
C      1  0.4178240000000  0.4849810000000  0.4408170000000 1.0
C      1  0.4210700000000  0.5129190000000  0.4459070000000 1.0
C      1  0.4205480000000  0.5430700000000  0.4692160000000 1.0
C      1  0.5274090000000  0.4288460000000  0.4620240000000 1.0
C      1  0.5297020000000  0.4517230000000  0.4200740000000 1.0
C      1  0.5293320000000  0.5053730000000  0.4120050000000 1.0
C      1  0.5308240000000  0.5514230000000  0.4248040000000 1.0
C      1  0.5317370000000  0.5873700000000  0.4662330000000 1.0
C      1  0.5284020000000  0.5800630000000  0.5130670000000 1.0
C      1  0.5276840000000  0.5569030000000  0.5579330000000 1.0
C      1  0.5318970000000  0.5233200000000  0.5910360000000 1.0
C      1  0.5332480000000  0.4690350000000  0.5912400000000 1.0
C      1  0.5319110000000  0.4298640000000  0.5571000000000 1.0
C      1  0.5298230000000  0.4162040000000  0.5116100000000 1.0
C      1  0.5124470000000  0.5312310000000  0.4098130000000 1.0
C      1  0.5189690000000  0.5730250000000  0.4425890000000 1.0
C      1  0.5139740000000  0.5936650000000  0.4908160000000 1.0
C      1  0.5166960000000  0.5779910000000  0.5402150000000 1.0
C      1  0.5123360000000  0.5435780000000  0.5799950000000 1.0
C      1  0.5189050000000  0.4956750000000  0.5975090000000 1.0
C      1  0.5188650000000  0.4466590000000  0.5781260000000 1.0
C      1  0.5167660000000  0.4134360000000  0.5378890000000 1.0
C      1  0.5159990000000  0.4142550000000  0.4852580000000 1.0
C      1  0.5129470000000  0.4312770000000  0.4359570000000 1.0
C      1  0.5160270000000  0.4780150000000  0.4119270000000 1.0
C      1  0.4603560000000  0.5362890000000  0.5781690000000 1.0
C      1  0.4548770000000  0.4884490000000  0.6032300000000 1.0
C      1  0.4528090000000  0.4454730000000  0.5656500000000 1.0
C      1  0.4540880000000  0.4273090000000  0.5417270000000 1.0
C      1  0.4592180000000  0.4127240000000  0.4767610000000 1.0
C      1  0.4611490000000  0.4275270000000  0.4350350000000 1.0
C      1  0.4596350000000  0.4863010000000  0.4117350000000 1.0
C      1  0.4576060000000  0.5304610000000  0.4087090000000 1.0
C      1  0.4557460000000  0.5739060000000  0.4517710000000 1.0
C      1  0.4625710000000  0.5950280000000  0.4959870000000 1.0
C      1  0.4633790000000  0.5711980000000  0.5511440000000 1.0
C      1  0.5591350000000  0.5787880000000  0.4769410000000 1.0
C      1  0.5571870000000  0.5785900000000  0.5067160000000 1.0
C      1  0.5567750000000  0.5514790000000  0.5603540000000 1.0
C      1  0.5590790000000  0.5274390000000  0.5775660000000 1.0
C      1  0.5600210000000  0.4718810000000  0.5842840000000 1.0
C      1  0.5578710000000  0.4368440000000  0.5435270000000 1.0
C      1  0.5568130000000  0.4276690000000  0.5157350000000 1.0
C      1  0.5564130000000  0.4334730000000  0.4572250000000 1.0
C      1  0.5574870000000  0.4519380000000  0.4322930000000 1.0
C      1  0.5586770000000  0.5127170000000  0.4155330000000 1.0
C      1  0.5594070000000  0.5410100000000  0.4247220000000 1.0
C      1  0.4865620000000  0.5822850000000  0.4872980000000 1.0
C      1  0.4879470000000  0.5821650000000  0.5409590000000 1.0
C      1  0.4875020000000  0.5274900000000  0.5707770000000 1.0
C      1  0.4813510000000  0.4932500000000  0.6080590000000 1.0
C      1  0.4808660000000  0.4506590000000  0.5744150000000 1.0
C      1  0.4816830000000  0.4275520000000  0.5334080000000 1.0
C      1  0.4867930000000  0.4102530000000  0.4865240000000 1.0
C      1  0.4855190000000  0.4419740000000  0.4395880000000 1.0
C      1  0.4867970000000  0.4774090000000  0.4133800000000 1.0
C      1  0.4834770000000  0.5295330000000  0.4213270000000 1.0
C      1  0.4828010000000  0.5657900000000  0.4465220000000 1.0
C      1  0.5398580000000  0.4989460000000  0.4991460000000 1.0
END
