TITL C-3577086-586-443 1.24582740441415e-06 125000 -566.786845455139 0 0 91 (C1) n - 1
REM
REM in /home/bkarasulu/work/CARBON/AIRSS/Generating-Clusters/EDIP-Nigel-Params/with-SteepDescent/Higher-Symm/SD-CG/HFTN-CG
REM
REM
REM
REM
REM
REM ./C.cell (12c818d87b63d06a65506943cc24bca4)
REM
REM compiler GCC version 9.2.1 20190827 (Red Hat 9.2.1-1)
REM options -cpp -mtune=generic -march=x86-64 -g -O0 -fpre-include=/usr/include/finclude/math-vector-fortran.h
REM seed 81671490 1440180975 724633645 1452989109 -1112140382 -514141808 1863238048 -893674159 702817543 715126387 -1064868354 -734997681 -1043188420 -1879443516 -2135203312 165692238 -1741999575 855655891 -1084840899 779885155 1576623751 1070406091 2027812027 194188875 1240543232 75229218 -651987843 239280076 894391465 274342391 570714162 497567757 -657066588
REM
CELL 1.54180   50.00000   50.00000   50.00000   90.00000   90.00000   90.00000
LATT -1
SFAC C  
C      1  0.5330120000000  0.4502120000000  0.4267200000000 1.0
C      1  0.5465610000000  0.5293700000000  0.5749200000000 1.0
C      1  0.4645570000000  0.5413550000000  0.4313830000000 1.0
C      1  0.4525650000000  0.4699390000000  0.5645720000000 1.0
C      1  0.4248400000000  0.4832720000000  0.4681450000000 1.0
C      1  0.5096810000000  0.4129350000000  0.5268350000000 1.0
C      1  0.5857450000000  0.5004230000000  0.4795840000000 1.0
C      1  0.5076530000000  0.5887240000000  0.5161530000000 1.0
C      1  0.4535740000000  0.4371910000000  0.5266720000000 1.0
C      1  0.5635000000000  0.4516250000000  0.4630620000000 1.0
C      1  0.5448180000000  0.5608480000000  0.5357050000000 1.0
C      1  0.4367810000000  0.5576060000000  0.4703070000000 1.0
C      1  0.4894360000000  0.4627140000000  0.5147800000000 1.0
C      1  0.5327130000000  0.4866490000000  0.4760060000000 1.0
C      1  0.5006800000000  0.5458320000000  0.5334170000000 1.0
C      1  0.4405700000000  0.5079460000000  0.4760600000000 1.0
C      1  0.4723840000000  0.4357630000000  0.4684390000000 1.0
C      1  0.5552190000000  0.4714890000000  0.5419100000000 1.0
C      1  0.5223800000000  0.5427480000000  0.4554550000000 1.0
C      1  0.4544440000000  0.5267060000000  0.5475980000000 1.0
C      1  0.4981310000000  0.5293170000000  0.5746450000000 1.0
C      1  0.4757600000000  0.4952200000000  0.4169090000000 1.0
C      1  0.4987700000000  0.4714980000000  0.5753900000000 1.0
C      1  0.5325400000000  0.5010970000000  0.4235440000000 1.0
C      1  0.5056420000000  0.5586140000000  0.4773440000000 1.0
C      1  0.4378540000000  0.5128320000000  0.5253080000000 1.0
C      1  0.4992560000000  0.4292080000000  0.4798020000000 1.0
C      1  0.5600770000000  0.4910810000000  0.5205840000000 1.0
C      1  0.4438700000000  0.4719190000000  0.4489560000000 1.0
C      1  0.5216420000000  0.4343230000000  0.5508330000000 1.0
C      1  0.5696130000000  0.5201420000000  0.4502030000000 1.0
C      1  0.4772130000000  0.5678780000000  0.5596250000000 1.0
C      1  0.5082790000000  0.4787310000000  0.5330790000000 1.0
C      1  0.5085430000000  0.4906730000000  0.4587770000000 1.0
C      1  0.5189230000000  0.5232700000000  0.5360850000000 1.0
C      1  0.4626120000000  0.5115500000000  0.4556460000000 1.0
C      1  0.4880330000000  0.5438090000000  0.5033880000000 1.0
C      1  0.4563550000000  0.5021500000000  0.5023350000000 1.0
C      1  0.5092600000000  0.4536160000000  0.4934000000000 1.0
C      1  0.5377100000000  0.5031810000000  0.5008080000000 1.0
C      1  0.4417740000000  0.4634760000000  0.5399390000000 1.0
C      1  0.5416390000000  0.4361730000000  0.4497170000000 1.0
C      1  0.5467220000000  0.5319230000000  0.5457480000000 1.0
C      1  0.4630490000000  0.5545150000000  0.4574190000000 1.0
C      1  0.4742370000000  0.4856080000000  0.5703920000000 1.0
C      1  0.5207450000000  0.4743100000000  0.4196720000000 1.0
C      1  0.5228930000000  0.5143310000000  0.5791890000000 1.0
C      1  0.4857800000000  0.5236210000000  0.4205790000000 1.0
C      1  0.4835010000000  0.5744370000000  0.4645230000000 1.0
C      1  0.4231900000000  0.4855140000000  0.5318620000000 1.0
C      1  0.5242060000000  0.4168110000000  0.4660170000000 1.0
C      1  0.5698710000000  0.5156590000000  0.5340950000000 1.0
C      1  0.4746870000000  0.5141260000000  0.5650150000000 1.0
C      1  0.4935770000000  0.4751100000000  0.4272160000000 1.0
C      1  0.5213290000000  0.4874060000000  0.5687540000000 1.0
C      1  0.5126220000000  0.5215390000000  0.4356290000000 1.0
C      1  0.4570400000000  0.4712140000000  0.4990170000000 1.0
C      1  0.5362590000000  0.4459860000000  0.5059160000000 1.0
C      1  0.5527530000000  0.5339220000000  0.4922920000000 1.0
C      1  0.4636930000000  0.5623370000000  0.5137920000000 1.0
C      1  0.5817220000000  0.5271970000000  0.4931810000000 1.0
C      1  0.4778470000000  0.5892010000000  0.5090740000000 1.0
C      1  0.4259900000000  0.4666640000000  0.4920860000000 1.0
C      1  0.5347020000000  0.4164600000000  0.5093900000000 1.0
C      1  0.4211150000000  0.5342860000000  0.5105360000000 1.0
C      1  0.4882630000000  0.4109210000000  0.5013310000000 1.0
C      1  0.5778850000000  0.4787660000000  0.5002840000000 1.0
C      1  0.5235890000000  0.5761120000000  0.4941360000000 1.0
C      1  0.5462340000000  0.5607260000000  0.5060630000000 1.0
C      1  0.4356380000000  0.5612800000000  0.5012380000000 1.0
C      1  0.4597920000000  0.4213430000000  0.5014510000000 1.0
C      1  0.5647630000000  0.4522650000000  0.4928920000000 1.0
C      1  0.5377920000000  0.4018430000000  0.4856240000000 1.0
C      1  0.5903270000000  0.5283170000000  0.5198560000000 1.0
C      1  0.4747860000000  0.5950430000000  0.4816810000000 1.0
C      1  0.4073570000000  0.4754660000000  0.5111230000000 1.0
C      1  0.4218410000000  0.5313980000000  0.4793650000000 1.0
C      1  0.4829010000000  0.4400280000000  0.5333860000000 1.0
C      1  0.5577750000000  0.4816550000000  0.4607710000000 1.0
C      1  0.5165500000000  0.5716880000000  0.5401110000000 1.0
C      1  0.4994570000000  0.4437030000000  0.5674660000000 1.0
C      1  0.5605770000000  0.5031800000000  0.4288750000000 1.0
C      1  0.4997820000000  0.5584010000000  0.5727200000000 1.0
C      1  0.4490820000000  0.4907000000000  0.4269710000000 1.0
C      1  0.5318480000000  0.4578020000000  0.5337610000000 1.0
C      1  0.5500180000000  0.5376730000000  0.4635930000000 1.0
C      1  0.4589090000000  0.5553990000000  0.5425820000000 1.0
C      1  0.4644120000000  0.4634450000000  0.4695530000000 1.0
C      1  0.4886230000000  0.5085510000000  0.4702620000000 1.0
C      1  0.5123070000000  0.5035010000000  0.5164680000000 1.0
C      1  0.4859570000000  0.5134750000000  0.4991820000000 1.0
END
