TITL C-3578200-9634-581 -1.65638213005776e-06 125000 -891.089754076635 0 0 142 (C1) n - 1
REM
REM in /home/bkarasulu/work/CARBON/AIRSS/Generating-Clusters/EDIP-Nigel-Params/with-SteepDescent/Higher-Symm/SD-CG/HFTN-CG
REM
REM
REM
REM
REM
REM ./C.cell (12c818d87b63d06a65506943cc24bca4)
REM
REM compiler GCC version 9.2.1 20190827 (Red Hat 9.2.1-1)
REM options -cpp -mtune=generic -march=x86-64 -g -O0 -fpre-include=/usr/include/finclude/math-vector-fortran.h
REM seed -2111735580 263391320 -158622775 390068770 -722501411 733663249 -426937551 -871364975 1676186899 -510626567 -1537875632 896552786 -1724063116 905770992 -2038631490 -985094536 -165586014 -902414407 1539183440 -1527508582 -542765414 -749837081 1237223143 1282106684 1999723176 2002121126 -1236086729 -1937338197 -1380853343 1582372961 -1725066911 1128491218 688527724
REM
CELL 1.54180   50.00000   50.00000   50.00000   90.00000   90.00000   90.00000
LATT -1
SFAC C  
C      1  0.5176130000000  0.5118740000000  0.5021560000000 1.0
C      1  0.5054170000000  0.5175050000000  0.4771630000000 1.0
C      1  0.4761780000000  0.5181240000000  0.4819410000000 1.0
C      1  0.4738910000000  0.5165810000000  0.5122590000000 1.0
C      1  0.5010560000000  0.5215520000000  0.5251380000000 1.0
C      1  0.5150590000000  0.5321910000000  0.4104320000000 1.0
C      1  0.4228580000000  0.5279780000000  0.4534020000000 1.0
C      1  0.4354500000000  0.5296870000000  0.5556570000000 1.0
C      1  0.5333960000000  0.5337010000000  0.5790490000000 1.0
C      1  0.5913490000000  0.5321830000000  0.4884310000000 1.0
C      1  0.5032590000000  0.5613470000000  0.4489830000000 1.0
C      1  0.4546670000000  0.5565210000000  0.4810110000000 1.0
C      1  0.4761200000000  0.5612500000000  0.5503160000000 1.0
C      1  0.5463220000000  0.5691430000000  0.5473440000000 1.0
C      1  0.5558610000000  0.5646140000000  0.4765120000000 1.0
C      1  0.4413390000000  0.5234780000000  0.4109640000000 1.0
C      1  0.4016560000000  0.5239310000000  0.5243000000000 1.0
C      1  0.4927680000000  0.5312930000000  0.6036040000000 1.0
C      1  0.5936270000000  0.5259730000000  0.5352370000000 1.0
C      1  0.5602580000000  0.5281030000000  0.4199650000000 1.0
C      1  0.5013190000000  0.6011560000000  0.4827040000000 1.0
C      1  0.4784760000000  0.5956040000000  0.5028520000000 1.0
C      1  0.4888470000000  0.6030450000000  0.5286460000000 1.0
C      1  0.5169150000000  0.6000780000000  0.5238580000000 1.0
C      1  0.5220980000000  0.6126190000000  0.4986890000000 1.0
C      1  0.4654570000000  0.4672180000000  0.5157730000000 1.0
C      1  0.5070290000000  0.4707840000000  0.5402950000000 1.0
C      1  0.5487110000000  0.4723790000000  0.5042220000000 1.0
C      1  0.5219390000000  0.4710550000000  0.4568560000000 1.0
C      1  0.4698700000000  0.4722150000000  0.4665230000000 1.0
C      1  0.5247700000000  0.5056880000000  0.5802920000000 1.0
C      1  0.5982630000000  0.5042550000000  0.4931310000000 1.0
C      1  0.5228820000000  0.5044230000000  0.4093930000000 1.0
C      1  0.4313370000000  0.5005170000000  0.4485630000000 1.0
C      1  0.4324220000000  0.5009600000000  0.5490870000000 1.0
C      1  0.5693910000000  0.5356480000000  0.4685210000000 1.0
C      1  0.4877630000000  0.5321290000000  0.4209540000000 1.0
C      1  0.4259960000000  0.5308320000000  0.4822740000000 1.0
C      1  0.4634460000000  0.5336970000000  0.5645800000000 1.0
C      1  0.5511830000000  0.5411360000000  0.5579060000000 1.0
C      1  0.5048630000000  0.5008230000000  0.5510180000000 1.0
C      1  0.5446400000000  0.5019850000000  0.4987640000000 1.0
C      1  0.5177830000000  0.5030870000000  0.4533570000000 1.0
C      1  0.4658370000000  0.5003580000000  0.4585090000000 1.0
C      1  0.4540140000000  0.4957180000000  0.5221620000000 1.0
C      1  0.4243240000000  0.5419020000000  0.5322590000000 1.0
C      1  0.5087950000000  0.5472880000000  0.5839270000000 1.0
C      1  0.5857210000000  0.5441880000000  0.5138140000000 1.0
C      1  0.5363080000000  0.5449970000000  0.4252670000000 1.0
C      1  0.4389630000000  0.5431730000000  0.4349080000000 1.0
C      1  0.5014980000000  0.4203090000000  0.4364620000000 1.0
C      1  0.4393040000000  0.4202160000000  0.4778730000000 1.0
C      1  0.4595280000000  0.4197010000000  0.5508770000000 1.0
C      1  0.5349080000000  0.4226740000000  0.5531400000000 1.0
C      1  0.5597900000000  0.4199470000000  0.4818740000000 1.0
C      1  0.4265180000000  0.4457340000000  0.4821150000000 1.0
C      1  0.4585590000000  0.4410870000000  0.5697880000000 1.0
C      1  0.5474690000000  0.4483710000000  0.5584340000000 1.0
C      1  0.5678560000000  0.4427040000000  0.4675400000000 1.0
C      1  0.4916980000000  0.4439990000000  0.4251560000000 1.0
C      1  0.4530510000000  0.4145010000000  0.5026250000000 1.0
C      1  0.4867810000000  0.4103430000000  0.5472750000000 1.0
C      1  0.5382120000000  0.4153590000000  0.5251990000000 1.0
C      1  0.5344700000000  0.4134510000000  0.4706370000000 1.0
C      1  0.4823910000000  0.4136120000000  0.4567040000000 1.0
C      1  0.5244440000000  0.5706390000000  0.5234670000000 1.0
C      1  0.5310150000000  0.5628890000000  0.4935030000000 1.0
C      1  0.5060000000000  0.5704550000000  0.4787710000000 1.0
C      1  0.4810790000000  0.5648310000000  0.4981000000000 1.0
C      1  0.4964190000000  0.5536820000000  0.5268280000000 1.0
C      1  0.5620910000000  0.4248420000000  0.5107670000000 1.0
C      1  0.5297900000000  0.4239170000000  0.4436280000000 1.0
C      1  0.4550070000000  0.4243120000000  0.4530110000000 1.0
C      1  0.4420980000000  0.4256150000000  0.5277790000000 1.0
C      1  0.5072910000000  0.4238410000000  0.5650890000000 1.0
C      1  0.5355790000000  0.4572650000000  0.4330590000000 1.0
C      1  0.4440450000000  0.4504550000000  0.4381480000000 1.0
C      1  0.4279450000000  0.4527890000000  0.5340390000000 1.0
C      1  0.5071370000000  0.4561720000000  0.5881600000000 1.0
C      1  0.5804920000000  0.4508680000000  0.5119480000000 1.0
C      1  0.4248410000000  0.5810920000000  0.5031430000000 1.0
C      1  0.4861180000000  0.5816970000000  0.5676500000000 1.0
C      1  0.5704770000000  0.5819790000000  0.5380010000000 1.0
C      1  0.5520410000000  0.5813410000000  0.4545090000000 1.0
C      1  0.4792550000000  0.5767980000000  0.4374120000000 1.0
C      1  0.5492950000000  0.4930800000000  0.5418270000000 1.0
C      1  0.5486910000000  0.5103430000000  0.4703020000000 1.0
C      1  0.4886010000000  0.5054360000000  0.4375870000000 1.0
C      1  0.4394200000000  0.4957670000000  0.4936960000000 1.0
C      1  0.4768290000000  0.5056950000000  0.5588320000000 1.0
C      1  0.5208500000000  0.3942950000000  0.5138720000000 1.0
C      1  0.5184990000000  0.3929480000000  0.4840630000000 1.0
C      1  0.4894960000000  0.3930030000000  0.4766020000000 1.0
C      1  0.4737510000000  0.3937390000000  0.5018800000000 1.0
C      1  0.4932020000000  0.3936400000000  0.5242600000000 1.0
C      1  0.4114670000000  0.4821760000000  0.4619480000000 1.0
C      1  0.4388190000000  0.4841000000000  0.5730310000000 1.0
C      1  0.5484640000000  0.4882310000000  0.5856120000000 1.0
C      1  0.5847850000000  0.4855070000000  0.4757060000000 1.0
C      1  0.5044100000000  0.4832090000000  0.4030540000000 1.0
C      1  0.4016060000000  0.5181920000000  0.4957840000000 1.0
C      1  0.4647870000000  0.5272110000000  0.5954220000000 1.0
C      1  0.5756230000000  0.5242870000000  0.5589540000000 1.0
C      1  0.5792210000000  0.5240590000000  0.4418660000000 1.0
C      1  0.4687360000000  0.5195560000000  0.4013090000000 1.0
C      1  0.4047070000000  0.4967290000000  0.5384940000000 1.0
C      1  0.5068350000000  0.5041050000000  0.6042430000000 1.0
C      1  0.5991980000000  0.4991530000000  0.5223960000000 1.0
C      1  0.5512870000000  0.5007740000000  0.4108050000000 1.0
C      1  0.4311820000000  0.4956750000000  0.4191480000000 1.0
C      1  0.5820700000000  0.4762900000000  0.5321490000000 1.0
C      1  0.5599540000000  0.4775030000000  0.4271970000000 1.0
C      1  0.4495900000000  0.4723490000000  0.4155710000000 1.0
C      1  0.4071280000000  0.4722170000000  0.5213090000000 1.0
C      1  0.4901690000000  0.4799790000000  0.6001350000000 1.0
C      1  0.4745310000000  0.4893460000000  0.4049360000000 1.0
C      1  0.4092400000000  0.4888770000000  0.4928500000000 1.0
C      1  0.4661410000000  0.4938770000000  0.5848430000000 1.0
C      1  0.5690890000000  0.4948250000000  0.5637840000000 1.0
C      1  0.5764390000000  0.4938760000000  0.4479190000000 1.0
C      1  0.4361740000000  0.4571140000000  0.5626440000000 1.0
C      1  0.5383120000000  0.4602220000000  0.5844810000000 1.0
C      1  0.5850090000000  0.4582460000000  0.4833900000000 1.0
C      1  0.5131380000000  0.4577480000000  0.4127120000000 1.0
C      1  0.4190910000000  0.4547580000000  0.4551760000000 1.0
C      1  0.5354700000000  0.5743630000000  0.4315140000000 1.0
C      1  0.4522350000000  0.5673420000000  0.4487320000000 1.0
C      1  0.4302710000000  0.5697550000000  0.5278980000000 1.0
C      1  0.5098460000000  0.5758280000000  0.5811130000000 1.0
C      1  0.5825680000000  0.5726180000000  0.5147210000000 1.0
C      1  0.5337550000000  0.5840220000000  0.5688100000000 1.0
C      1  0.5737520000000  0.5819730000000  0.4892820000000 1.0
C      1  0.5073770000000  0.5884010000000  0.4287880000000 1.0
C      1  0.4372240000000  0.5813390000000  0.4783010000000 1.0
C      1  0.4545050000000  0.5769670000000  0.5403300000000 1.0
C      1  0.4509730000000  0.4665110000000  0.4885590000000 1.0
C      1  0.4937170000000  0.4514390000000  0.5620760000000 1.0
C      1  0.5370680000000  0.4668770000000  0.5364700000000 1.0
C      1  0.5347870000000  0.4558350000000  0.4825210000000 1.0
C      1  0.4942790000000  0.4552020000000  0.4617840000000 1.0
C      1  0.5053650000000  0.4498910000000  0.4921130000000 1.0
C      1  0.4940740000000  0.4662990000000  0.5137640000000 1.0
END
