TITL C-3577086-586-253 1.59266776906765e-07 125000 -573.850167993219 0 0 94 (C1) n - 1
REM
REM in /home/bkarasulu/work/CARBON/AIRSS/Generating-Clusters/EDIP-Nigel-Params/with-SteepDescent/Higher-Symm/SD-CG/HFTN-CG
REM
REM
REM
REM
REM
REM ./C.cell (12c818d87b63d06a65506943cc24bca4)
REM
REM compiler GCC version 9.2.1 20190827 (Red Hat 9.2.1-1)
REM options -cpp -mtune=generic -march=x86-64 -g -O0 -fpre-include=/usr/include/finclude/math-vector-fortran.h
REM seed 642894384 730004117 1096768867 1050084313 -1226548281 1233511307 -568179119 1755503403 -1884441834 1144657331 314024417 656179999 433876089 -2106620211 -336334610 309639065 752325796 495420135 302310817 250531132 -1293322779 -312085822 615139230 1943440245 -446216360 -973853066 -876747505 2067588267 6855648 167557113 431846739 1355985985 1046553842
REM
CELL 1.54180   50.00000   50.00000   50.00000   90.00000   90.00000   90.00000
LATT -1
SFAC C  
C      1  0.5351670000000  0.4870330000000  0.4796110000000 1.0
C      1  0.5284190000000  0.4799500000000  0.5274510000000 1.0
C      1  0.4884690000000  0.4969250000000  0.5304140000000 1.0
C      1  0.4837390000000  0.4921810000000  0.5009400000000 1.0
C      1  0.4968870000000  0.5138340000000  0.4859820000000 1.0
C      1  0.4635880000000  0.5104350000000  0.5421950000000 1.0
C      1  0.5309170000000  0.5097880000000  0.5220410000000 1.0
C      1  0.5258520000000  0.5129100000000  0.4925970000000 1.0
C      1  0.5201740000000  0.4702270000000  0.4118110000000 1.0
C      1  0.5833940000000  0.4691060000000  0.5149260000000 1.0
C      1  0.4789320000000  0.4715100000000  0.5847300000000 1.0
C      1  0.4160180000000  0.4734770000000  0.4766380000000 1.0
C      1  0.4804720000000  0.5305240000000  0.4153690000000 1.0
C      1  0.4139240000000  0.5344640000000  0.5199430000000 1.0
C      1  0.5170450000000  0.5356510000000  0.5870890000000 1.0
C      1  0.5800100000000  0.5325370000000  0.4803890000000 1.0
C      1  0.4757780000000  0.4073150000000  0.4921810000000 1.0
C      1  0.5029820000000  0.4209170000000  0.4912380000000 1.0
C      1  0.5237410000000  0.4108620000000  0.5094960000000 1.0
C      1  0.4733070000000  0.4047950000000  0.5205260000000 1.0
C      1  0.5167290000000  0.5940740000000  0.4813670000000 1.0
C      1  0.4789330000000  0.5982750000000  0.4722190000000 1.0
C      1  0.4758770000000  0.5976820000000  0.5024840000000 1.0
C      1  0.5032900000000  0.5848620000000  0.5060690000000 1.0
C      1  0.4522820000000  0.5304540000000  0.5216600000000 1.0
C      1  0.4964980000000  0.5255940000000  0.4584600000000 1.0
C      1  0.5417050000000  0.5363600000000  0.4837860000000 1.0
C      1  0.5128190000000  0.5240400000000  0.5416210000000 1.0
C      1  0.5318650000000  0.4675020000000  0.5004780000000 1.0
C      1  0.5167630000000  0.4792300000000  0.4577500000000 1.0
C      1  0.4593720000000  0.4767500000000  0.4939610000000 1.0
C      1  0.4897950000000  0.4709940000000  0.5458880000000 1.0
C      1  0.4477910000000  0.5473050000000  0.4755790000000 1.0
C      1  0.5280890000000  0.5533000000000  0.4458040000000 1.0
C      1  0.5558160000000  0.5503820000000  0.5269600000000 1.0
C      1  0.4752350000000  0.5539360000000  0.5515140000000 1.0
C      1  0.5628640000000  0.4497050000000  0.4680750000000 1.0
C      1  0.4768610000000  0.4535150000000  0.4451750000000 1.0
C      1  0.4408340000000  0.4459130000000  0.5264000000000 1.0
C      1  0.5250840000000  0.4459140000000  0.5532170000000 1.0
C      1  0.4542260000000  0.5786290000000  0.5111900000000 1.0
C      1  0.4835750000000  0.5738530000000  0.4558470000000 1.0
C      1  0.5423260000000  0.5804170000000  0.4828670000000 1.0
C      1  0.5187350000000  0.5729680000000  0.5398830000000 1.0
C      1  0.5491880000000  0.4234610000000  0.5141610000000 1.0
C      1  0.5190600000000  0.4318160000000  0.4577120000000 1.0
C      1  0.4539490000000  0.4276110000000  0.4826870000000 1.0
C      1  0.4792990000000  0.4227900000000  0.5417840000000 1.0
C      1  0.4266360000000  0.5501230000000  0.5412790000000 1.0
C      1  0.4708560000000  0.5279950000000  0.4424940000000 1.0
C      1  0.5667290000000  0.5333750000000  0.4541660000000 1.0
C      1  0.5321550000000  0.5337300000000  0.5633990000000 1.0
C      1  0.5686120000000  0.4649070000000  0.5381390000000 1.0
C      1  0.5358040000000  0.4718990000000  0.4358680000000 1.0
C      1  0.4439330000000  0.4746390000000  0.4683610000000 1.0
C      1  0.4634780000000  0.4664340000000  0.5603640000000 1.0
C      1  0.4169630000000  0.4867750000000  0.5017860000000 1.0
C      1  0.4986270000000  0.4878040000000  0.4180130000000 1.0
C      1  0.5824780000000  0.4870950000000  0.4935910000000 1.0
C      1  0.5026850000000  0.4878080000000  0.5839380000000 1.0
C      1  0.5755500000000  0.5138060000000  0.5016550000000 1.0
C      1  0.5046360000000  0.5160450000000  0.4161220000000 1.0
C      1  0.4195030000000  0.5155440000000  0.4975670000000 1.0
C      1  0.4957700000000  0.5171400000000  0.5818050000000 1.0
C      1  0.5417820000000  0.5590520000000  0.5511470000000 1.0
C      1  0.4500970000000  0.5693110000000  0.5404590000000 1.0
C      1  0.4604320000000  0.5552990000000  0.4510590000000 1.0
C      1  0.5505980000000  0.5680590000000  0.4566190000000 1.0
C      1  0.4556390000000  0.4383450000000  0.5510990000000 1.0
C      1  0.5510780000000  0.4405140000000  0.5391460000000 1.0
C      1  0.5438970000000  0.4441670000000  0.4462120000000 1.0
C      1  0.4514830000000  0.4461740000000  0.4579810000000 1.0
C      1  0.5648570000000  0.4805720000000  0.4700510000000 1.0
C      1  0.5285310000000  0.4746030000000  0.5662770000000 1.0
C      1  0.4302650000000  0.4741670000000  0.5273630000000 1.0
C      1  0.4734220000000  0.4799450000000  0.4323010000000 1.0
C      1  0.4338480000000  0.5225410000000  0.4730230000000 1.0
C      1  0.4718350000000  0.5272710000000  0.5657950000000 1.0
C      1  0.5599450000000  0.5191570000000  0.5276590000000 1.0
C      1  0.5278030000000  0.5241490000000  0.4353510000000 1.0
C      1  0.5390440000000  0.5582900000000  0.5032680000000 1.0
C      1  0.4999650000000  0.5506190000000  0.5339140000000 1.0
C      1  0.4634170000000  0.5519360000000  0.5012850000000 1.0
C      1  0.5050500000000  0.5543740000000  0.4652350000000 1.0
C      1  0.4609270000000  0.4485500000000  0.5033550000000 1.0
C      1  0.4992380000000  0.4446120000000  0.5340150000000 1.0
C      1  0.5423280000000  0.4417540000000  0.4904680000000 1.0
C      1  0.5002680000000  0.4548160000000  0.4644290000000 1.0
C      1  0.4447420000000  0.4880920000000  0.5498490000000 1.0
C      1  0.5540020000000  0.5057530000000  0.4439200000000 1.0
C      1  0.4528100000000  0.4998960000000  0.4474320000000 1.0
C      1  0.5566590000000  0.4888930000000  0.5515000000000 1.0
C      1  0.4948380000000  0.5541940000000  0.5025680000000 1.0
C      1  0.4929170000000  0.4486150000000  0.5022370000000 1.0
END
