TITL C-3577078-809-639 -3.95167804672215e-06 125000 -928.163039395365 0 0 148 (C1) n - 1
REM
REM in /home/bkarasulu/work/CARBON/AIRSS/Generating-Clusters/EDIP-Nigel-Params/with-SteepDescent/Higher-Symm/SD-CG/HFTN-CG
REM
REM
REM
REM
REM
REM ./C.cell (12c818d87b63d06a65506943cc24bca4)
REM
REM compiler GCC version 9.2.1 20190827 (Red Hat 9.2.1-1)
REM options -cpp -mtune=generic -march=x86-64 -g -O0 -fpre-include=/usr/include/finclude/math-vector-fortran.h
REM seed -1158525761 780017757 -641662595 26953086 -959288925 1379758987 -1410499526 -1394503816 -673630786 -1212034239 1685039431 -1998249892 1819639119 -526095820 658581055 1886540478 562059990 1389289900 -1364523609 -1615693507 1863506102 -414008062 1592281103 -729436742 -880164807 105990973 1995824406 -936066410 -2081500428 -979574657 -1349591919 -945563369 1000066534
REM
CELL 1.54180   50.00000   50.00000   50.00000   90.00000   90.00000   90.00000
LATT -1
SFAC C  
C      1  0.5339210000000  0.4454320000000  0.5615470000000 1.0
C      1  0.4951130000000  0.5900080000000  0.5489880000000 1.0
C      1  0.5586070000000  0.5727780000000  0.5283380000000 1.0
C      1  0.4216510000000  0.4618440000000  0.4984960000000 1.0
C      1  0.4896350000000  0.4884260000000  0.4272330000000 1.0
C      1  0.4841130000000  0.4522790000000  0.6039890000000 1.0
C      1  0.5772100000000  0.5274970000000  0.4376470000000 1.0
C      1  0.5356210000000  0.5444040000000  0.5626850000000 1.0
C      1  0.5757010000000  0.5442180000000  0.4813630000000 1.0
C      1  0.5126550000000  0.4784730000000  0.4726280000000 1.0
C      1  0.4426980000000  0.5173970000000  0.5118380000000 1.0
C      1  0.4520680000000  0.4201900000000  0.4587620000000 1.0
C      1  0.4960710000000  0.4452280000000  0.4215510000000 1.0
C      1  0.4818190000000  0.5719580000000  0.5684870000000 1.0
C      1  0.4298480000000  0.5379940000000  0.5295700000000 1.0
C      1  0.4764990000000  0.5099900000000  0.4716380000000 1.0
C      1  0.5158740000000  0.4082670000000  0.5303590000000 1.0
C      1  0.5158140000000  0.5092490000000  0.3983270000000 1.0
C      1  0.4382710000000  0.5858420000000  0.5191790000000 1.0
C      1  0.5916470000000  0.5013400000000  0.5423230000000 1.0
C      1  0.4224540000000  0.4820070000000  0.5391760000000 1.0
C      1  0.4474070000000  0.4917810000000  0.5231760000000 1.0
C      1  0.5620830000000  0.5553720000000  0.4307130000000 1.0
C      1  0.4163630000000  0.4907740000000  0.4605240000000 1.0
C      1  0.4976860000000  0.4606660000000  0.5149270000000 1.0
C      1  0.5112720000000  0.4570760000000  0.6062060000000 1.0
C      1  0.4029780000000  0.4819470000000  0.5157970000000 1.0
C      1  0.4869400000000  0.5410090000000  0.4318070000000 1.0
C      1  0.5281670000000  0.4096440000000  0.4768490000000 1.0
C      1  0.5802210000000  0.4679420000000  0.4556660000000 1.0
C      1  0.4507190000000  0.4733170000000  0.4990050000000 1.0
C      1  0.5053560000000  0.4901960000000  0.5666950000000 1.0
C      1  0.5410390000000  0.4539300000000  0.5186350000000 1.0
C      1  0.4395500000000  0.4803590000000  0.5918530000000 1.0
C      1  0.5500350000000  0.5574290000000  0.4777540000000 1.0
C      1  0.4379670000000  0.5333360000000  0.4342800000000 1.0
C      1  0.5223480000000  0.5912280000000  0.5540660000000 1.0
C      1  0.5680410000000  0.4766750000000  0.4284920000000 1.0
C      1  0.5953700000000  0.5460850000000  0.5020960000000 1.0
C      1  0.6052950000000  0.5091850000000  0.4753790000000 1.0
C      1  0.5194140000000  0.5307790000000  0.5391850000000 1.0
C      1  0.5787010000000  0.5283390000000  0.5436140000000 1.0
C      1  0.5354050000000  0.4891660000000  0.4545830000000 1.0
C      1  0.4633770000000  0.5242170000000  0.4931690000000 1.0
C      1  0.4618110000000  0.4993470000000  0.6020130000000 1.0
C      1  0.4724310000000  0.4929910000000  0.5375930000000 1.0
C      1  0.5000210000000  0.4018240000000  0.4826400000000 1.0
C      1  0.5396200000000  0.4933980000000  0.5933230000000 1.0
C      1  0.4628970000000  0.5973810000000  0.5050770000000 1.0
C      1  0.5185570000000  0.5410340000000  0.5878180000000 1.0
C      1  0.4269910000000  0.4373800000000  0.5159540000000 1.0
C      1  0.3994540000000  0.5095440000000  0.5064070000000 1.0
C      1  0.4450620000000  0.4555790000000  0.4245870000000 1.0
C      1  0.5285390000000  0.4219500000000  0.4506650000000 1.0
C      1  0.4484720000000  0.5619960000000  0.5341900000000 1.0
C      1  0.5433120000000  0.5157790000000  0.4056260000000 1.0
C      1  0.4652450000000  0.5231110000000  0.5841000000000 1.0
C      1  0.4169290000000  0.5717730000000  0.5033190000000 1.0
C      1  0.5169320000000  0.5564780000000  0.4041840000000 1.0
C      1  0.5766670000000  0.4451610000000  0.5057430000000 1.0
C      1  0.4429570000000  0.4166940000000  0.5020060000000 1.0
C      1  0.4051830000000  0.5465840000000  0.5157270000000 1.0
C      1  0.4952040000000  0.5149650000000  0.4449520000000 1.0
C      1  0.4651520000000  0.4298260000000  0.5378000000000 1.0
C      1  0.5739820000000  0.4315230000000  0.5310960000000 1.0
C      1  0.4613140000000  0.5494340000000  0.4422950000000 1.0
C      1  0.5254360000000  0.4674120000000  0.5827620000000 1.0
C      1  0.4427270000000  0.4483060000000  0.4529660000000 1.0
C      1  0.4530360000000  0.5655090000000  0.5636630000000 1.0
C      1  0.5326840000000  0.5342490000000  0.4699840000000 1.0
C      1  0.4206320000000  0.4621630000000  0.4680890000000 1.0
C      1  0.4573080000000  0.5784580000000  0.4490140000000 1.0
C      1  0.5789700000000  0.5195800000000  0.4664010000000 1.0
C      1  0.4416540000000  0.5410510000000  0.5776330000000 1.0
C      1  0.4460790000000  0.4573480000000  0.5740990000000 1.0
C      1  0.4733370000000  0.5915140000000  0.4711750000000 1.0
C      1  0.5998400000000  0.4796990000000  0.4760820000000 1.0
C      1  0.5624570000000  0.4414120000000  0.5553020000000 1.0
C      1  0.4906960000000  0.4897830000000  0.6075780000000 1.0
C      1  0.5736300000000  0.4400750000000  0.4620810000000 1.0
C      1  0.5782730000000  0.4185230000000  0.4454160000000 1.0
C      1  0.4996810000000  0.5338420000000  0.3962330000000 1.0
C      1  0.4973560000000  0.5596310000000  0.5889900000000 1.0
C      1  0.5182940000000  0.4600950000000  0.4100690000000 1.0
C      1  0.4841350000000  0.4316200000000  0.5586310000000 1.0
C      1  0.5432470000000  0.5727990000000  0.5541880000000 1.0
C      1  0.4322890000000  0.5604240000000  0.4807560000000 1.0
C      1  0.6036330000000  0.4863050000000  0.5222610000000 1.0
C      1  0.4593360000000  0.4863550000000  0.4689180000000 1.0
C      1  0.4701860000000  0.4511990000000  0.4101710000000 1.0
C      1  0.5062760000000  0.5735260000000  0.4244200000000 1.0
C      1  0.4732250000000  0.4488650000000  0.5782500000000 1.0
C      1  0.5015630000000  0.5799880000000  0.4730710000000 1.0
C      1  0.4285290000000  0.5766430000000  0.4547360000000 1.0
C      1  0.5387360000000  0.5421220000000  0.4177880000000 1.0
C      1  0.4116880000000  0.5114390000000  0.4807390000000 1.0
C      1  0.4658200000000  0.4091350000000  0.5186740000000 1.0
C      1  0.5631990000000  0.5054070000000  0.4242450000000 1.0
C      1  0.5090400000000  0.4819910000000  0.3940360000000 1.0
C      1  0.5495600000000  0.5739520000000  0.4527090000000 1.0
C      1  0.4938310000000  0.4053240000000  0.5107780000000 1.0
C      1  0.5962970000000  0.4679590000000  0.5025370000000 1.0
C      1  0.5195430000000  0.4977770000000  0.5402310000000 1.0
C      1  0.4238810000000  0.5281460000000  0.5571660000000 1.0
C      1  0.4367840000000  0.5015620000000  0.4414670000000 1.0
C      1  0.4843610000000  0.4449150000000  0.4763070000000 1.0
C      1  0.5124350000000  0.4270950000000  0.5525020000000 1.0
C      1  0.4920230000000  0.5515870000000  0.4739850000000 1.0
C      1  0.4141740000000  0.4918580000000  0.5877330000000 1.0
C      1  0.4831300000000  0.4179830000000  0.4626530000000 1.0
C      1  0.5827480000000  0.5528370000000  0.5282590000000 1.0
C      1  0.4173150000000  0.5544220000000  0.4375670000000 1.0
C      1  0.4411900000000  0.4841230000000  0.4179330000000 1.0
C      1  0.5185130000000  0.4534880000000  0.4941400000000 1.0
C      1  0.5374540000000  0.5678890000000  0.5053990000000 1.0
C      1  0.5527140000000  0.4216520000000  0.4353430000000 1.0
C      1  0.5234110000000  0.5431630000000  0.5126080000000 1.0
C      1  0.5202950000000  0.5829080000000  0.4482040000000 1.0
C      1  0.4145470000000  0.5380470000000  0.4714970000000 1.0
C      1  0.5457530000000  0.4833170000000  0.5285420000000 1.0
C      1  0.4304720000000  0.4539970000000  0.5476320000000 1.0
C      1  0.5115140000000  0.5315070000000  0.4885720000000 1.0
C      1  0.5701380000000  0.4850680000000  0.5539900000000 1.0
C      1  0.5132950000000  0.5863170000000  0.5004530000000 1.0
C      1  0.4910130000000  0.5372920000000  0.5424320000000 1.0
C      1  0.5450790000000  0.4201050000000  0.4996230000000 1.0
C      1  0.4366720000000  0.4056400000000  0.4771760000000 1.0
C      1  0.4797710000000  0.5140210000000  0.5579720000000 1.0
C      1  0.5586810000000  0.4947030000000  0.4746040000000 1.0
C      1  0.5793900000000  0.4604670000000  0.5664120000000 1.0
C      1  0.4664500000000  0.5518730000000  0.4906320000000 1.0
C      1  0.5266530000000  0.5178370000000  0.4458300000000 1.0
C      1  0.5015750000000  0.4229870000000  0.4392500000000 1.0
C      1  0.5420120000000  0.4023590000000  0.5216820000000 1.0
C      1  0.5440400000000  0.4981940000000  0.5015300000000 1.0
C      1  0.4976040000000  0.4893500000000  0.5207260000000 1.0
C      1  0.4754740000000  0.5564470000000  0.5214160000000 1.0
C      1  0.4884630000000  0.5849330000000  0.5195660000000 1.0
C      1  0.6130770000000  0.5233390000000  0.4993720000000 1.0
C      1  0.4149010000000  0.5008560000000  0.5613020000000 1.0
C      1  0.5420560000000  0.4636190000000  0.4263620000000 1.0
C      1  0.5608900000000  0.5298770000000  0.5660720000000 1.0
C      1  0.5592030000000  0.5027240000000  0.5745630000000 1.0
C      1  0.4711320000000  0.4503020000000  0.5055420000000 1.0
C      1  0.5154680000000  0.5116000000000  0.5981770000000 1.0
C      1  0.4816070000000  0.4692630000000  0.4556130000000 1.0
C      1  0.4673320000000  0.4894940000000  0.4069690000000 1.0
C      1  0.5133350000000  0.5003390000000  0.4948410000000 1.0
END
