TITL C-3577090-796-27 -5.00717661283622e-07 125000 -633.864741701346 0 0 100 (C3) n - 1
REM
REM in /home/bkarasulu/work/CARBON/AIRSS/Generating-Clusters/EDIP-Nigel-Params/with-SteepDescent/Higher-Symm/SD-CG/HFTN-CG
REM
REM
REM
REM
REM
REM ./C.cell (12c818d87b63d06a65506943cc24bca4)
REM
REM compiler GCC version 9.2.1 20190827 (Red Hat 9.2.1-1)
REM options -cpp -mtune=generic -march=x86-64 -g -O0 -fpre-include=/usr/include/finclude/math-vector-fortran.h
REM seed -1375158651 1376377578 191195555 1900336116 668120479 -1014115276 318828184 -907783433 -1048789409 -1015345116 -1959829178 1032278594 -1675774679 -1066021700 985661630 -1303673733 -1469991902 -1846243187 1344533347 469006511 2129641930 -1525876667 1182174339 -730090614 793843527 -1372275749 1244362623 2046283283 1743049505 -54434276 -1785102363 854464193 -772293432
REM
CELL 1.54180   50.00000   50.00000   50.00000   90.00000   90.00000   90.00000
LATT -1
SFAC C  
C      1  0.4713340000000  0.4859110000000  0.5409830000000 1.0
C      1  0.5496130000000  0.4859100000000  0.5042870000000 1.0
C      1  0.4786940000000  0.4858800000000  0.4548440000000 1.0
C      1  0.4688500000000  0.5156890000000  0.5376780000000 1.0
C      1  0.5479950000000  0.5156900000000  0.5080700000000 1.0
C      1  0.4827810000000  0.5156600000000  0.4543330000000 1.0
C      1  0.4755270000000  0.4363550000000  0.4830180000000 1.0
C      1  0.4973130000000  0.4363760000000  0.5296740000000 1.0
C      1  0.5268250000000  0.4363650000000  0.4874780000000 1.0
C      1  0.4770090000000  0.5658300000000  0.4811770000000 1.0
C      1  0.4949890000000  0.5658510000000  0.5292190000000 1.0
C      1  0.5276040000000  0.5658420000000  0.4896270000000 1.0
C      1  0.4718840000000  0.4742930000000  0.5137770000000 1.0
C      1  0.5257760000000  0.4743030000000  0.5174220000000 1.0
C      1  0.5019870000000  0.4742810000000  0.4689280000000 1.0
C      1  0.4734530000000  0.5270720000000  0.5102680000000 1.0
C      1  0.5219570000000  0.5270830000000  0.5177810000000 1.0
C      1  0.5042120000000  0.5270620000000  0.4720190000000 1.0
C      1  0.4248780000000  0.5170950000000  0.5390340000000 1.0
C      1  0.5711550000000  0.5171210000000  0.5454720000000 1.0
C      1  0.5035920000000  0.5170610000000  0.4155730000000 1.0
C      1  0.4245090000000  0.4876390000000  0.5411260000000 1.0
C      1  0.5731490000000  0.4876640000000  0.5447670000000 1.0
C      1  0.5019820000000  0.4876030000000  0.4142200000000 1.0
C      1  0.4761940000000  0.4787530000000  0.4255720000000 1.0
C      1  0.4472330000000  0.4787990000000  0.5577880000000 1.0
C      1  0.5762160000000  0.4788040000000  0.5167610000000 1.0
C      1  0.4790270000000  0.5319880000000  0.4194090000000 1.0
C      1  0.4404840000000  0.5320350000000  0.5583800000000 1.0
C      1  0.5801080000000  0.5320430000000  0.5222740000000 1.0
C      1  0.5227680000000  0.4860530000000  0.5441550000000 1.0
C      1  0.5266430000000  0.4860210000000  0.4581580000000 1.0
C      1  0.4502300000000  0.4860230000000  0.4978010000000 1.0
C      1  0.5204860000000  0.5160150000000  0.5456080000000 1.0
C      1  0.5290450000000  0.5159840000000  0.4593870000000 1.0
C      1  0.4500950000000  0.5159850000000  0.4950850000000 1.0
C      1  0.5591580000000  0.5256130000000  0.4819510000000 1.0
C      1  0.4545810000000  0.5255880000000  0.4577180000000 1.0
C      1  0.4858830000000  0.5256310000000  0.5604010000000 1.0
C      1  0.5512460000000  0.4779730000000  0.4741580000000 1.0
C      1  0.4517840000000  0.4779550000000  0.4685000000000 1.0
C      1  0.4966150000000  0.4779950000000  0.5574660000000 1.0
C      1  0.5291230000000  0.5256410000000  0.4296760000000 1.0
C      1  0.4243270000000  0.5256540000000  0.5098660000000 1.0
C      1  0.5461710000000  0.5256930000000  0.5605270000000 1.0
C      1  0.5264760000000  0.4760700000000  0.4283950000000 1.0
C      1  0.4245360000000  0.4760860000000  0.5128340000000 1.0
C      1  0.5486330000000  0.4761230000000  0.5588970000000 1.0
C      1  0.5964510000000  0.4932050000000  0.5029870000000 1.0
C      1  0.4541500000000  0.4931490000000  0.4149260000000 1.0
C      1  0.4490370000000  0.4932110000000  0.5821930000000 1.0
C      1  0.5902640000000  0.5202370000000  0.4975440000000 1.0
C      1  0.4525310000000  0.5201870000000  0.4229870000000 1.0
C      1  0.4568290000000  0.5202470000000  0.5795450000000 1.0
C      1  0.4258580000000  0.5535360000000  0.4750840000000 1.0
C      1  0.5152860000000  0.5535890000000  0.5765730000000 1.0
C      1  0.5584640000000  0.5535480000000  0.4483810000000 1.0
C      1  0.4237580000000  0.4451600000000  0.4799590000000 1.0
C      1  0.5205490000000  0.4452110000000  0.5760300000000 1.0
C      1  0.5553530000000  0.4451670000000  0.4441710000000 1.0
C      1  0.5418450000000  0.5678180000000  0.5373080000000 1.0
C      1  0.5111820000000  0.5677780000000  0.4450030000000 1.0
C      1  0.4465750000000  0.5677950000000  0.5177100000000 1.0
C      1  0.5445630000000  0.4333380000000  0.5339360000000 1.0
C      1  0.5068900000000  0.4332980000000  0.4444300000000 1.0
C      1  0.4482120000000  0.4333180000000  0.5218090000000 1.0
C      1  0.5206250000000  0.4709510000000  0.5943910000000 1.0
C      1  0.5712180000000  0.4708990000000  0.4349070000000 1.0
C      1  0.4078050000000  0.4708870000000  0.4708340000000 1.0
C      1  0.5147350000000  0.5205460000000  0.5922660000000 1.0
C      1  0.5723270000000  0.5204980000000  0.4410360000000 1.0
C      1  0.4125620000000  0.5204820000000  0.4667740000000 1.0
C      1  0.4249790000000  0.5552170000000  0.5050740000000 1.0
C      1  0.5416980000000  0.5552570000000  0.5623370000000 1.0
C      1  0.5329300000000  0.5552070000000  0.4326240000000 1.0
C      1  0.4256520000000  0.4458590000000  0.5105000000000 1.0
C      1  0.5460520000000  0.4458970000000  0.5591190000000 1.0
C      1  0.5279570000000  0.4458450000000  0.4305400000000 1.0
C      1  0.5525040000000  0.4845450000000  0.4156830000000 1.0
C      1  0.4005150000000  0.4845520000000  0.4966430000000 1.0
C      1  0.5466220000000  0.4846090000000  0.5877900000000 1.0
C      1  0.5546660000000  0.5140060000000  0.4180670000000 1.0
C      1  0.4015010000000  0.5140100000000  0.4935580000000 1.0
C      1  0.5434610000000  0.5140680000000  0.5884570000000 1.0
C      1  0.4912170000000  0.5558020000000  0.5579160000000 1.0
C      1  0.5543410000000  0.5557820000000  0.4785530000000 1.0
C      1  0.4540490000000  0.5557610000000  0.4635670000000 1.0
C      1  0.4960220000000  0.4474770000000  0.5581850000000 1.0
C      1  0.5521630000000  0.4474550000000  0.4743330000000 1.0
C      1  0.4514750000000  0.4474360000000  0.4676400000000 1.0
C      1  0.5048280000000  0.5578920000000  0.4712600000000 1.0
C      1  0.4724900000000  0.5579020000000  0.5100910000000 1.0
C      1  0.5222880000000  0.5579130000000  0.5186810000000 1.0
C      1  0.5025690000000  0.4444040000000  0.4707750000000 1.0
C      1  0.4731890000000  0.4444150000000  0.5123700000000 1.0
C      1  0.5239020000000  0.4444250000000  0.5170160000000 1.0
C      1  0.4245400000000  0.4930750000000  0.4567960000000 1.0
C      1  0.5001020000000  0.4931360000000  0.5869010000000 1.0
C      1  0.5749950000000  0.4930990000000  0.4564090000000 1.0
C      1  0.4998750000000  0.5183570000000  0.5000260000000 1.0
END
