TITL C-3577089-586-644 -4.20723716245434e-07 125000 -381.068008037346 0 0 63 (C1) n - 1
REM
REM in /home/bkarasulu/work/CARBON/AIRSS/Generating-Clusters/EDIP-Nigel-Params/with-SteepDescent/Higher-Symm/SD-CG/HFTN-CG
REM
REM
REM
REM
REM
REM ./C.cell (12c818d87b63d06a65506943cc24bca4)
REM
REM compiler GCC version 9.2.1 20190827 (Red Hat 9.2.1-1)
REM options -cpp -mtune=generic -march=x86-64 -g -O0 -fpre-include=/usr/include/finclude/math-vector-fortran.h
REM seed -1025482963 1045401784 1553258854 1749182391 528943405 16642990 336922809 1626179437 714143062 -359091324 1418962765 808441817 -2097824722 -496852706 -837091856 -959306617 854235461 -171533012 -943042420 1539810700 2055943880 1106283452 -1845388610 322434520 621250238 -46964250 -160365661 472183221 1033676443 -1919004037 -90636745 741858848 1213143870
REM
CELL 1.54180   50.00000   50.00000   50.00000   90.00000   90.00000   90.00000
LATT -1
SFAC C  
C      1  0.4736600000000  0.4408580000000  0.4948730000000 1.0
C      1  0.5269860000000  0.4370380000000  0.5132040000000 1.0
C      1  0.4736800000000  0.5616310000000  0.4981790000000 1.0
C      1  0.5288150000000  0.5597010000000  0.5064150000000 1.0
C      1  0.5131160000000  0.5328390000000  0.4158110000000 1.0
C      1  0.4787390000000  0.5284700000000  0.5816550000000 1.0
C      1  0.5225710000000  0.4649820000000  0.4151260000000 1.0
C      1  0.4696890000000  0.4660210000000  0.5844890000000 1.0
C      1  0.4483710000000  0.5315950000000  0.4779420000000 1.0
C      1  0.5590880000000  0.5318820000000  0.5226670000000 1.0
C      1  0.4565260000000  0.4768010000000  0.4746110000000 1.0
C      1  0.5320070000000  0.4844050000000  0.5240170000000 1.0
C      1  0.5192690000000  0.5549870000000  0.4799160000000 1.0
C      1  0.4831900000000  0.5510310000000  0.5231270000000 1.0
C      1  0.5209050000000  0.4395710000000  0.4845560000000 1.0
C      1  0.4842140000000  0.4575340000000  0.5169730000000 1.0
C      1  0.4764480000000  0.5118650000000  0.6036510000000 1.0
C      1  0.4956240000000  0.5098680000000  0.4174530000000 1.0
C      1  0.4690060000000  0.4860650000000  0.6035820000000 1.0
C      1  0.5076490000000  0.4868590000000  0.4073590000000 1.0
C      1  0.5276270000000  0.4849570000000  0.5526100000000 1.0
C      1  0.4794700000000  0.4786220000000  0.4550820000000 1.0
C      1  0.5453140000000  0.5254380000000  0.5484450000000 1.0
C      1  0.4621610000000  0.5298230000000  0.4515590000000 1.0
C      1  0.4872980000000  0.4486010000000  0.4475280000000 1.0
C      1  0.5141750000000  0.4586160000000  0.5578770000000 1.0
C      1  0.4797080000000  0.5541180000000  0.4492260000000 1.0
C      1  0.5220550000000  0.5426320000000  0.5532780000000 1.0
C      1  0.4915190000000  0.5583520000000  0.4757440000000 1.0
C      1  0.5110730000000  0.5545220000000  0.5288280000000 1.0
C      1  0.4940480000000  0.4351010000000  0.4739770000000 1.0
C      1  0.5046450000000  0.4435650000000  0.5327120000000 1.0
C      1  0.5026480000000  0.4896410000000  0.5118330000000 1.0
C      1  0.5159690000000  0.4729080000000  0.4676710000000 1.0
C      1  0.4863000000000  0.5128830000000  0.5223410000000 1.0
C      1  0.5108430000000  0.5201670000000  0.4661670000000 1.0
C      1  0.4608790000000  0.5226670000000  0.5613000000000 1.0
C      1  0.5385380000000  0.5262430000000  0.4257010000000 1.0
C      1  0.4526930000000  0.4691100000000  0.5626920000000 1.0
C      1  0.5465310000000  0.4713040000000  0.4276620000000 1.0
C      1  0.4276250000000  0.5142110000000  0.5183260000000 1.0
C      1  0.5696220000000  0.5161250000000  0.4735680000000 1.0
C      1  0.4280240000000  0.4835780000000  0.5206350000000 1.0
C      1  0.5650370000000  0.4855220000000  0.4712080000000 1.0
C      1  0.5073050000000  0.4458720000000  0.4279650000000 1.0
C      1  0.4951870000000  0.4572430000000  0.5782780000000 1.0
C      1  0.4990930000000  0.5528530000000  0.4289640000000 1.0
C      1  0.5039340000000  0.5368410000000  0.5737490000000 1.0
C      1  0.4525470000000  0.4804440000000  0.5371320000000 1.0
C      1  0.5412320000000  0.4838160000000  0.4531990000000 1.0
C      1  0.4599400000000  0.5100540000000  0.5356700000000 1.0
C      1  0.5378850000000  0.5148160000000  0.4520520000000 1.0
C      1  0.5452750000000  0.4571330000000  0.5210910000000 1.0
C      1  0.4496870000000  0.4506020000000  0.4828770000000 1.0
C      1  0.5561460000000  0.5579280000000  0.5122340000000 1.0
C      1  0.4471350000000  0.5572800000000  0.4900630000000 1.0
C      1  0.4278190000000  0.5141780000000  0.4884660000000 1.0
C      1  0.5724390000000  0.5138560000000  0.5041420000000 1.0
C      1  0.4290380000000  0.4831830000000  0.4885320000000 1.0
C      1  0.5646930000000  0.4845350000000  0.5025960000000 1.0
C      1  0.4862200000000  0.5100540000000  0.4464410000000 1.0
C      1  0.5470720000000  0.5016860000000  0.5640490000000 1.0
C      1  0.5079390000000  0.4957720000000  0.4838160000000 1.0
END
