TITL C-3577079-311-602 -4.44474752012634e-06 125000 -1044.41902966612 0 0 167 (C1) n - 1
REM
REM in /home/bkarasulu/work/CARBON/AIRSS/Generating-Clusters/EDIP-Nigel-Params/with-SteepDescent/Higher-Symm/SD-CG/HFTN-CG
REM
REM
REM
REM
REM
REM ./C.cell (12c818d87b63d06a65506943cc24bca4)
REM
REM compiler GCC version 9.2.1 20190827 (Red Hat 9.2.1-1)
REM options -cpp -mtune=generic -march=x86-64 -g -O0 -fpre-include=/usr/include/finclude/math-vector-fortran.h
REM seed 2097636493 -881567417 1751255187 -1105859302 -1703206331 2033499932 1383647111 -1294752961 1510967490 -1494310321 519990058 -1818019414 2077718227 -616220141 -136952203 973634610 -791684405 -851895286 2095978204 -263803445 1576919010 -1857171738 -1922847032 -826251258 1354193340 1238413008 496459348 -848321367 -626756061 2011873686 -930249460 169118148 -1701975666
REM
CELL 1.54180   50.00000   50.00000   50.00000   90.00000   90.00000   90.00000
LATT -1
SFAC C  
C      1  0.4744120000000  0.4830560000000  0.4433890000000 1.0
C      1  0.4974010000000  0.5279960000000  0.4424740000000 1.0
C      1  0.5262590000000  0.4854580000000  0.4435270000000 1.0
C      1  0.4720160000000  0.5797770000000  0.4284040000000 1.0
C      1  0.5828920000000  0.4871380000000  0.4308460000000 1.0
C      1  0.4440060000000  0.4357800000000  0.4272040000000 1.0
C      1  0.5309320000000  0.4023690000000  0.5177390000000 1.0
C      1  0.4010970000000  0.5217680000000  0.5208320000000 1.0
C      1  0.5696780000000  0.5769010000000  0.5213820000000 1.0
C      1  0.6038660000000  0.4950260000000  0.5122560000000 1.0
C      1  0.4414810000000  0.4140890000000  0.5072500000000 1.0
C      1  0.4500600000000  0.5970050000000  0.5083040000000 1.0
C      1  0.5189500000000  0.4842670000000  0.5360380000000 1.0
C      1  0.4802100000000  0.4869580000000  0.5371490000000 1.0
C      1  0.5000120000000  0.5312030000000  0.5375930000000 1.0
C      1  0.5294460000000  0.5215600000000  0.4779160000000 1.0
C      1  0.5045910000000  0.4570620000000  0.4738740000000 1.0
C      1  0.4633110000000  0.5163560000000  0.4764470000000 1.0
C      1  0.5419510000000  0.5033670000000  0.4021110000000 1.0
C      1  0.4800790000000  0.4651900000000  0.3983360000000 1.0
C      1  0.4756610000000  0.5336360000000  0.3981270000000 1.0
C      1  0.5304510000000  0.5672560000000  0.4965290000000 1.0
C      1  0.5434250000000  0.4402480000000  0.4981900000000 1.0
C      1  0.4278080000000  0.4932390000000  0.5001120000000 1.0
C      1  0.5542860000000  0.4567840000000  0.4721080000000 1.0
C      1  0.4366710000000  0.4752310000000  0.4739090000000 1.0
C      1  0.5110480000000  0.5669670000000  0.4691930000000 1.0
C      1  0.5278770000000  0.5853430000000  0.5782630000000 1.0
C      1  0.5544390000000  0.4235990000000  0.5820980000000 1.0
C      1  0.4206690000000  0.4869560000000  0.5820710000000 1.0
C      1  0.5687560000000  0.5089600000000  0.4145220000000 1.0
C      1  0.4672810000000  0.4375480000000  0.4085850000000 1.0
C      1  0.4596840000000  0.5593740000000  0.4105140000000 1.0
C      1  0.5836010000000  0.5199500000000  0.5459720000000 1.0
C      1  0.4738700000000  0.4122420000000  0.5409000000000 1.0
C      1  0.4363070000000  0.5671710000000  0.5421020000000 1.0
C      1  0.4586540000000  0.5808910000000  0.4613500000000 1.0
C      1  0.5897890000000  0.4955510000000  0.4647420000000 1.0
C      1  0.4504240000000  0.4206050000000  0.4566580000000 1.0
C      1  0.5087210000000  0.4601610000000  0.4081020000000 1.0
C      1  0.4564060000000  0.5123510000000  0.4098260000000 1.0
C      1  0.5251730000000  0.5270970000000  0.4039620000000 1.0
C      1  0.5265830000000  0.5987570000000  0.5303680000000 1.0
C      1  0.5695450000000  0.4277250000000  0.5334740000000 1.0
C      1  0.4066820000000  0.4759530000000  0.5359100000000 1.0
C      1  0.5138970000000  0.5724970000000  0.5235080000000 1.0
C      1  0.5528500000000  0.4519750000000  0.5262670000000 1.0
C      1  0.4349920000000  0.4792880000000  0.5269190000000 1.0
C      1  0.5382480000000  0.5390260000000  0.5900640000000 1.0
C      1  0.5093280000000  0.4440660000000  0.5911510000000 1.0
C      1  0.4544110000000  0.5205510000000  0.5911430000000 1.0
C      1  0.5285350000000  0.5129170000000  0.5989070000000 1.0
C      1  0.4946830000000  0.4853610000000  0.6166690000000 1.0
C      1  0.5009540000000  0.5120800000000  0.6090700000000 1.0
C      1  0.5717010000000  0.4452460000000  0.4495420000000 1.0
C      1  0.4192280000000  0.4628270000000  0.4516280000000 1.0
C      1  0.5167150000000  0.5842860000000  0.4448600000000 1.0
C      1  0.5600580000000  0.5573390000000  0.5429330000000 1.0
C      1  0.5178970000000  0.4178420000000  0.5406680000000 1.0
C      1  0.4224350000000  0.5249730000000  0.5424360000000 1.0
C      1  0.3932950000000  0.4942130000000  0.5174140000000 1.0
C      1  0.5499720000000  0.5963010000000  0.5129130000000 1.0
C      1  0.5589190000000  0.4087000000000  0.5139360000000 1.0
C      1  0.4723780000000  0.5368800000000  0.4562800000000 1.0
C      1  0.5454070000000  0.5038950000000  0.4586180000000 1.0
C      1  0.4803350000000  0.4559560000000  0.4558310000000 1.0
C      1  0.4030390000000  0.4807550000000  0.5629780000000 1.0
C      1  0.5318380000000  0.6015450000000  0.5574250000000 1.0
C      1  0.5685870000000  0.4190090000000  0.5598390000000 1.0
C      1  0.6022060000000  0.4792450000000  0.5361040000000 1.0
C      1  0.4301940000000  0.4236390000000  0.5324350000000 1.0
C      1  0.4649930000000  0.6031140000000  0.5323860000000 1.0
C      1  0.4256860000000  0.5558360000000  0.4925730000000 1.0
C      1  0.5792890000000  0.5370610000000  0.4960330000000 1.0
C      1  0.4884680000000  0.4074400000000  0.4902070000000 1.0
C      1  0.4313790000000  0.5750080000000  0.5142190000000 1.0
C      1  0.5921590000000  0.5210970000000  0.5180820000000 1.0
C      1  0.4688540000000  0.4053590000000  0.5125660000000 1.0
C      1  0.4571760000000  0.4536350000000  0.4759020000000 1.0
C      1  0.4800940000000  0.5610220000000  0.4724330000000 1.0
C      1  0.5622870000000  0.4864580000000  0.4761420000000 1.0
C      1  0.4501000000000  0.4223900000000  0.5543950000000 1.0
C      1  0.4553160000000  0.5856680000000  0.5538060000000 1.0
C      1  0.5921830000000  0.4947660000000  0.5584770000000 1.0
C      1  0.4909900000000  0.5541350000000  0.5844310000000 1.0
C      1  0.5471380000000  0.4719840000000  0.5795860000000 1.0
C      1  0.4662770000000  0.4700470000000  0.5831460000000 1.0
C      1  0.5598860000000  0.5245020000000  0.4383200000000 1.0
C      1  0.4880800000000  0.4372200000000  0.4310280000000 1.0
C      1  0.4510460000000  0.5409670000000  0.4334400000000 1.0
C      1  0.5033880000000  0.4427750000000  0.5277820000000 1.0
C      1  0.4511510000000  0.5272990000000  0.5290160000000 1.0
C      1  0.5437450000000  0.5314970000000  0.5301850000000 1.0
C      1  0.4055750000000  0.4288450000000  0.4758120000000 1.0
C      1  0.4769030000000  0.6245200000000  0.4771280000000 1.0
C      1  0.6220130000000  0.4605490000000  0.4818570000000 1.0
C      1  0.4980030000000  0.5304450000000  0.5079870000000 1.0
C      1  0.5241720000000  0.4888900000000  0.5074150000000 1.0
C      1  0.4776870000000  0.4875770000000  0.5068330000000 1.0
C      1  0.4361430000000  0.5405790000000  0.5833350000000 1.0
C      1  0.5658570000000  0.5418550000000  0.5859720000000 1.0
C      1  0.4964250000000  0.4205830000000  0.5825100000000 1.0
C      1  0.4822060000000  0.5280710000000  0.5933830000000 1.0
C      1  0.5252060000000  0.4910310000000  0.5785940000000 1.0
C      1  0.4962230000000  0.4719690000000  0.5907610000000 1.0
C      1  0.5006440000000  0.5402120000000  0.4147830000000 1.0
C      1  0.5351490000000  0.4768170000000  0.4161130000000 1.0
C      1  0.4608810000000  0.4815680000000  0.4163660000000 1.0
C      1  0.5849440000000  0.5660630000000  0.4988380000000 1.0
C      1  0.5155970000000  0.3955540000000  0.4934710000000 1.0
C      1  0.4025060000000  0.5375280000000  0.4959830000000 1.0
C      1  0.5197360000000  0.5411640000000  0.4570370000000 1.0
C      1  0.5280010000000  0.4582570000000  0.4570410000000 1.0
C      1  0.4511660000000  0.4960390000000  0.4585880000000 1.0
C      1  0.5190770000000  0.5603750000000  0.5862240000000 1.0
C      1  0.5376030000000  0.4455320000000  0.5846250000000 1.0
C      1  0.4474080000000  0.4924380000000  0.5867990000000 1.0
C      1  0.3949400000000  0.5249360000000  0.4722990000000 1.0
C      1  0.5806210000000  0.5797200000000  0.4747870000000 1.0
C      1  0.5293810000000  0.3951550000000  0.4692010000000 1.0
C      1  0.5786290000000  0.5440590000000  0.5613860000000 1.0
C      1  0.4967890000000  0.4069530000000  0.5578270000000 1.0
C      1  0.4227590000000  0.5482210000000  0.5598140000000 1.0
C      1  0.5459710000000  0.5382850000000  0.4989910000000 1.0
C      1  0.5113380000000  0.4389390000000  0.4968890000000 1.0
C      1  0.4433140000000  0.5213890000000  0.4985990000000 1.0
C      1  0.4547460000000  0.4447120000000  0.5736320000000 1.0
C      1  0.4737540000000  0.5737110000000  0.5726560000000 1.0
C      1  0.5725870000000  0.4809720000000  0.5727640000000 1.0
C      1  0.5218970000000  0.5502820000000  0.5435730000000 1.0
C      1  0.5278410000000  0.4553620000000  0.5430400000000 1.0
C      1  0.4518610000000  0.4992550000000  0.5437330000000 1.0
C      1  0.5133350000000  0.6116330000000  0.4485480000000 1.0
C      1  0.5979270000000  0.4368840000000  0.4533840000000 1.0
C      1  0.3907410000000  0.4684830000000  0.4511210000000 1.0
C      1  0.3867600000000  0.4438150000000  0.4628390000000 1.0
C      1  0.4986370000000  0.6289250000000  0.4624580000000 1.0
C      1  0.6209110000000  0.4383690000000  0.4669920000000 1.0
C      1  0.4246520000000  0.5492500000000  0.4434040000000 1.0
C      1  0.5827160000000  0.5404180000000  0.4478490000000 1.0
C      1  0.4941030000000  0.4091700000000  0.4397760000000 1.0
C      1  0.5002970000000  0.5723480000000  0.4226380000000 1.0
C      1  0.5660100000000  0.4633920000000  0.4261020000000 1.0
C      1  0.4348430000000  0.4638140000000  0.4245190000000 1.0
C      1  0.4765640000000  0.4561960000000  0.5433520000000 1.0
C      1  0.4753400000000  0.5475810000000  0.5435960000000 1.0
C      1  0.5443110000000  0.5004190000000  0.5458790000000 1.0
C      1  0.5303030000000  0.4348280000000  0.4394670000000 1.0
C      1  0.4284080000000  0.5045510000000  0.4414050000000 1.0
C      1  0.5409620000000  0.5481390000000  0.4367620000000 1.0
C      1  0.4518350000000  0.4536020000000  0.5234610000000 1.0
C      1  0.4823640000000  0.5707740000000  0.5222050000000 1.0
C      1  0.5650760000000  0.4806820000000  0.5272270000000 1.0
C      1  0.4097280000000  0.5248400000000  0.4484740000000 1.0
C      1  0.5702760000000  0.5662110000000  0.4528060000000 1.0
C      1  0.5227810000000  0.4079980000000  0.4451160000000 1.0
C      1  0.4310340000000  0.4188850000000  0.4798760000000 1.0
C      1  0.4593790000000  0.6035970000000  0.4810680000000 1.0
C      1  0.6083510000000  0.4842180000000  0.4854040000000 1.0
C      1  0.4781770000000  0.5510770000000  0.4998200000000 1.0
C      1  0.5528190000000  0.4931830000000  0.5030270000000 1.0
C      1  0.4693200000000  0.4600300000000  0.5003940000000 1.0
C      1  0.5906570000000  0.5254850000000  0.4704600000000 1.0
C      1  0.4760820000000  0.4051900000000  0.4624540000000 1.0
C      1  0.4311860000000  0.5672040000000  0.4653940000000 1.0
C      1  0.4994270000000  0.4986060000000  0.4426230000000 1.0
C      1  0.5007230000000  0.5034720000000  0.4945990000000 1.0
END
