TITL C-3577077-324-503 -1.13605939654425e-06 125000 -1205.57505683907 0 0 192 (C1) n - 1
REM
REM in /home/bkarasulu/work/CARBON/AIRSS/Generating-Clusters/EDIP-Nigel-Params/with-SteepDescent/Higher-Symm/SD-CG/HFTN-CG
REM
REM
REM
REM
REM
REM ./C.cell (12c818d87b63d06a65506943cc24bca4)
REM
REM compiler GCC version 9.2.1 20190827 (Red Hat 9.2.1-1)
REM options -cpp -mtune=generic -march=x86-64 -g -O0 -fpre-include=/usr/include/finclude/math-vector-fortran.h
REM seed 1719317355 617950101 553241790 1058438346 -1210553382 2069217619 -94819799 -1271241328 1648698885 1079908143 1003424824 9172917 764285254 1676115756 287167320 -1948170473 1684354560 -1831893334 315271182 -1132387625 1695876265 -200275073 -1727680639 -1380586138 17418240 -1283803651 1269066881 1122829958 -66444085 -1233247434 611236249 169147885 -120155171
REM
CELL 1.54180   50.00000   50.00000   50.00000   90.00000   90.00000   90.00000
LATT -1
SFAC C  
C      1  0.5748390000000  0.5720620000000  0.5012510000000 1.0
C      1  0.5553320000000  0.5853090000000  0.5496800000000 1.0
C      1  0.4662710000000  0.5554290000000  0.4865770000000 1.0
C      1  0.4659390000000  0.5199460000000  0.5195410000000 1.0
C      1  0.4840030000000  0.5990040000000  0.5640550000000 1.0
C      1  0.5066130000000  0.5361150000000  0.4623080000000 1.0
C      1  0.5366970000000  0.3971180000000  0.5394620000000 1.0
C      1  0.4044320000000  0.4469320000000  0.5107680000000 1.0
C      1  0.4219120000000  0.5196020000000  0.5071670000000 1.0
C      1  0.5774170000000  0.4678280000000  0.5876020000000 1.0
C      1  0.4603800000000  0.4263660000000  0.5868960000000 1.0
C      1  0.4672520000000  0.5265670000000  0.4904350000000 1.0
C      1  0.5308330000000  0.5993000000000  0.5385840000000 1.0
C      1  0.4643210000000  0.4986250000000  0.4304720000000 1.0
C      1  0.3781340000000  0.5029330000000  0.5282290000000 1.0
C      1  0.4800300000000  0.5357220000000  0.3979740000000 1.0
C      1  0.5138810000000  0.4056990000000  0.4986660000000 1.0
C      1  0.4958940000000  0.5101990000000  0.3911750000000 1.0
C      1  0.5251110000000  0.4365140000000  0.5054560000000 1.0
C      1  0.4661590000000  0.4474050000000  0.4501100000000 1.0
C      1  0.5980150000000  0.4836520000000  0.4513630000000 1.0
C      1  0.3960030000000  0.5485350000000  0.5519270000000 1.0
C      1  0.5827440000000  0.4097240000000  0.5137520000000 1.0
C      1  0.4925330000000  0.4941670000000  0.4411950000000 1.0
C      1  0.4891840000000  0.4033510000000  0.5445940000000 1.0
C      1  0.5906190000000  0.4671150000000  0.5382100000000 1.0
C      1  0.5331560000000  0.5996590000000  0.5089100000000 1.0
C      1  0.4880800000000  0.5429270000000  0.4412160000000 1.0
C      1  0.5025980000000  0.5702870000000  0.4885610000000 1.0
C      1  0.5687690000000  0.5651270000000  0.4077400000000 1.0
C      1  0.4577580000000  0.4756360000000  0.6005440000000 1.0
C      1  0.4485990000000  0.5229110000000  0.5938930000000 1.0
C      1  0.3969840000000  0.5475520000000  0.4688750000000 1.0
C      1  0.5470370000000  0.5215980000000  0.3983530000000 1.0
C      1  0.5882130000000  0.4684730000000  0.4277720000000 1.0
C      1  0.4256120000000  0.4144360000000  0.4561180000000 1.0
C      1  0.4925190000000  0.5626370000000  0.4020990000000 1.0
C      1  0.4718040000000  0.4190690000000  0.4680060000000 1.0
C      1  0.4406440000000  0.5047710000000  0.4000830000000 1.0
C      1  0.5924440000000  0.5098660000000  0.5346650000000 1.0
C      1  0.5208040000000  0.4611300000000  0.4247500000000 1.0
C      1  0.4144660000000  0.5234570000000  0.4321290000000 1.0
C      1  0.4992910000000  0.4054230000000  0.4694180000000 1.0
C      1  0.4057340000000  0.5624330000000  0.5301390000000 1.0
C      1  0.4890810000000  0.4502310000000  0.4992180000000 1.0
C      1  0.5311100000000  0.4771310000000  0.5803510000000 1.0
C      1  0.5534740000000  0.4468340000000  0.4578570000000 1.0
C      1  0.4963410000000  0.5969660000000  0.4765770000000 1.0
C      1  0.4964670000000  0.5176790000000  0.5281130000000 1.0
C      1  0.5358400000000  0.5850710000000  0.4471080000000 1.0
C      1  0.5840120000000  0.5528250000000  0.4287270000000 1.0
C      1  0.6184400000000  0.5065000000000  0.5054720000000 1.0
C      1  0.4497570000000  0.4885990000000  0.4774470000000 1.0
C      1  0.4355290000000  0.4952720000000  0.5232140000000 1.0
C      1  0.4834910000000  0.4823820000000  0.3952040000000 1.0
C      1  0.4160360000000  0.4988630000000  0.4159100000000 1.0
C      1  0.4081390000000  0.4468910000000  0.5401180000000 1.0
C      1  0.5637840000000  0.5138930000000  0.5770270000000 1.0
C      1  0.4701290000000  0.5036930000000  0.5602410000000 1.0
C      1  0.4939930000000  0.5163980000000  0.4809810000000 1.0
C      1  0.4609220000000  0.5808000000000  0.4506140000000 1.0
C      1  0.4504030000000  0.5342700000000  0.4000430000000 1.0
C      1  0.5069220000000  0.4679340000000  0.4800800000000 1.0
C      1  0.5519720000000  0.5356480000000  0.5408170000000 1.0
C      1  0.5091020000000  0.6142540000000  0.4977860000000 1.0
C      1  0.5864380000000  0.4234090000000  0.4893520000000 1.0
C      1  0.5578920000000  0.4447560000000  0.5040570000000 1.0
C      1  0.4504570000000  0.4530650000000  0.5839400000000 1.0
C      1  0.5655600000000  0.5191390000000  0.4938310000000 1.0
C      1  0.5856770000000  0.5569980000000  0.4575890000000 1.0
C      1  0.4691810000000  0.5926940000000  0.5217720000000 1.0
C      1  0.5621830000000  0.4607240000000  0.5294260000000 1.0
C      1  0.4942590000000  0.4571800000000  0.4085380000000 1.0
C      1  0.4291870000000  0.5488640000000  0.5170630000000 1.0
C      1  0.5643080000000  0.4647450000000  0.4801900000000 1.0
C      1  0.5692210000000  0.4407630000000  0.5847830000000 1.0
C      1  0.4358170000000  0.5679000000000  0.4435640000000 1.0
C      1  0.5518050000000  0.5416870000000  0.5850210000000 1.0
C      1  0.5208720000000  0.4918860000000  0.4300850000000 1.0
C      1  0.6053560000000  0.5367110000000  0.5346380000000 1.0
C      1  0.4390060000000  0.4959660000000  0.5904420000000 1.0
C      1  0.3835260000000  0.5467720000000  0.4951460000000 1.0
C      1  0.4465550000000  0.4729860000000  0.5041390000000 1.0
C      1  0.5349050000000  0.4750980000000  0.5294970000000 1.0
C      1  0.4485350000000  0.4604880000000  0.5563870000000 1.0
C      1  0.5131600000000  0.4556760000000  0.5916930000000 1.0
C      1  0.5666950000000  0.4485520000000  0.4313640000000 1.0
C      1  0.4425890000000  0.5682770000000  0.5684970000000 1.0
C      1  0.5094480000000  0.3915150000000  0.5267880000000 1.0
C      1  0.4907370000000  0.4576260000000  0.5432090000000 1.0
C      1  0.4624540000000  0.5269810000000  0.4422460000000 1.0
C      1  0.4205680000000  0.4707040000000  0.4264450000000 1.0
C      1  0.5308390000000  0.5691160000000  0.5013020000000 1.0
C      1  0.4581510000000  0.5879110000000  0.5525110000000 1.0
C      1  0.4369780000000  0.4359400000000  0.5434650000000 1.0
C      1  0.3860440000000  0.5695790000000  0.5116170000000 1.0
C      1  0.5278230000000  0.4361460000000  0.6059390000000 1.0
C      1  0.4333970000000  0.5404320000000  0.5744250000000 1.0
C      1  0.5558100000000  0.4883450000000  0.5913160000000 1.0
C      1  0.5038320000000  0.6117900000000  0.5452900000000 1.0
C      1  0.4512960000000  0.4763690000000  0.4493680000000 1.0
C      1  0.5221080000000  0.4488840000000  0.4538180000000 1.0
C      1  0.4106310000000  0.4595530000000  0.4533030000000 1.0
C      1  0.5182460000000  0.4508070000000  0.5316250000000 1.0
C      1  0.5412440000000  0.3976410000000  0.4912820000000 1.0
C      1  0.4473250000000  0.3809880000000  0.5303260000000 1.0
C      1  0.3834630000000  0.5201580000000  0.5061170000000 1.0
C      1  0.3907740000000  0.4689230000000  0.4709950000000 1.0
C      1  0.5223040000000  0.5390600000000  0.5795780000000 1.0
C      1  0.4304860000000  0.4411430000000  0.4652730000000 1.0
C      1  0.4717580000000  0.4272510000000  0.4959160000000 1.0
C      1  0.3994750000000  0.5000400000000  0.5483890000000 1.0
C      1  0.5075220000000  0.5912260000000  0.4494070000000 1.0
C      1  0.4304430000000  0.4455880000000  0.4968920000000 1.0
C      1  0.6080720000000  0.4415670000000  0.4836050000000 1.0
C      1  0.5441590000000  0.5057680000000  0.4487230000000 1.0
C      1  0.4692540000000  0.4438240000000  0.4205110000000 1.0
C      1  0.5770840000000  0.5797410000000  0.4734650000000 1.0
C      1  0.4985790000000  0.5483600000000  0.5332680000000 1.0
C      1  0.5943190000000  0.4690070000000  0.4776010000000 1.0
C      1  0.4018580000000  0.4718010000000  0.5531100000000 1.0
C      1  0.4892890000000  0.6161680000000  0.5203090000000 1.0
C      1  0.5215320000000  0.5088060000000  0.4051710000000 1.0
C      1  0.4196770000000  0.5673390000000  0.4683340000000 1.0
C      1  0.5201330000000  0.5664910000000  0.5663840000000 1.0
C      1  0.5566950000000  0.5958070000000  0.4625510000000 1.0
C      1  0.4466130000000  0.4244720000000  0.5116920000000 1.0
C      1  0.5516820000000  0.5460340000000  0.4835480000000 1.0
C      1  0.4393510000000  0.5408270000000  0.4288660000000 1.0
C      1  0.5114230000000  0.5117110000000  0.5034300000000 1.0
C      1  0.4776350000000  0.5169030000000  0.6010660000000 1.0
C      1  0.4072260000000  0.5204050000000  0.4602790000000 1.0
C      1  0.6213100000000  0.4538450000000  0.5096980000000 1.0
C      1  0.4384070000000  0.5668620000000  0.4928310000000 1.0
C      1  0.5461290000000  0.4521460000000  0.4105860000000 1.0
C      1  0.4534430000000  0.5425490000000  0.5348300000000 1.0
C      1  0.5362040000000  0.5363970000000  0.4563300000000 1.0
C      1  0.4620810000000  0.3933420000000  0.5504080000000 1.0
C      1  0.5205460000000  0.4179580000000  0.4537060000000 1.0
C      1  0.5031950000000  0.4154710000000  0.5665780000000 1.0
C      1  0.4656300000000  0.5988800000000  0.4739630000000 1.0
C      1  0.5735940000000  0.5731050000000  0.5304820000000 1.0
C      1  0.5903310000000  0.5078300000000  0.5650300000000 1.0
C      1  0.5766630000000  0.4836980000000  0.4055950000000 1.0
C      1  0.5990630000000  0.4177370000000  0.5346180000000 1.0
C      1  0.4421330000000  0.4896890000000  0.5542880000000 1.0
C      1  0.5457210000000  0.4256750000000  0.5865910000000 1.0
C      1  0.4490000000000  0.5947010000000  0.4990790000000 1.0
C      1  0.5466300000000  0.4100940000000  0.4656270000000 1.0
C      1  0.5263790000000  0.4867930000000  0.4986120000000 1.0
C      1  0.4966990000000  0.5384000000000  0.5973960000000 1.0
C      1  0.4798380000000  0.5597660000000  0.5893280000000 1.0
C      1  0.4381360000000  0.3956650000000  0.5088940000000 1.0
C      1  0.4733600000000  0.4660510000000  0.5174570000000 1.0
C      1  0.4978010000000  0.5799410000000  0.5806310000000 1.0
C      1  0.5318150000000  0.4158990000000  0.5623060000000 1.0
C      1  0.5985590000000  0.5337090000000  0.4684960000000 1.0
C      1  0.4944760000000  0.4842120000000  0.5563620000000 1.0
C      1  0.5233830000000  0.4908820000000  0.5554930000000 1.0
C      1  0.4916830000000  0.4420640000000  0.5734460000000 1.0
C      1  0.5470730000000  0.5512130000000  0.3934720000000 1.0
C      1  0.6013880000000  0.5130420000000  0.4483360000000 1.0
C      1  0.4485750000000  0.4006840000000  0.4633800000000 1.0
C      1  0.4832930000000  0.5663560000000  0.5121390000000 1.0
C      1  0.4316640000000  0.5148290000000  0.4786030000000 1.0
C      1  0.5572580000000  0.5705630000000  0.5757740000000 1.0
C      1  0.5577060000000  0.4684870000000  0.3908150000000 1.0
C      1  0.4879850000000  0.4897980000000  0.4692590000000 1.0
C      1  0.5549890000000  0.4027020000000  0.5165780000000 1.0
C      1  0.5285190000000  0.5565410000000  0.5296350000000 1.0
C      1  0.3852340000000  0.4640150000000  0.4981990000000 1.0
C      1  0.5947620000000  0.4789600000000  0.5663180000000 1.0
C      1  0.4456600000000  0.4134120000000  0.5645030000000 1.0
C      1  0.5507440000000  0.4938070000000  0.4798530000000 1.0
C      1  0.4548870000000  0.4800140000000  0.3922240000000 1.0
C      1  0.5855180000000  0.5529850000000  0.5461560000000 1.0
C      1  0.3696880000000  0.4789540000000  0.5162580000000 1.0
C      1  0.6033100000000  0.5296150000000  0.4966880000000 1.0
C      1  0.6101040000000  0.4434440000000  0.5354580000000 1.0
C      1  0.5258250000000  0.5211830000000  0.5552070000000 1.0
C      1  0.4835270000000  0.4883520000000  0.5934410000000 1.0
C      1  0.4433780000000  0.3836780000000  0.4844600000000 1.0
C      1  0.5666000000000  0.5089780000000  0.4173010000000 1.0
C      1  0.4732810000000  0.5368100000000  0.5601500000000 1.0
C      1  0.5904630000000  0.5249030000000  0.4238020000000 1.0
C      1  0.5213360000000  0.5635070000000  0.4011210000000 1.0
C      1  0.4860150000000  0.5733980000000  0.4354620000000 1.0
C      1  0.4445890000000  0.4576410000000  0.4088420000000 1.0
C      1  0.5408610000000  0.5593600000000  0.4340850000000 1.0
C      1  0.6056770000000  0.4806630000000  0.5045280000000 1.0
C      1  0.5646320000000  0.5148190000000  0.5232600000000 1.0
C      1  0.4083270000000  0.5260980000000  0.5626340000000 1.0
END
