TITL C-3577079-311-443 -1.02050774022946e-07 125000 -872.899895982273 0 0 142 (C1) n - 1
REM
REM in /home/bkarasulu/work/CARBON/AIRSS/Generating-Clusters/EDIP-Nigel-Params/with-SteepDescent/Higher-Symm/SD-CG/HFTN-CG
REM
REM
REM
REM
REM
REM ./C.cell (12c818d87b63d06a65506943cc24bca4)
REM
REM compiler GCC version 9.2.1 20190827 (Red Hat 9.2.1-1)
REM options -cpp -mtune=generic -march=x86-64 -g -O0 -fpre-include=/usr/include/finclude/math-vector-fortran.h
REM seed -1699963229 -331760062 153150463 -260519089 1387169964 -892431077 -1335210963 2027006866 43191787 -1043925741 1092009728 -1033122983 -1361762822 -2117075910 -1964865260 -1224103538 1504571596 -190867605 2098628679 -42930042 -1108978673 1332016554 -1266466278 861152918 432311498 1705141885 -295626698 906950496 -286209385 -1583750791 365017372 -2065937186 -812799698
REM
CELL 1.54180   50.00000   50.00000   50.00000   90.00000   90.00000   90.00000
LATT -1
SFAC C  
C      1  0.5219290000000  0.5890880000000  0.4654210000000 1.0
C      1  0.4773530000000  0.5903190000000  0.5350480000000 1.0
C      1  0.5431770000000  0.4120590000000  0.5288120000000 1.0
C      1  0.4569250000000  0.4123270000000  0.4708940000000 1.0
C      1  0.4211720000000  0.4937460000000  0.5574940000000 1.0
C      1  0.5795120000000  0.4932780000000  0.4421900000000 1.0
C      1  0.4669150000000  0.4173440000000  0.5262700000000 1.0
C      1  0.5332060000000  0.4170990000000  0.4731340000000 1.0
C      1  0.5788820000000  0.4371600000000  0.4925940000000 1.0
C      1  0.4212470000000  0.4374210000000  0.5073110000000 1.0
C      1  0.5447520000000  0.5749060000000  0.4519660000000 1.0
C      1  0.4544730000000  0.5758430000000  0.5484200000000 1.0
C      1  0.5112340000000  0.5086660000000  0.4908290000000 1.0
C      1  0.4886630000000  0.5092080000000  0.5080700000000 1.0
C      1  0.5345500000000  0.4671520000000  0.4180130000000 1.0
C      1  0.4660990000000  0.4678150000000  0.5812630000000 1.0
C      1  0.4870660000000  0.4575230000000  0.5346720000000 1.0
C      1  0.5135090000000  0.4563890000000  0.4647250000000 1.0
C      1  0.4679890000000  0.4721490000000  0.4959870000000 1.0
C      1  0.5321650000000  0.4719860000000  0.5035940000000 1.0
C      1  0.5214310000000  0.5232050000000  0.5481730000000 1.0
C      1  0.4788370000000  0.5197740000000  0.4540490000000 1.0
C      1  0.5157630000000  0.4135710000000  0.5345380000000 1.0
C      1  0.4843170000000  0.4128630000000  0.4648420000000 1.0
C      1  0.5104950000000  0.5133970000000  0.5934470000000 1.0
C      1  0.4900570000000  0.5135780000000  0.4060680000000 1.0
C      1  0.4950120000000  0.4089910000000  0.5145010000000 1.0
C      1  0.5050980000000  0.4087310000000  0.4849550000000 1.0
C      1  0.4415750000000  0.5490460000000  0.5488900000000 1.0
C      1  0.5580740000000  0.5485440000000  0.4513150000000 1.0
C      1  0.5856880000000  0.4381420000000  0.5212290000000 1.0
C      1  0.4144450000000  0.4385090000000  0.4787560000000 1.0
C      1  0.5641370000000  0.5124330000000  0.5749080000000 1.0
C      1  0.4365970000000  0.5123550000000  0.4265630000000 1.0
C      1  0.4356260000000  0.5039860000000  0.5794870000000 1.0
C      1  0.5651860000000  0.5032560000000  0.4199780000000 1.0
C      1  0.5355430000000  0.5428870000000  0.5170980000000 1.0
C      1  0.4607380000000  0.5439740000000  0.4854610000000 1.0
C      1  0.4842000000000  0.5179140000000  0.5791950000000 1.0
C      1  0.5163590000000  0.5174470000000  0.4201950000000 1.0
C      1  0.5572470000000  0.4198250000000  0.4875450000000 1.0
C      1  0.4427410000000  0.4198730000000  0.5121100000000 1.0
C      1  0.5578730000000  0.4400750000000  0.5656200000000 1.0
C      1  0.4416090000000  0.4399830000000  0.4341800000000 1.0
C      1  0.4695790000000  0.5888790000000  0.4706150000000 1.0
C      1  0.5291110000000  0.5854290000000  0.5286900000000 1.0
C      1  0.5759500000000  0.5828610000000  0.5143620000000 1.0
C      1  0.4233190000000  0.5836390000000  0.4857750000000 1.0
C      1  0.5562210000000  0.5123970000000  0.4882010000000 1.0
C      1  0.4439610000000  0.5123660000000  0.5116410000000 1.0
C      1  0.5156540000000  0.4586160000000  0.5940560000000 1.0
C      1  0.4845150000000  0.4584180000000  0.4054720000000 1.0
C      1  0.4252940000000  0.4862640000000  0.4810460000000 1.0
C      1  0.5751440000000  0.4857560000000  0.5187450000000 1.0
C      1  0.5423820000000  0.4928580000000  0.4072060000000 1.0
C      1  0.4582790000000  0.4933850000000  0.5922810000000 1.0
C      1  0.5976660000000  0.4650260000000  0.5257490000000 1.0
C      1  0.4025730000000  0.4654610000000  0.4745200000000 1.0
C      1  0.4651790000000  0.5157780000000  0.4901970000000 1.0
C      1  0.5347580000000  0.5159290000000  0.5069630000000 1.0
C      1  0.4520850000000  0.4731570000000  0.4723800000000 1.0
C      1  0.5482930000000  0.4727360000000  0.5273090000000 1.0
C      1  0.4907940000000  0.5606960000000  0.5138900000000 1.0
C      1  0.5083320000000  0.5593260000000  0.4862570000000 1.0
C      1  0.5982420000000  0.5582900000000  0.4785470000000 1.0
C      1  0.4014230000000  0.5584250000000  0.5214520000000 1.0
C      1  0.4264390000000  0.4660360000000  0.5489410000000 1.0
C      1  0.5739900000000  0.4656150000000  0.4508390000000 1.0
C      1  0.4044340000000  0.5630640000000  0.4943420000000 1.0
C      1  0.5953370000000  0.5628870000000  0.5056880000000 1.0
C      1  0.5520000000000  0.4824000000000  0.4833160000000 1.0
C      1  0.4485240000000  0.4825230000000  0.5163820000000 1.0
C      1  0.4421400000000  0.5776610000000  0.4630640000000 1.0
C      1  0.5569970000000  0.5765630000000  0.5367280000000 1.0
C      1  0.5279650000000  0.4504390000000  0.5672470000000 1.0
C      1  0.4720240000000  0.4495480000000  0.4321410000000 1.0
C      1  0.5212880000000  0.4870180000000  0.6007970000000 1.0
C      1  0.4785840000000  0.4871270000000  0.3995490000000 1.0
C      1  0.4602800000000  0.5580580000000  0.5101670000000 1.0
C      1  0.5391210000000  0.5568110000000  0.4902200000000 1.0
C      1  0.5741470000000  0.4641650000000  0.5738540000000 1.0
C      1  0.4256360000000  0.4644190000000  0.4262160000000 1.0
C      1  0.5019070000000  0.5397930000000  0.4609080000000 1.0
C      1  0.4980970000000  0.5425240000000  0.5400890000000 1.0
C      1  0.4725570000000  0.5359460000000  0.4084910000000 1.0
C      1  0.5277750000000  0.5358380000000  0.5949740000000 1.0
C      1  0.5135040000000  0.4490060000000  0.4075670000000 1.0
C      1  0.4867350000000  0.4493760000000  0.5919100000000 1.0
C      1  0.5427420000000  0.5328940000000  0.5698470000000 1.0
C      1  0.4579640000000  0.5319050000000  0.4338690000000 1.0
C      1  0.4625390000000  0.4269560000000  0.5545690000000 1.0
C      1  0.5378470000000  0.4261210000000  0.4446370000000 1.0
C      1  0.5845500000000  0.5086220000000  0.5547090000000 1.0
C      1  0.4151460000000  0.5091210000000  0.4454540000000 1.0
C      1  0.5300850000000  0.5980300000000  0.5020210000000 1.0
C      1  0.4691710000000  0.5996530000000  0.4983440000000 1.0
C      1  0.4386320000000  0.4320820000000  0.4623890000000 1.0
C      1  0.5614580000000  0.4316870000000  0.5375710000000 1.0
C      1  0.5531870000000  0.4858920000000  0.5795010000000 1.0
C      1  0.4469570000000  0.4857990000000  0.4210080000000 1.0
C      1  0.4431530000000  0.5472580000000  0.4618410000000 1.0
C      1  0.5573410000000  0.5465680000000  0.5390050000000 1.0
C      1  0.5133400000000  0.4256960000000  0.4273070000000 1.0
C      1  0.4869300000000  0.4263390000000  0.5719350000000 1.0
C      1  0.5027020000000  0.5674770000000  0.5692590000000 1.0
C      1  0.4957030000000  0.5652550000000  0.4323080000000 1.0
C      1  0.4211070000000  0.4663070000000  0.5189770000000 1.0
C      1  0.5793440000000  0.4659620000000  0.4807940000000 1.0
C      1  0.4439500000000  0.5864280000000  0.5068550000000 1.0
C      1  0.5557400000000  0.5856970000000  0.4932110000000 1.0
C      1  0.5141520000000  0.4511460000000  0.4938830000000 1.0
C      1  0.4860920000000  0.4514580000000  0.5057010000000 1.0
C      1  0.4076970000000  0.4790780000000  0.4468550000000 1.0
C      1  0.5921390000000  0.4787570000000  0.5533260000000 1.0
C      1  0.5888300000000  0.5247500000000  0.5046680000000 1.0
C      1  0.4111460000000  0.5249250000000  0.4954350000000 1.0
C      1  0.5978750000000  0.4988880000000  0.4891760000000 1.0
C      1  0.4022960000000  0.4989570000000  0.5107890000000 1.0
C      1  0.4642050000000  0.5004100000000  0.5510280000000 1.0
C      1  0.5364150000000  0.4996240000000  0.4483570000000 1.0
C      1  0.4198550000000  0.5278070000000  0.4672340000000 1.0
C      1  0.5800460000000  0.5271760000000  0.5328890000000 1.0
C      1  0.5459310000000  0.4557040000000  0.4428000000000 1.0
C      1  0.4546540000000  0.4564770000000  0.5564770000000 1.0
C      1  0.5917460000000  0.5114370000000  0.4620300000000 1.0
C      1  0.4084660000000  0.5116550000000  0.5378650000000 1.0
C      1  0.4815460000000  0.5464740000000  0.5675430000000 1.0
C      1  0.5177550000000  0.5452750000000  0.4333350000000 1.0
C      1  0.4941880000000  0.4355990000000  0.4481990000000 1.0
C      1  0.5060360000000  0.4364690000000  0.5511120000000 1.0
C      1  0.5345710000000  0.4776860000000  0.5543630000000 1.0
C      1  0.4658200000000  0.4767310000000  0.4451140000000 1.0
C      1  0.5049990000000  0.5857740000000  0.5468190000000 1.0
C      1  0.4943680000000  0.5847450000000  0.4536240000000 1.0
C      1  0.4892370000000  0.4944540000000  0.4460100000000 1.0
C      1  0.5117120000000  0.4962360000000  0.5526110000000 1.0
C      1  0.5118050000000  0.4879850000000  0.4633330000000 1.0
C      1  0.4888510000000  0.4894670000000  0.5355200000000 1.0
C      1  0.5863180000000  0.5413750000000  0.4594650000000 1.0
C      1  0.4134610000000  0.5416040000000  0.5405290000000 1.0
C      1  0.4579870000000  0.5273740000000  0.5353580000000 1.0
C      1  0.5425100000000  0.5264060000000  0.4645420000000 1.0
END
