TITL C-3578194-7807-202 -9.01335006841638e-07 125000 -1207.6762600381 0 0 189 (C1) n - 1
REM
REM in /home/bkarasulu/work/CARBON/AIRSS/Generating-Clusters/EDIP-Nigel-Params/with-SteepDescent/Higher-Symm/SD-CG/HFTN-CG
REM
REM
REM
REM
REM
REM ./C.cell (12c818d87b63d06a65506943cc24bca4)
REM
REM compiler GCC version 9.2.1 20190827 (Red Hat 9.2.1-1)
REM options -cpp -mtune=generic -march=x86-64 -g -O0 -fpre-include=/usr/include/finclude/math-vector-fortran.h
REM seed -502418921 1724238377 -468424213 -298817833 -1203445614 -1077340942 1890310405 1303012770 1495333549 -1825074712 -441018747 -2003805427 -30991888 1093745751 -643037285 -1256051917 666490412 2117453136 1617588692 43347687 -239023915 -848076712 12139488 1711248380 407996506 -679319073 118807302 -1034772944 1169513013 -1393756672 -1056805045 1476876106 -802591554
REM
CELL 1.54180   50.00000   50.00000   50.00000   90.00000   90.00000   90.00000
LATT -1
SFAC C  
C      1  0.5493360000000  0.5714960000000  0.4437500000000 1.0
C      1  0.4532400000000  0.4312180000000  0.4466760000000 1.0
C      1  0.5542200000000  0.4270610000000  0.5536910000000 1.0
C      1  0.4450930000000  0.5727330000000  0.5526240000000 1.0
C      1  0.5187460000000  0.3980510000000  0.5488170000000 1.0
C      1  0.4808080000000  0.6031210000000  0.5497020000000 1.0
C      1  0.5169370000000  0.6049840000000  0.4472240000000 1.0
C      1  0.4851550000000  0.3984710000000  0.4507490000000 1.0
C      1  0.5533280000000  0.5380030000000  0.4059420000000 1.0
C      1  0.4469190000000  0.4637960000000  0.4118050000000 1.0
C      1  0.5523720000000  0.4633770000000  0.5963070000000 1.0
C      1  0.4464000000000  0.5359360000000  0.5910960000000 1.0
C      1  0.5139520000000  0.5302720000000  0.3780130000000 1.0
C      1  0.4826710000000  0.4743900000000  0.3806210000000 1.0
C      1  0.5147870000000  0.4712420000000  0.6222310000000 1.0
C      1  0.4813610000000  0.5260710000000  0.6195280000000 1.0
C      1  0.5308530000000  0.5717490000000  0.5785260000000 1.0
C      1  0.4689980000000  0.4282400000000  0.5779220000000 1.0
C      1  0.5289520000000  0.4077990000000  0.4292490000000 1.0
C      1  0.4672290000000  0.5736690000000  0.4192870000000 1.0
C      1  0.3950630000000  0.4657310000000  0.4962970000000 1.0
C      1  0.6011530000000  0.5326580000000  0.4959960000000 1.0
C      1  0.3946770000000  0.5343140000000  0.5030280000000 1.0
C      1  0.6069000000000  0.4632960000000  0.5011520000000 1.0
C      1  0.5159130000000  0.5267290000000  0.5804330000000 1.0
C      1  0.4846720000000  0.4738460000000  0.5795690000000 1.0
C      1  0.5224630000000  0.4727560000000  0.4164190000000 1.0
C      1  0.4817880000000  0.5272570000000  0.4207800000000 1.0
C      1  0.5761420000000  0.4269720000000  0.5094530000000 1.0
C      1  0.4235140000000  0.5738870000000  0.5095940000000 1.0
C      1  0.5740400000000  0.5712340000000  0.4885490000000 1.0
C      1  0.4255370000000  0.4275010000000  0.4892020000000 1.0
C      1  0.4248180000000  0.4392350000000  0.5609800000000 1.0
C      1  0.5741380000000  0.5607390000000  0.5612710000000 1.0
C      1  0.4250800000000  0.5615160000000  0.4387000000000 1.0
C      1  0.5685790000000  0.4374120000000  0.4383900000000 1.0
C      1  0.5183880000000  0.5021380000000  0.5565060000000 1.0
C      1  0.4841600000000  0.4981690000000  0.5548160000000 1.0
C      1  0.5172780000000  0.5062500000000  0.4575590000000 1.0
C      1  0.4859300000000  0.5051900000000  0.4489990000000 1.0
C      1  0.3852540000000  0.4918660000000  0.4871970000000 1.0
C      1  0.6012990000000  0.5050090000000  0.4861910000000 1.0
C      1  0.3836290000000  0.5084100000000  0.5118220000000 1.0
C      1  0.5923280000000  0.4889130000000  0.5092020000000 1.0
C      1  0.4456460000000  0.4914880000000  0.5140490000000 1.0
C      1  0.5454760000000  0.5112630000000  0.5065200000000 1.0
C      1  0.4464810000000  0.5146720000000  0.4928980000000 1.0
C      1  0.5601840000000  0.4855670000000  0.5031690000000 1.0
C      1  0.5295760000000  0.5519300000000  0.3918650000000 1.0
C      1  0.4704180000000  0.4518710000000  0.3962310000000 1.0
C      1  0.5300470000000  0.4489460000000  0.6084740000000 1.0
C      1  0.4676930000000  0.5493690000000  0.6058350000000 1.0
C      1  0.4526660000000  0.4612000000000  0.4409960000000 1.0
C      1  0.5494350000000  0.5417710000000  0.4358970000000 1.0
C      1  0.4478610000000  0.5431020000000  0.5448580000000 1.0
C      1  0.5542120000000  0.4571370000000  0.5490290000000 1.0
C      1  0.4741790000000  0.6036420000000  0.4739270000000 1.0
C      1  0.5296300000000  0.3866160000000  0.4728600000000 1.0
C      1  0.4751670000000  0.3999640000000  0.5249210000000 1.0
C      1  0.5248570000000  0.6042330000000  0.5265470000000 1.0
C      1  0.4222110000000  0.5302680000000  0.5495310000000 1.0
C      1  0.5813930000000  0.4659750000000  0.5580320000000 1.0
C      1  0.4332680000000  0.4726460000000  0.4617140000000 1.0
C      1  0.5657710000000  0.5280140000000  0.4565720000000 1.0
C      1  0.5300200000000  0.4973160000000  0.6180610000000 1.0
C      1  0.4651700000000  0.5010780000000  0.6148390000000 1.0
C      1  0.5300490000000  0.5050910000000  0.3797470000000 1.0
C      1  0.4657280000000  0.4988180000000  0.3846640000000 1.0
C      1  0.5539230000000  0.5833630000000  0.4705420000000 1.0
C      1  0.4484900000000  0.4183480000000  0.4726490000000 1.0
C      1  0.5588770000000  0.4124270000000  0.5285450000000 1.0
C      1  0.4409570000000  0.5883670000000  0.5280080000000 1.0
C      1  0.4888040000000  0.5835960000000  0.4037100000000 1.0
C      1  0.5180190000000  0.4253360000000  0.4078490000000 1.0
C      1  0.4899760000000  0.4177830000000  0.5938430000000 1.0
C      1  0.5088650000000  0.5817670000000  0.5936800000000 1.0
C      1  0.4088650000000  0.4572850000000  0.4547990000000 1.0
C      1  0.5916490000000  0.5412370000000  0.4531560000000 1.0
C      1  0.4004950000000  0.5478730000000  0.5464580000000 1.0
C      1  0.6009640000000  0.4515900000000  0.5445850000000 1.0
C      1  0.5844000000000  0.4949570000000  0.5592740000000 1.0
C      1  0.4225630000000  0.5008710000000  0.5439240000000 1.0
C      1  0.5660010000000  0.4971240000000  0.4511190000000 1.0
C      1  0.4285120000000  0.5030140000000  0.4599190000000 1.0
C      1  0.5161710000000  0.3868720000000  0.4989110000000 1.0
C      1  0.4830140000000  0.6155330000000  0.4995220000000 1.0
C      1  0.5146930000000  0.6142760000000  0.5006280000000 1.0
C      1  0.4858520000000  0.3912240000000  0.4993800000000 1.0
C      1  0.4968250000000  0.5881410000000  0.4621230000000 1.0
C      1  0.5133080000000  0.3917750000000  0.4484850000000 1.0
C      1  0.4977000000000  0.4150360000000  0.5366830000000 1.0
C      1  0.5028350000000  0.5873350000000  0.5377000000000 1.0
C      1  0.5535660000000  0.5089320000000  0.3982880000000 1.0
C      1  0.4457160000000  0.4926650000000  0.4069470000000 1.0
C      1  0.5524030000000  0.4918630000000  0.5990390000000 1.0
C      1  0.4458590000000  0.5072880000000  0.5926270000000 1.0
C      1  0.4350410000000  0.5388370000000  0.4228190000000 1.0
C      1  0.5626720000000  0.4558220000000  0.4157350000000 1.0
C      1  0.4384530000000  0.4626170000000  0.5715010000000 1.0
C      1  0.5630060000000  0.5367800000000  0.5750210000000 1.0
C      1  0.3986840000000  0.5090090000000  0.4653050000000 1.0
C      1  0.5935440000000  0.4888860000000  0.4615490000000 1.0
C      1  0.3948330000000  0.4913610000000  0.5351750000000 1.0
C      1  0.5960740000000  0.5061380000000  0.5344880000000 1.0
C      1  0.5126000000000  0.4298660000000  0.5043220000000 1.0
C      1  0.4881840000000  0.5727940000000  0.5050120000000 1.0
C      1  0.5177250000000  0.5712540000000  0.4935220000000 1.0
C      1  0.4863820000000  0.4342370000000  0.4887400000000 1.0
C      1  0.5340780000000  0.3958190000000  0.5229330000000 1.0
C      1  0.4656920000000  0.6055390000000  0.5239940000000 1.0
C      1  0.5323390000000  0.6053070000000  0.4742610000000 1.0
C      1  0.4693090000000  0.3964770000000  0.4752610000000 1.0
C      1  0.5361240000000  0.4492390000000  0.4019950000000 1.0
C      1  0.4605360000000  0.5464850000000  0.4120430000000 1.0
C      1  0.5382130000000  0.5449940000000  0.5862810000000 1.0
C      1  0.4623410000000  0.4553710000000  0.5845510000000 1.0
C      1  0.4812680000000  0.4664400000000  0.4845160000000 1.0
C      1  0.5194320000000  0.5457160000000  0.4776240000000 1.0
C      1  0.4843160000000  0.5449300000000  0.5196410000000 1.0
C      1  0.5150090000000  0.4587060000000  0.5188790000000 1.0
C      1  0.5507460000000  0.5882580000000  0.5306230000000 1.0
C      1  0.4473650000000  0.4096560000000  0.5322440000000 1.0
C      1  0.5530100000000  0.4059740000000  0.4695930000000 1.0
C      1  0.4460740000000  0.5931110000000  0.4665720000000 1.0
C      1  0.5070960000000  0.4559650000000  0.5692340000000 1.0
C      1  0.4935530000000  0.5442210000000  0.5685470000000 1.0
C      1  0.5031590000000  0.5455830000000  0.4309880000000 1.0
C      1  0.5002010000000  0.4592910000000  0.4339630000000 1.0
C      1  0.5955980000000  0.5339240000000  0.5242530000000 1.0
C      1  0.3957050000000  0.4631260000000  0.5247880000000 1.0
C      1  0.5966440000000  0.4618770000000  0.4731790000000 1.0
C      1  0.3964900000000  0.5370910000000  0.4746070000000 1.0
C      1  0.5780470000000  0.5810150000000  0.5163360000000 1.0
C      1  0.4228070000000  0.4201200000000  0.5171480000000 1.0
C      1  0.5781430000000  0.4171290000000  0.4820150000000 1.0
C      1  0.4217040000000  0.5806720000000  0.4816190000000 1.0
C      1  0.5300740000000  0.5155250000000  0.5312230000000 1.0
C      1  0.4742040000000  0.4846510000000  0.5274390000000 1.0
C      1  0.5418720000000  0.4879890000000  0.4696080000000 1.0
C      1  0.4685910000000  0.5171290000000  0.4715600000000 1.0
C      1  0.4845650000000  0.5669990000000  0.5861860000000 1.0
C      1  0.5144520000000  0.4324940000000  0.5869290000000 1.0
C      1  0.4898620000000  0.4366190000000  0.4156750000000 1.0
C      1  0.5124330000000  0.5682950000000  0.4122150000000 1.0
C      1  0.5535010000000  0.5820110000000  0.5610590000000 1.0
C      1  0.4453690000000  0.4173900000000  0.5620330000000 1.0
C      1  0.5550170000000  0.4122130000000  0.4406210000000 1.0
C      1  0.4447900000000  0.5836550000000  0.4370810000000 1.0
C      1  0.6000300000000  0.4413020000000  0.5187780000000 1.0
C      1  0.4021100000000  0.5562370000000  0.5198060000000 1.0
C      1  0.5947750000000  0.5537110000000  0.4779880000000 1.0
C      1  0.4039690000000  0.4446020000000  0.4790770000000 1.0
C      1  0.5396340000000  0.5607840000000  0.5138090000000 1.0
C      1  0.4612960000000  0.4397160000000  0.5116060000000 1.0
C      1  0.5401990000000  0.4373810000000  0.4890610000000 1.0
C      1  0.4610650000000  0.5641420000000  0.4878080000000 1.0
C      1  0.4786110000000  0.4767380000000  0.4420560000000 1.0
C      1  0.5241000000000  0.5271800000000  0.4377840000000 1.0
C      1  0.4700420000000  0.5270500000000  0.5620190000000 1.0
C      1  0.5317300000000  0.4729880000000  0.5652960000000 1.0
C      1  0.4739450000000  0.4177740000000  0.4323730000000 1.0
C      1  0.5302430000000  0.5866510000000  0.4282830000000 1.0
C      1  0.4667310000000  0.5850580000000  0.5687090000000 1.0
C      1  0.5325220000000  0.4146770000000  0.5692740000000 1.0
C      1  0.5886020000000  0.5600420000000  0.5354620000000 1.0
C      1  0.4133980000000  0.4417160000000  0.5344350000000 1.0
C      1  0.5866240000000  0.4373320000000  0.4618050000000 1.0
C      1  0.4149170000000  0.5576300000000  0.4653180000000 1.0
C      1  0.5683710000000  0.5085470000000  0.5796230000000 1.0
C      1  0.4315900000000  0.4903450000000  0.5715030000000 1.0
C      1  0.5585940000000  0.4873420000000  0.4213330000000 1.0
C      1  0.4350260000000  0.5104530000000  0.4298910000000 1.0
C      1  0.5283370000000  0.5437780000000  0.5347910000000 1.0
C      1  0.4711860000000  0.4561480000000  0.5348480000000 1.0
C      1  0.5346560000000  0.4583440000000  0.4683040000000 1.0
C      1  0.4708540000000  0.5455760000000  0.4671390000000 1.0
C      1  0.5113000000000  0.4837880000000  0.3907860000000 1.0
C      1  0.4898410000000  0.5155720000000  0.3943100000000 1.0
C      1  0.5093310000000  0.5175600000000  0.6080210000000 1.0
C      1  0.4897830000000  0.4845640000000  0.6068270000000 1.0
C      1  0.5079580000000  0.4501340000000  0.4613800000000 1.0
C      1  0.4963990000000  0.5559660000000  0.4579700000000 1.0
C      1  0.5027100000000  0.5545340000000  0.5423790000000 1.0
C      1  0.4976500000000  0.4462370000000  0.5424910000000 1.0
C      1  0.4535610000000  0.5414090000000  0.5113290000000 1.0
C      1  0.5484640000000  0.4604560000000  0.5176520000000 1.0
C      1  0.4472040000000  0.4660880000000  0.4931550000000 1.0
C      1  0.5486900000000  0.5354330000000  0.4867580000000 1.0
C      1  0.4961720000000  0.4798550000000  0.5067410000000 1.0
END
