TITL C-3577086-586-345 -1.30647544212476e-06 125000 -953.296410417015 0 0 152 (C1) n - 1
REM
REM in /home/bkarasulu/work/CARBON/AIRSS/Generating-Clusters/EDIP-Nigel-Params/with-SteepDescent/Higher-Symm/SD-CG/HFTN-CG
REM
REM
REM
REM
REM
REM ./C.cell (12c818d87b63d06a65506943cc24bca4)
REM
REM compiler GCC version 9.2.1 20190827 (Red Hat 9.2.1-1)
REM options -cpp -mtune=generic -march=x86-64 -g -O0 -fpre-include=/usr/include/finclude/math-vector-fortran.h
REM seed 233863442 -1985070526 -971939525 1768499141 -1574930115 296199453 -1295779486 -1779994255 -331881172 -1398459352 -1042695420 79260584 696861096 128537283 164464815 1256196585 812850575 524300005 945344423 -2079511732 1362175141 -1795492674 1734277215 511636922 852378987 1241104400 86010692 -1339685786 -1066833116 -1908797859 1054549399 -1957843204 1968262892
REM
CELL 1.54180   50.00000   50.00000   50.00000   90.00000   90.00000   90.00000
LATT -1
SFAC C  
C      1  0.3984730000000  0.5165020000000  0.5187240000000 1.0
C      1  0.6032640000000  0.4797600000000  0.4847180000000 1.0
C      1  0.5209840000000  0.4932790000000  0.4090930000000 1.0
C      1  0.4791940000000  0.5086680000000  0.5931090000000 1.0
C      1  0.4127240000000  0.4283910000000  0.4695050000000 1.0
C      1  0.5864290000000  0.5734050000000  0.5236420000000 1.0
C      1  0.3983440000000  0.5462930000000  0.5232070000000 1.0
C      1  0.6002570000000  0.4512050000000  0.4773060000000 1.0
C      1  0.4734080000000  0.5798380000000  0.4824810000000 1.0
C      1  0.5240980000000  0.4207420000000  0.5181580000000 1.0
C      1  0.5721110000000  0.5464080000000  0.5612990000000 1.0
C      1  0.4318440000000  0.4519520000000  0.4367790000000 1.0
C      1  0.4607620000000  0.5234080000000  0.4155340000000 1.0
C      1  0.5382090000000  0.4777230000000  0.5855150000000 1.0
C      1  0.4793500000000  0.4859010000000  0.4379190000000 1.0
C      1  0.5212980000000  0.5152460000000  0.5612520000000 1.0
C      1  0.4206160000000  0.4824770000000  0.5510770000000 1.0
C      1  0.5817030000000  0.5257210000000  0.4433990000000 1.0
C      1  0.4377120000000  0.5762700000000  0.5185110000000 1.0
C      1  0.5618800000000  0.4205390000000  0.4830500000000 1.0
C      1  0.5033820000000  0.5181890000000  0.5369280000000 1.0
C      1  0.4994390000000  0.4827900000000  0.4610470000000 1.0
C      1  0.4572280000000  0.4583480000000  0.5676520000000 1.0
C      1  0.5403580000000  0.5474580000000  0.4340310000000 1.0
C      1  0.4807590000000  0.4436060000000  0.5842170000000 1.0
C      1  0.5162440000000  0.5589090000000  0.4173560000000 1.0
C      1  0.4997660000000  0.4366970000000  0.5604580000000 1.0
C      1  0.4968430000000  0.5716850000000  0.4379920000000 1.0
C      1  0.5004490000000  0.5431460000000  0.3987370000000 1.0
C      1  0.4981250000000  0.4584950000000  0.6021200000000 1.0
C      1  0.5119910000000  0.4995390000000  0.5131520000000 1.0
C      1  0.4888700000000  0.4998090000000  0.4865730000000 1.0
C      1  0.4216180000000  0.4107620000000  0.5094920000000 1.0
C      1  0.5590900000000  0.5700790000000  0.4829170000000 1.0
C      1  0.5445660000000  0.4970830000000  0.4270620000000 1.0
C      1  0.4540600000000  0.5067770000000  0.5771090000000 1.0
C      1  0.5118770000000  0.5968150000000  0.5286960000000 1.0
C      1  0.4883850000000  0.4019980000000  0.4705040000000 1.0
C      1  0.5906980000000  0.5246360000000  0.5524560000000 1.0
C      1  0.4118000000000  0.4719940000000  0.4465540000000 1.0
C      1  0.5590240000000  0.5247200000000  0.4250750000000 1.0
C      1  0.4383430000000  0.4809630000000  0.5755490000000 1.0
C      1  0.5566410000000  0.5196820000000  0.5243850000000 1.0
C      1  0.4445540000000  0.4776360000000  0.4758520000000 1.0
C      1  0.4635340000000  0.5863790000000  0.5119600000000 1.0
C      1  0.5354030000000  0.4122280000000  0.4898260000000 1.0
C      1  0.5646840000000  0.4572250000000  0.5513970000000 1.0
C      1  0.4339130000000  0.5422170000000  0.4505100000000 1.0
C      1  0.4511540000000  0.5071810000000  0.3946770000000 1.0
C      1  0.5484750000000  0.4942090000000  0.6058720000000 1.0
C      1  0.4293030000000  0.4617320000000  0.5303320000000 1.0
C      1  0.5742420000000  0.5242940000000  0.4724980000000 1.0
C      1  0.4681310000000  0.4476020000000  0.5028170000000 1.0
C      1  0.5384120000000  0.5510290000000  0.4947980000000 1.0
C      1  0.5826320000000  0.4357610000000  0.4956140000000 1.0
C      1  0.4184020000000  0.5594220000000  0.5054770000000 1.0
C      1  0.5869540000000  0.5164320000000  0.5199000000000 1.0
C      1  0.4142950000000  0.4798330000000  0.4819500000000 1.0
C      1  0.5013980000000  0.4678300000000  0.5513870000000 1.0
C      1  0.4967390000000  0.5339770000000  0.4483370000000 1.0
C      1  0.4203250000000  0.4939380000000  0.4291860000000 1.0
C      1  0.5815300000000  0.5041880000000  0.5712510000000 1.0
C      1  0.4393570000000  0.4389190000000  0.5510540000000 1.0
C      1  0.5552230000000  0.5699070000000  0.4494030000000 1.0
C      1  0.5337560000000  0.4502340000000  0.5918260000000 1.0
C      1  0.4646440000000  0.5510780000000  0.4098360000000 1.0
C      1  0.5079050000000  0.5151160000000  0.3947280000000 1.0
C      1  0.4921570000000  0.4865910000000  0.6066090000000 1.0
C      1  0.4724200000000  0.4756910000000  0.5457880000000 1.0
C      1  0.5260320000000  0.5299240000000  0.4539620000000 1.0
C      1  0.4386150000000  0.4859340000000  0.4078410000000 1.0
C      1  0.5635960000000  0.5134920000000  0.5921920000000 1.0
C      1  0.4699080000000  0.5507270000000  0.5699460000000 1.0
C      1  0.5337270000000  0.4501820000000  0.4316440000000 1.0
C      1  0.5864830000000  0.4850080000000  0.5096800000000 1.0
C      1  0.4139530000000  0.5110360000000  0.4929370000000 1.0
C      1  0.4486230000000  0.4051900000000  0.5142250000000 1.0
C      1  0.5463720000000  0.5989700000000  0.4860880000000 1.0
C      1  0.5439130000000  0.5256380000000  0.4796450000000 1.0
C      1  0.4576990000000  0.4695960000000  0.5197710000000 1.0
C      1  0.4551580000000  0.4162290000000  0.5406940000000 1.0
C      1  0.5399370000000  0.5967700000000  0.4537700000000 1.0
C      1  0.4503920000000  0.4933240000000  0.4499910000000 1.0
C      1  0.5501320000000  0.5066200000000  0.5509900000000 1.0
C      1  0.4762150000000  0.4044240000000  0.4985320000000 1.0
C      1  0.5201330000000  0.5953650000000  0.4999430000000 1.0
C      1  0.4056590000000  0.5301870000000  0.4707580000000 1.0
C      1  0.5923280000000  0.4651280000000  0.5323000000000 1.0
C      1  0.4171660000000  0.5565440000000  0.4760630000000 1.0
C      1  0.5835600000000  0.4387730000000  0.5244850000000 1.0
C      1  0.4869320000000  0.4503970000000  0.4141690000000 1.0
C      1  0.5186380000000  0.5472660000000  0.5835860000000 1.0
C      1  0.5269060000000  0.4245360000000  0.5522010000000 1.0
C      1  0.4690460000000  0.5771600000000  0.4494300000000 1.0
C      1  0.4082460000000  0.4312090000000  0.4962880000000 1.0
C      1  0.5850420000000  0.5637690000000  0.4976180000000 1.0
C      1  0.5210500000000  0.4226760000000  0.4376750000000 1.0
C      1  0.4827100000000  0.5774860000000  0.5635340000000 1.0
C      1  0.4979080000000  0.4521080000000  0.4666430000000 1.0
C      1  0.5039730000000  0.5479930000000  0.5297180000000 1.0
C      1  0.5511040000000  0.5486470000000  0.5222250000000 1.0
C      1  0.4510720000000  0.4476050000000  0.4766670000000 1.0
C      1  0.4937160000000  0.4222100000000  0.4243820000000 1.0
C      1  0.5112660000000  0.5767940000000  0.5742190000000 1.0
C      1  0.5198450000000  0.4728320000000  0.5282960000000 1.0
C      1  0.4798860000000  0.5272020000000  0.4719720000000 1.0
C      1  0.5206490000000  0.4501850000000  0.5080040000000 1.0
C      1  0.4798970000000  0.5500960000000  0.4919150000000 1.0
C      1  0.5128670000000  0.4879980000000  0.5737850000000 1.0
C      1  0.4861020000000  0.5135630000000  0.4267660000000 1.0
C      1  0.5578010000000  0.4807100000000  0.4992730000000 1.0
C      1  0.4432640000000  0.5167120000000  0.5024090000000 1.0
C      1  0.5871180000000  0.4716710000000  0.4400050000000 1.0
C      1  0.4136190000000  0.5307680000000  0.5620130000000 1.0
C      1  0.4967300000000  0.4082360000000  0.5196160000000 1.0
C      1  0.4990240000000  0.5957170000000  0.4802020000000 1.0
C      1  0.5961820000000  0.4469200000000  0.4494920000000 1.0
C      1  0.4016810000000  0.5534510000000  0.5507570000000 1.0
C      1  0.4739300000000  0.4153210000000  0.4469810000000 1.0
C      1  0.5289250000000  0.5831500000000  0.5500160000000 1.0
C      1  0.4111660000000  0.4588750000000  0.5052480000000 1.0
C      1  0.5911680000000  0.5351110000000  0.4951180000000 1.0
C      1  0.4500060000000  0.5626500000000  0.4331460000000 1.0
C      1  0.5472410000000  0.4374310000000  0.5686700000000 1.0
C      1  0.5391770000000  0.4630600000000  0.4593530000000 1.0
C      1  0.4644170000000  0.5362720000000  0.5428940000000 1.0
C      1  0.5122130000000  0.4656980000000  0.4162220000000 1.0
C      1  0.4904840000000  0.5349650000000  0.5862190000000 1.0
C      1  0.5631070000000  0.4733130000000  0.4237800000000 1.0
C      1  0.4375930000000  0.5321160000000  0.5780740000000 1.0
C      1  0.4685790000000  0.5067900000000  0.5501520000000 1.0
C      1  0.5307730000000  0.4910170000000  0.4553560000000 1.0
C      1  0.4533890000000  0.5212990000000  0.4595910000000 1.0
C      1  0.5459870000000  0.4784450000000  0.5418430000000 1.0
C      1  0.4543550000000  0.4625000000000  0.4186740000000 1.0
C      1  0.5518660000000  0.5383610000000  0.5818640000000 1.0
C      1  0.5079810000000  0.5496080000000  0.5016270000000 1.0
C      1  0.4950240000000  0.4541270000000  0.4946400000000 1.0
C      1  0.5933740000000  0.4931500000000  0.4593130000000 1.0
C      1  0.4135700000000  0.5093560000000  0.5429590000000 1.0
C      1  0.4570250000000  0.5427750000000  0.5137310000000 1.0
C      1  0.5450150000000  0.4551820000000  0.4881270000000 1.0
C      1  0.5409710000000  0.5052180000000  0.5026270000000 1.0
C      1  0.4597070000000  0.4921680000000  0.4978320000000 1.0
C      1  0.5714160000000  0.5711100000000  0.5465000000000 1.0
C      1  0.4314970000000  0.4270470000000  0.4501560000000 1.0
C      1  0.4857260000000  0.5822000000000  0.5335380000000 1.0
C      1  0.5147630000000  0.4170990000000  0.4673320000000 1.0
C      1  0.5299170000000  0.5540810000000  0.5415360000000 1.0
C      1  0.4715400000000  0.4447590000000  0.4550840000000 1.0
C      1  0.5107420000000  0.5923210000000  0.4540600000000 1.0
C      1  0.4837250000000  0.4199000000000  0.5421960000000 1.0
END
