TITL C-3578197-9521-185 5.99110795027847e-07 125000 -163.550863612506 0 0 28 (Ci) n - 1
REM
REM in /home/bkarasulu/work/CARBON/AIRSS/Generating-Clusters/EDIP-Nigel-Params/with-SteepDescent/Higher-Symm/SD-CG/HFTN-CG
REM
REM
REM
REM
REM
REM ./C.cell (12c818d87b63d06a65506943cc24bca4)
REM
REM compiler GCC version 9.2.1 20190827 (Red Hat 9.2.1-1)
REM options -cpp -mtune=generic -march=x86-64 -g -O0 -fpre-include=/usr/include/finclude/math-vector-fortran.h
REM seed 36956139 -206654147 -935005650 -754046900 1386669235 1770842621 -1904163310 -1437661193 1764770021 1142094070 -1415383589 -1831563462 -1590158832 753700717 585731959 1976979648 -1527092945 -284223602 -1263776681 -381981478 -1055153860 799874540 -1639914828 -692859319 -1283003902 1684187969 1083007475 -179609239 1089757491 617376046 -1315080553 -1701514275 1081324442
REM
CELL 1.54180   50.00000   50.00000   50.00000   90.00000   90.00000   90.00000
LATT -1
SFAC C  
C      1  0.4673060000000  0.4843130000000  0.5126120000000 1.0
C      1  0.5326940000000  0.5156870000000  0.4873880000000 1.0
C      1  0.5330730000000  0.5359490000000  0.5061860000000 1.0
C      1  0.4669270000000  0.4640510000000  0.4938140000000 1.0
C      1  0.4325700000000  0.5217900000000  0.5111490000000 1.0
C      1  0.5674300000000  0.4782100000000  0.4888510000000 1.0
C      1  0.4564660000000  0.5352000000000  0.5189190000000 1.0
C      1  0.5435340000000  0.4648000000000  0.4810810000000 1.0
C      1  0.5099140000000  0.5127770000000  0.4699670000000 1.0
C      1  0.4900860000000  0.4872230000000  0.5300330000000 1.0
C      1  0.4862620000000  0.4801420000000  0.4407610000000 1.0
C      1  0.5137380000000  0.5198580000000  0.5592390000000 1.0
C      1  0.4567770000000  0.5091280000000  0.4998630000000 1.0
C      1  0.5432230000000  0.4908720000000  0.5001370000000 1.0
C      1  0.4616100000000  0.4894200000000  0.4523850000000 1.0
C      1  0.5383900000000  0.5105800000000  0.5476150000000 1.0
C      1  0.5106010000000  0.4897300000000  0.4522460000000 1.0
C      1  0.4893990000000  0.5102700000000  0.5477540000000 1.0
C      1  0.4656020000000  0.5130700000000  0.4703710000000 1.0
C      1  0.5343980000000  0.4869300000000  0.5296290000000 1.0
C      1  0.5309560000000  0.4606860000000  0.5414250000000 1.0
C      1  0.4690440000000  0.5393140000000  0.4585750000000 1.0
C      1  0.4619810000000  0.4641480000000  0.4667290000000 1.0
C      1  0.5380190000000  0.5358520000000  0.5332710000000 1.0
C      1  0.4962130000000  0.5365290000000  0.4624350000000 1.0
C      1  0.5037870000000  0.4634710000000  0.5375650000000 1.0
C      1  0.4699620000000  0.5292730000000  0.5422190000000 1.0
C      1  0.5300380000000  0.4707270000000  0.4577810000000 1.0
END
