TITL C-3578203-1966-754 -3.36246951248784e-07 125000 -73.0526744316261 0 0 14 (C3) n - 1
REM
REM in /home/bkarasulu/work/CARBON/AIRSS/Generating-Clusters/EDIP-Nigel-Params/with-SteepDescent/Higher-Symm/SD-CG/HFTN-CG
REM
REM
REM
REM
REM
REM ./C.cell (12c818d87b63d06a65506943cc24bca4)
REM
REM compiler GCC version 9.2.1 20190827 (Red Hat 9.2.1-1)
REM options -cpp -mtune=generic -march=x86-64 -g -O0 -fpre-include=/usr/include/finclude/math-vector-fortran.h
REM seed 1988980040 -405792118 -154525741 -686753628 -369105343 -1370948357 315419826 1300014463 -302565747 1870565703 301810619 -1858746938 -1371163175 -199411136 -539412362 -919367696 -370044562 1688048214 -2018005952 -371793524 953485007 -1857923207 4695610 -29862683 -1239022070 1194236358 1045465606 -225406559 -1098464539 1922402913 -1886292840 1431725748 682406968
REM
CELL 1.54180   50.00000   50.00000   50.00000   90.00000   90.00000   90.00000
LATT -1
SFAC C  
C      1  0.4708030000000  0.4836830000000  0.5255170000000 1.0
C      1  0.4708810000000  0.5288730000000  0.5086110000000 1.0
C      1  0.4708640000000  0.4916370000000  0.4779280000000 1.0
C      1  0.5154320000000  0.5298660000000  0.5090640000000 1.0
C      1  0.5154150000000  0.4914030000000  0.4768620000000 1.0
C      1  0.5153510000000  0.4827470000000  0.5262730000000 1.0
C      1  0.5386780000000  0.4801370000000  0.4711990000000 1.0
C      1  0.5386100000000  0.4834080000000  0.5388720000000 1.0
C      1  0.5387250000000  0.5403790000000  0.5022020000000 1.0
C      1  0.4922690000000  0.4736260000000  0.5386690000000 1.0
C      1  0.4923930000000  0.5452290000000  0.5107540000000 1.0
C      1  0.4923650000000  0.4852520000000  0.4627020000000 1.0
C      1  0.4785870000000  0.5013870000000  0.5040270000000 1.0
C      1  0.5088310000000  0.5013470000000  0.5040590000000 1.0
END
