TITL C-3577080-309-162 1.06267372880016e-06 125000 -860.609775939869 0 0 137 (C1) n - 1
REM
REM in /home/bkarasulu/work/CARBON/AIRSS/Generating-Clusters/EDIP-Nigel-Params/with-SteepDescent/Higher-Symm/SD-CG/HFTN-CG
REM
REM
REM
REM
REM
REM ./C.cell (12c818d87b63d06a65506943cc24bca4)
REM
REM compiler GCC version 9.2.1 20190827 (Red Hat 9.2.1-1)
REM options -cpp -mtune=generic -march=x86-64 -g -O0 -fpre-include=/usr/include/finclude/math-vector-fortran.h
REM seed 523063837 158275705 -1342934229 2075821588 -1806621865 1942890608 -869785518 1079599031 -242852061 -553058725 1104332833 -1941457413 -1254413484 1713751025 -1158911868 -2032447316 -1452990423 -1148584364 1093527372 1345194753 -28699738 2106731451 -850687127 -2073099926 -740762254 -1079856271 486407689 698395603 -838307884 1233679162 1640892113 1937459082 451637520
REM
CELL 1.54180   50.00000   50.00000   50.00000   90.00000   90.00000   90.00000
LATT -1
SFAC C  
C      1  0.3998880000000  0.5267730000000  0.4930100000000 1.0
C      1  0.5973060000000  0.4768300000000  0.4927540000000 1.0
C      1  0.5805200000000  0.4889230000000  0.5326740000000 1.0
C      1  0.4189520000000  0.5130110000000  0.5331320000000 1.0
C      1  0.5779630000000  0.5388710000000  0.5159170000000 1.0
C      1  0.4213850000000  0.4629860000000  0.5169560000000 1.0
C      1  0.4507820000000  0.4733880000000  0.5771530000000 1.0
C      1  0.5491880000000  0.5269860000000  0.5775320000000 1.0
C      1  0.4590120000000  0.4350760000000  0.5734220000000 1.0
C      1  0.5404830000000  0.5648270000000  0.5707650000000 1.0
C      1  0.4977480000000  0.4546610000000  0.4604680000000 1.0
C      1  0.5057340000000  0.5270670000000  0.4609300000000 1.0
C      1  0.5628650000000  0.5664770000000  0.4754260000000 1.0
C      1  0.4369890000000  0.4342080000000  0.4772950000000 1.0
C      1  0.4905040000000  0.4511650000000  0.4101060000000 1.0
C      1  0.5071050000000  0.5533410000000  0.4073120000000 1.0
C      1  0.5313410000000  0.4795310000000  0.5516420000000 1.0
C      1  0.4688690000000  0.5215120000000  0.5511830000000 1.0
C      1  0.5119610000000  0.5870440000000  0.5220170000000 1.0
C      1  0.4870870000000  0.4109670000000  0.5245420000000 1.0
C      1  0.4091220000000  0.5375550000000  0.5193450000000 1.0
C      1  0.5899850000000  0.4645480000000  0.5188140000000 1.0
C      1  0.4217120000000  0.4419840000000  0.5365620000000 1.0
C      1  0.5774690000000  0.5594620000000  0.5355710000000 1.0
C      1  0.5920630000000  0.5134370000000  0.5200380000000 1.0
C      1  0.4074130000000  0.4886610000000  0.5204610000000 1.0
C      1  0.4737600000000  0.5389810000000  0.5762960000000 1.0
C      1  0.5260720000000  0.4601000000000  0.5744420000000 1.0
C      1  0.4774900000000  0.4770580000000  0.5322030000000 1.0
C      1  0.5220870000000  0.5226410000000  0.5325000000000 1.0
C      1  0.4687410000000  0.4957950000000  0.5102570000000 1.0
C      1  0.5317260000000  0.5013760000000  0.5130590000000 1.0
C      1  0.4675030000000  0.5681690000000  0.4337490000000 1.0
C      1  0.5323000000000  0.4365360000000  0.4340640000000 1.0
C      1  0.5054420000000  0.4299810000000  0.4243490000000 1.0
C      1  0.4946410000000  0.5728980000000  0.4248260000000 1.0
C      1  0.4603310000000  0.4233430000000  0.4372520000000 1.0
C      1  0.5411580000000  0.5740260000000  0.4352080000000 1.0
C      1  0.4310650000000  0.4639370000000  0.4435090000000 1.0
C      1  0.5719670000000  0.5358060000000  0.4409950000000 1.0
C      1  0.5106630000000  0.4284440000000  0.5192630000000 1.0
C      1  0.4895750000000  0.5684190000000  0.5170500000000 1.0
C      1  0.6025740000000  0.5056240000000  0.4938420000000 1.0
C      1  0.3964280000000  0.4970670000000  0.4944000000000 1.0
C      1  0.4561790000000  0.4808270000000  0.4371540000000 1.0
C      1  0.5478800000000  0.5209850000000  0.4289580000000 1.0
C      1  0.5574240000000  0.5799450000000  0.5321250000000 1.0
C      1  0.4412840000000  0.4205550000000  0.5340490000000 1.0
C      1  0.4235980000000  0.5127800000000  0.4187670000000 1.0
C      1  0.5792920000000  0.4899050000000  0.4130660000000 1.0
C      1  0.4750710000000  0.5647830000000  0.5471050000000 1.0
C      1  0.5259350000000  0.4312830000000  0.5484350000000 1.0
C      1  0.4336060000000  0.5588930000000  0.5160590000000 1.0
C      1  0.5668260000000  0.4429570000000  0.5158530000000 1.0
C      1  0.4997520000000  0.5389430000000  0.5106510000000 1.0
C      1  0.5005860000000  0.4579810000000  0.5123180000000 1.0
C      1  0.4736760000000  0.5241440000000  0.4991520000000 1.0
C      1  0.5249740000000  0.4743590000000  0.5004190000000 1.0
C      1  0.4648750000000  0.4303380000000  0.4882860000000 1.0
C      1  0.5339520000000  0.5662300000000  0.4860840000000 1.0
C      1  0.4814090000000  0.4565340000000  0.4870350000000 1.0
C      1  0.5212110000000  0.5377360000000  0.4864830000000 1.0
C      1  0.5185360000000  0.4171390000000  0.4912920000000 1.0
C      1  0.4844200000000  0.5781330000000  0.4883110000000 1.0
C      1  0.4941750000000  0.4170730000000  0.4718640000000 1.0
C      1  0.5103030000000  0.5803500000000  0.4728240000000 1.0
C      1  0.5355630000000  0.5745630000000  0.5140480000000 1.0
C      1  0.4637280000000  0.4238650000000  0.5162940000000 1.0
C      1  0.4540530000000  0.4101310000000  0.5586830000000 1.0
C      1  0.5442320000000  0.5905580000000  0.5563800000000 1.0
C      1  0.4598440000000  0.4971730000000  0.4635790000000 1.0
C      1  0.5437520000000  0.4968710000000  0.4479000000000 1.0
C      1  0.4678620000000  0.5213610000000  0.4120720000000 1.0
C      1  0.5337490000000  0.4808040000000  0.4051360000000 1.0
C      1  0.4254160000000  0.5301010000000  0.4777580000000 1.0
C      1  0.5711760000000  0.4751000000000  0.4792710000000 1.0
C      1  0.5442050000000  0.4606760000000  0.4232470000000 1.0
C      1  0.4544550000000  0.5463310000000  0.4199480000000 1.0
C      1  0.4544410000000  0.5850740000000  0.4521580000000 1.0
C      1  0.5458570000000  0.4205230000000  0.4529050000000 1.0
C      1  0.4528760000000  0.4613760000000  0.5472230000000 1.0
C      1  0.5469680000000  0.5394340000000  0.5471310000000 1.0
C      1  0.5202950000000  0.4736330000000  0.4689120000000 1.0
C      1  0.4769000000000  0.5224310000000  0.4688650000000 1.0
C      1  0.5048290000000  0.4143590000000  0.5675160000000 1.0
C      1  0.4937120000000  0.5837710000000  0.5649860000000 1.0
C      1  0.4203330000000  0.4557670000000  0.4886690000000 1.0
C      1  0.5808010000000  0.5464070000000  0.4874750000000 1.0
C      1  0.5835520000000  0.5232480000000  0.4678280000000 1.0
C      1  0.4140070000000  0.4777860000000  0.4683900000000 1.0
C      1  0.4652030000000  0.4802090000000  0.4870640000000 1.0
C      1  0.5423290000000  0.5174430000000  0.4928700000000 1.0
C      1  0.5380310000000  0.4812920000000  0.5958820000000 1.0
C      1  0.4617530000000  0.5179640000000  0.5972150000000 1.0
C      1  0.5685580000000  0.4532170000000  0.5627180000000 1.0
C      1  0.4319520000000  0.5479070000000  0.5630710000000 1.0
C      1  0.4450520000000  0.5640880000000  0.5438590000000 1.0
C      1  0.5557950000000  0.4366890000000  0.5436880000000 1.0
C      1  0.4274070000000  0.5395530000000  0.4276450000000 1.0
C      1  0.5707990000000  0.4679020000000  0.4287360000000 1.0
C      1  0.5159110000000  0.5018870000000  0.6048700000000 1.0
C      1  0.4842430000000  0.4971840000000  0.6048800000000 1.0
C      1  0.4379810000000  0.5198900000000  0.5565560000000 1.0
C      1  0.5621000000000  0.4811330000000  0.5563800000000 1.0
C      1  0.4374330000000  0.4355370000000  0.4483710000000 1.0
C      1  0.5645410000000  0.5638520000000  0.4464780000000 1.0
C      1  0.4212890000000  0.5464270000000  0.4542060000000 1.0
C      1  0.5781760000000  0.4623570000000  0.4548210000000 1.0
C      1  0.4800790000000  0.4810710000000  0.5802370000000 1.0
C      1  0.5198350000000  0.5191240000000  0.5809710000000 1.0
C      1  0.5607010000000  0.4979420000000  0.5817850000000 1.0
C      1  0.4392540000000  0.5024530000000  0.5818700000000 1.0
C      1  0.4870470000000  0.4161020000000  0.4424000000000 1.0
C      1  0.5151160000000  0.5786040000000  0.4441090000000 1.0
C      1  0.5016930000000  0.5415520000000  0.5841290000000 1.0
C      1  0.4980750000000  0.4583340000000  0.5819490000000 1.0
C      1  0.5149720000000  0.5981790000000  0.5489300000000 1.0
C      1  0.4830090000000  0.4008130000000  0.5516390000000 1.0
C      1  0.4854500000000  0.4964760000000  0.5542760000000 1.0
C      1  0.5141270000000  0.5040260000000  0.5548570000000 1.0
C      1  0.4843260000000  0.4676390000000  0.4343260000000 1.0
C      1  0.5193650000000  0.5364950000000  0.4306120000000 1.0
C      1  0.4869590000000  0.4327150000000  0.5823280000000 1.0
C      1  0.5125590000000  0.5671500000000  0.5806600000000 1.0
C      1  0.4488240000000  0.4999910000000  0.4151230000000 1.0
C      1  0.5545240000000  0.5024670000000  0.4058980000000 1.0
C      1  0.5601980000000  0.5033200000000  0.4727140000000 1.0
C      1  0.4319180000000  0.5029550000000  0.4688680000000 1.0
C      1  0.4579060000000  0.5867550000000  0.4799600000000 1.0
C      1  0.5454590000000  0.4155020000000  0.4806170000000 1.0
C      1  0.5676780000000  0.4193280000000  0.4983510000000 1.0
C      1  0.4363870000000  0.5823440000000  0.4982150000000 1.0
C      1  0.4475140000000  0.5395320000000  0.4973930000000 1.0
C      1  0.5512940000000  0.4604350000000  0.4971300000000 1.0
C      1  0.4965400000000  0.5165240000000  0.4068130000000 1.0
C      1  0.5046610000000  0.4866820000000  0.4072720000000 1.0
C      1  0.5149140000000  0.4994670000000  0.4547970000000 1.0
END
