TITL C-3577077-324-154 -3.76581989109356e-06 125000 -1201.52059313589 0 0 194 (C1) n - 1
REM
REM in /home/bkarasulu/work/CARBON/AIRSS/Generating-Clusters/EDIP-Nigel-Params/with-SteepDescent/Higher-Symm/SD-CG/HFTN-CG
REM
REM
REM
REM
REM
REM ./C.cell (12c818d87b63d06a65506943cc24bca4)
REM
REM compiler GCC version 9.2.1 20190827 (Red Hat 9.2.1-1)
REM options -cpp -mtune=generic -march=x86-64 -g -O0 -fpre-include=/usr/include/finclude/math-vector-fortran.h
REM seed -1404399637 -1389572939 1362150550 -1163360964 1122420465 -1936912237 -1489524947 7703742 1479028883 1329839945 454948206 799382671 1397487630 2046778843 -1843069119 -707553281 -494132462 608877581 1171758335 -1122778355 -1873446966 -1915563816 -1223628806 1084268104 -1058902049 913082212 445006249 -847803866 1146521614 903794811 1549222313 1776150848 1372267969
REM
CELL 1.54180   50.00000   50.00000   50.00000   90.00000   90.00000   90.00000
LATT -1
SFAC C  
C      1  0.4638780000000  0.5641240000000  0.5154610000000 1.0
C      1  0.5381010000000  0.4318510000000  0.5134900000000 1.0
C      1  0.4649460000000  0.4421330000000  0.4921640000000 1.0
C      1  0.5354600000000  0.5605460000000  0.4887490000000 1.0
C      1  0.5591480000000  0.4604720000000  0.5084490000000 1.0
C      1  0.4370840000000  0.5412490000000  0.5118800000000 1.0
C      1  0.4445740000000  0.4667470000000  0.4975630000000 1.0
C      1  0.5563420000000  0.5367180000000  0.4952340000000 1.0
C      1  0.4718790000000  0.4641670000000  0.4414930000000 1.0
C      1  0.5208060000000  0.5405100000000  0.4442630000000 1.0
C      1  0.4841130000000  0.5403490000000  0.5540740000000 1.0
C      1  0.5251070000000  0.4560580000000  0.5565900000000 1.0
C      1  0.4481420000000  0.4882700000000  0.4537480000000 1.0
C      1  0.5469610000000  0.5240810000000  0.4488190000000 1.0
C      1  0.5502090000000  0.4749460000000  0.5533850000000 1.0
C      1  0.4581910000000  0.5242290000000  0.5557680000000 1.0
C      1  0.4608130000000  0.6009650000000  0.5225810000000 1.0
C      1  0.5438130000000  0.4021390000000  0.5218560000000 1.0
C      1  0.4622980000000  0.4108970000000  0.4616370000000 1.0
C      1  0.5432450000000  0.5950750000000  0.4627760000000 1.0
C      1  0.5981100000000  0.4594650000000  0.5404040000000 1.0
C      1  0.4006370000000  0.5439490000000  0.5235750000000 1.0
C      1  0.4073960000000  0.4590010000000  0.4642960000000 1.0
C      1  0.5916550000000  0.5365950000000  0.4688860000000 1.0
C      1  0.5958500000000  0.4326990000000  0.4966520000000 1.0
C      1  0.3937420000000  0.5606360000000  0.4786530000000 1.0
C      1  0.5916870000000  0.5766470000000  0.5051170000000 1.0
C      1  0.4083890000000  0.4374670000000  0.5083000000000 1.0
C      1  0.4436730000000  0.6104840000000  0.4782030000000 1.0
C      1  0.5771280000000  0.4076020000000  0.4933930000000 1.0
C      1  0.5690100000000  0.5988980000000  0.5062780000000 1.0
C      1  0.4265090000000  0.4127420000000  0.5027390000000 1.0
C      1  0.4666290000000  0.4857060000000  0.5889140000000 1.0
C      1  0.5415480000000  0.5112110000000  0.5907700000000 1.0
C      1  0.4465650000000  0.4940390000000  0.3977650000000 1.0
C      1  0.5428440000000  0.4999470000000  0.4067760000000 1.0
C      1  0.4879020000000  0.4653540000000  0.5893660000000 1.0
C      1  0.5150010000000  0.5264940000000  0.5873630000000 1.0
C      1  0.5078530000000  0.4682070000000  0.4058010000000 1.0
C      1  0.4821300000000  0.5200810000000  0.4186150000000 1.0
C      1  0.5584740000000  0.5842270000000  0.5307870000000 1.0
C      1  0.4425340000000  0.4179690000000  0.5278940000000 1.0
C      1  0.5638300000000  0.4195750000000  0.4694510000000 1.0
C      1  0.4380370000000  0.5829950000000  0.4808440000000 1.0
C      1  0.5813310000000  0.5646250000000  0.5310630000000 1.0
C      1  0.4254190000000  0.4429320000000  0.5340320000000 1.0
C      1  0.4198790000000  0.5636520000000  0.4693990000000 1.0
C      1  0.5833470000000  0.4445760000000  0.4700860000000 1.0
C      1  0.4696270000000  0.5672820000000  0.4351910000000 1.0
C      1  0.5335460000000  0.4304080000000  0.4293380000000 1.0
C      1  0.4811770000000  0.4205350000000  0.5679310000000 1.0
C      1  0.5257000000000  0.5739700000000  0.5683290000000 1.0
C      1  0.5726140000000  0.4725230000000  0.4305710000000 1.0
C      1  0.4215040000000  0.5312060000000  0.4277910000000 1.0
C      1  0.4235140000000  0.4814170000000  0.5714980000000 1.0
C      1  0.5770440000000  0.5413050000000  0.5745020000000 1.0
C      1  0.4266240000000  0.5161890000000  0.4534870000000 1.0
C      1  0.5682100000000  0.4875790000000  0.4652600000000 1.0
C      1  0.4286430000000  0.4913710000000  0.5418500000000 1.0
C      1  0.5712070000000  0.5222520000000  0.5523040000000 1.0
C      1  0.5153330000000  0.4283960000000  0.4551340000000 1.0
C      1  0.4846460000000  0.5709890000000  0.4625020000000 1.0
C      1  0.4904070000000  0.4233890000000  0.5387980000000 1.0
C      1  0.5124200000000  0.5734420000000  0.5397190000000 1.0
C      1  0.3989300000000  0.5315700000000  0.5678530000000 1.0
C      1  0.5967020000000  0.4807860000000  0.5823940000000 1.0
C      1  0.3944490000000  0.4762620000000  0.4228610000000 1.0
C      1  0.5992840000000  0.5146960000000  0.4283140000000 1.0
C      1  0.5295510000000  0.3928960000000  0.5661960000000 1.0
C      1  0.4709870000000  0.6052640000000  0.5685550000000 1.0
C      1  0.4768180000000  0.4033640000000  0.4181570000000 1.0
C      1  0.5223840000000  0.5942630000000  0.4211950000000 1.0
C      1  0.5169340000000  0.4935980000000  0.3928210000000 1.0
C      1  0.4724440000000  0.4888110000000  0.3827440000000 1.0
C      1  0.5198280000000  0.4930000000000  0.6164320000000 1.0
C      1  0.4754940000000  0.5028850000000  0.6108440000000 1.0
C      1  0.4926050000000  0.5097200000000  0.3913600000000 1.0
C      1  0.4826050000000  0.4606490000000  0.3913650000000 1.0
C      1  0.5012310000000  0.5149830000000  0.6120100000000 1.0
C      1  0.5019930000000  0.4709680000000  0.6143900000000 1.0
C      1  0.4676840000000  0.4977470000000  0.5622780000000 1.0
C      1  0.5499690000000  0.5032710000000  0.5630250000000 1.0
C      1  0.4581260000000  0.5028250000000  0.4253130000000 1.0
C      1  0.5382010000000  0.4992470000000  0.4360220000000 1.0
C      1  0.5042520000000  0.4726860000000  0.5665480000000 1.0
C      1  0.5052410000000  0.5213950000000  0.5598280000000 1.0
C      1  0.4985470000000  0.4737110000000  0.4333310000000 1.0
C      1  0.4994190000000  0.5199990000000  0.4421050000000 1.0
C      1  0.5139700000000  0.4426440000000  0.5304150000000 1.0
C      1  0.4913430000000  0.5527790000000  0.5282310000000 1.0
C      1  0.5093290000000  0.5521630000000  0.4708620000000 1.0
C      1  0.4868940000000  0.4472630000000  0.4669040000000 1.0
C      1  0.4429230000000  0.5184120000000  0.5315910000000 1.0
C      1  0.5473020000000  0.4836650000000  0.5233820000000 1.0
C      1  0.5494680000000  0.5116630000000  0.4769970000000 1.0
C      1  0.4562880000000  0.4904430000000  0.4834820000000 1.0
C      1  0.4707510000000  0.4413980000000  0.5851100000000 1.0
C      1  0.5286640000000  0.5537780000000  0.5904770000000 1.0
C      1  0.4674250000000  0.5455640000000  0.4147780000000 1.0
C      1  0.5333960000000  0.4511370000000  0.4073370000000 1.0
C      1  0.4430940000000  0.4682400000000  0.5885470000000 1.0
C      1  0.5568550000000  0.5387420000000  0.5961040000000 1.0
C      1  0.5564690000000  0.4720130000000  0.4065980000000 1.0
C      1  0.4408720000000  0.5317040000000  0.4060800000000 1.0
C      1  0.5092010000000  0.5331280000000  0.5109230000000 1.0
C      1  0.4991120000000  0.4612550000000  0.5119510000000 1.0
C      1  0.5080180000000  0.4613090000000  0.4841390000000 1.0
C      1  0.4950070000000  0.5277610000000  0.4857230000000 1.0
C      1  0.5234920000000  0.5019160000000  0.5111550000000 1.0
C      1  0.4959130000000  0.4898720000000  0.5195740000000 1.0
C      1  0.4793240000000  0.5039210000000  0.4964650000000 1.0
C      1  0.5168690000000  0.4898660000000  0.4787360000000 1.0
C      1  0.4113140000000  0.5715780000000  0.5926900000000 1.0
C      1  0.5811390000000  0.4441820000000  0.5573880000000 1.0
C      1  0.4279370000000  0.4497180000000  0.4460780000000 1.0
C      1  0.5778780000000  0.5546460000000  0.4493070000000 1.0
C      1  0.5679430000000  0.4196750000000  0.5545200000000 1.0
C      1  0.4316660000000  0.5892880000000  0.5915520000000 1.0
C      1  0.4425980000000  0.4241900000000  0.4445260000000 1.0
C      1  0.5531050000000  0.5708340000000  0.4493510000000 1.0
C      1  0.4623440000000  0.4515830000000  0.4126290000000 1.0
C      1  0.5346310000000  0.5490640000000  0.4095230000000 1.0
C      1  0.4667050000000  0.5603820000000  0.5825710000000 1.0
C      1  0.5367830000000  0.4363750000000  0.5875210000000 1.0
C      1  0.4379340000000  0.4655510000000  0.4026280000000 1.0
C      1  0.5549230000000  0.5288510000000  0.4056130000000 1.0
C      1  0.5525520000000  0.4601610000000  0.5894540000000 1.0
C      1  0.4460020000000  0.5409550000000  0.5772040000000 1.0
C      1  0.4774160000000  0.3795920000000  0.5481080000000 1.0
C      1  0.5251300000000  0.6165030000000  0.5535830000000 1.0
C      1  0.4733880000000  0.6127900000000  0.4418040000000 1.0
C      1  0.5274190000000  0.3867640000000  0.4366810000000 1.0
C      1  0.3842600000000  0.4769770000000  0.5505700000000 1.0
C      1  0.6168260000000  0.5300130000000  0.5580400000000 1.0
C      1  0.6061160000000  0.4623390000000  0.4566640000000 1.0
C      1  0.3802680000000  0.5253400000000  0.4433100000000 1.0
C      1  0.5202170000000  0.6040010000000  0.4474610000000 1.0
C      1  0.4809470000000  0.3971020000000  0.4450790000000 1.0
C      1  0.5238010000000  0.3892220000000  0.5389970000000 1.0
C      1  0.4792720000000  0.6091290000000  0.5423740000000 1.0
C      1  0.6049010000000  0.5144750000000  0.4559230000000 1.0
C      1  0.3916800000000  0.4796290000000  0.4508020000000 1.0
C      1  0.3929880000000  0.5236670000000  0.5418240000000 1.0
C      1  0.6040470000000  0.4840210000000  0.5552760000000 1.0
C      1  0.5433950000000  0.4170420000000  0.5677450000000 1.0
C      1  0.4588670000000  0.5873740000000  0.5859150000000 1.0
C      1  0.5409150000000  0.5732980000000  0.4230940000000 1.0
C      1  0.4561210000000  0.4224030000000  0.4183450000000 1.0
C      1  0.4181750000000  0.5488570000000  0.5780820000000 1.0
C      1  0.5795640000000  0.4583630000000  0.5818370000000 1.0
C      1  0.5776460000000  0.5338770000000  0.4264100000000 1.0
C      1  0.4169710000000  0.4592780000000  0.4208770000000 1.0
C      1  0.5605870000000  0.4629600000000  0.4784650000000 1.0
C      1  0.4348160000000  0.5381610000000  0.4767020000000 1.0
C      1  0.5634630000000  0.5401910000000  0.5282490000000 1.0
C      1  0.4409950000000  0.4678980000000  0.5280130000000 1.0
C      1  0.4614840000000  0.5650910000000  0.4843890000000 1.0
C      1  0.5356340000000  0.4273190000000  0.4790870000000 1.0
C      1  0.5354730000000  0.5667330000000  0.5218360000000 1.0
C      1  0.4671900000000  0.4327350000000  0.5227420000000 1.0
C      1  0.4931010000000  0.6011820000000  0.4599220000000 1.0
C      1  0.5085860000000  0.3988390000000  0.4549230000000 1.0
C      1  0.4953080000000  0.3947070000000  0.5307490000000 1.0
C      1  0.5075360000000  0.6033750000000  0.5346680000000 1.0
C      1  0.5983470000000  0.4889060000000  0.4699370000000 1.0
C      1  0.3971190000000  0.5075630000000  0.4590380000000 1.0
C      1  0.3994970000000  0.4950350000000  0.5339020000000 1.0
C      1  0.5994100000000  0.5114640000000  0.5440290000000 1.0
C      1  0.5413590000000  0.4045350000000  0.4217880000000 1.0
C      1  0.4621310000000  0.5929040000000  0.4269970000000 1.0
C      1  0.5325460000000  0.6004810000000  0.5742190000000 1.0
C      1  0.4714350000000  0.3944040000000  0.5702610000000 1.0
C      1  0.3945050000000  0.5347890000000  0.4221980000000 1.0
C      1  0.5988570000000  0.4627270000000  0.4296590000000 1.0
C      1  0.6046360000000  0.5420800000000  0.5792510000000 1.0
C      1  0.3972660000000  0.4723250000000  0.5738530000000 1.0
C      1  0.6019350000000  0.5129990000000  0.5136090000000 1.0
C      1  0.3979960000000  0.4882180000000  0.5045510000000 1.0
C      1  0.6022020000000  0.4871640000000  0.4994930000000 1.0
C      1  0.3934520000000  0.5112340000000  0.4876190000000 1.0
C      1  0.5148640000000  0.6092610000000  0.5053700000000 1.0
C      1  0.4887180000000  0.3924470000000  0.5010690000000 1.0
C      1  0.4920040000000  0.6124870000000  0.4872780000000 1.0
C      1  0.5123020000000  0.3902390000000  0.4834490000000 1.0
C      1  0.4645770000000  0.6143440000000  0.4973520000000 1.0
C      1  0.5412920000000  0.3917560000000  0.4940330000000 1.0
C      1  0.4613540000000  0.4037060000000  0.4904810000000 1.0
C      1  0.5414750000000  0.5987190000000  0.4924960000000 1.0
C      1  0.5910880000000  0.4603490000000  0.5118770000000 1.0
C      1  0.3953510000000  0.5387560000000  0.4965500000000 1.0
C      1  0.4130670000000  0.4632610000000  0.4929190000000 1.0
C      1  0.5950630000000  0.5390870000000  0.4981740000000 1.0
C      1  0.5119110000000  0.4946460000000  0.4478610000000 1.0
C      1  0.4941910000000  0.4950430000000  0.5512950000000 1.0
END
