TITL C-3578194-7807-733 -5.05146971109449e-06 125000 -659.260694789636 0 0 107 (C1) n - 1
REM
REM in /home/bkarasulu/work/CARBON/AIRSS/Generating-Clusters/EDIP-Nigel-Params/with-SteepDescent/Higher-Symm/SD-CG/HFTN-CG
REM
REM
REM
REM
REM
REM ./C.cell (12c818d87b63d06a65506943cc24bca4)
REM
REM compiler GCC version 9.2.1 20190827 (Red Hat 9.2.1-1)
REM options -cpp -mtune=generic -march=x86-64 -g -O0 -fpre-include=/usr/include/finclude/math-vector-fortran.h
REM seed 174672315 314837746 1423029794 -1284052163 -718008762 91328295 884014367 -523361622 -200428846 -241056043 -1970044728 -1862207899 -272891243 -1981513427 -1559233227 42203984 -874023979 366089046 -1242438216 -628956529 -119987218 1490918634 -426863034 377177231 -1677707538 1220027871 -705395682 1399047340 1482663044 -1781918001 -205361134 -1006197995 1083400349
REM
CELL 1.54180   50.00000   50.00000   50.00000   90.00000   90.00000   90.00000
LATT -1
SFAC C  
C      1  0.4207720000000  0.4872500000000  0.4980000000000 1.0
C      1  0.4881150000000  0.5881160000000  0.4937100000000 1.0
C      1  0.5857510000000  0.5318560000000  0.5018570000000 1.0
C      1  0.5222460000000  0.4168040000000  0.4959150000000 1.0
C      1  0.4208660000000  0.5344870000000  0.5064200000000 1.0
C      1  0.4754980000000  0.4186200000000  0.4931760000000 1.0
C      1  0.5866420000000  0.4881920000000  0.5106950000000 1.0
C      1  0.5329070000000  0.5835890000000  0.5051260000000 1.0
C      1  0.5143780000000  0.5679410000000  0.4320790000000 1.0
C      1  0.5648650000000  0.4896440000000  0.4371670000000 1.0
C      1  0.4812350000000  0.4268120000000  0.4220990000000 1.0
C      1  0.4341850000000  0.5162500000000  0.4381910000000 1.0
C      1  0.5084840000000  0.4436260000000  0.5625060000000 1.0
C      1  0.5636670000000  0.5127120000000  0.5707330000000 1.0
C      1  0.4923800000000  0.5634450000000  0.5612800000000 1.0
C      1  0.4378120000000  0.4718390000000  0.5718370000000 1.0
C      1  0.4942050000000  0.5370590000000  0.5327160000000 1.0
C      1  0.5250790000000  0.5313640000000  0.5318050000000 1.0
C      1  0.5137870000000  0.4854390000000  0.5406900000000 1.0
C      1  0.4711320000000  0.4955350000000  0.5461530000000 1.0
C      1  0.4791010000000  0.4652460000000  0.4487810000000 1.0
C      1  0.5218720000000  0.4881800000000  0.4621490000000 1.0
C      1  0.5173920000000  0.5194740000000  0.4640930000000 1.0
C      1  0.4767160000000  0.5111810000000  0.4670990000000 1.0
C      1  0.5222790000000  0.4695520000000  0.5653770000000 1.0
C      1  0.4665740000000  0.4742240000000  0.5678270000000 1.0
C      1  0.4785020000000  0.5421000000000  0.5738800000000 1.0
C      1  0.5369750000000  0.5221350000000  0.5727360000000 1.0
C      1  0.5208930000000  0.5409350000000  0.4261120000000 1.0
C      1  0.4625760000000  0.5220890000000  0.4393400000000 1.0
C      1  0.4915620000000  0.4527450000000  0.4256220000000 1.0
C      1  0.5363550000000  0.4810470000000  0.4349470000000 1.0
C      1  0.5110920000000  0.4824820000000  0.5903150000000 1.0
C      1  0.4812040000000  0.4840960000000  0.5919620000000 1.0
C      1  0.4894240000000  0.5211350000000  0.5901310000000 1.0
C      1  0.5164800000000  0.5109010000000  0.5895470000000 1.0
C      1  0.5049130000000  0.5181860000000  0.4166020000000 1.0
C      1  0.4770650000000  0.5096230000000  0.4150050000000 1.0
C      1  0.4944850000000  0.4760510000000  0.4077580000000 1.0
C      1  0.5179870000000  0.4926640000000  0.4130910000000 1.0
C      1  0.5439060000000  0.5284920000000  0.4369660000000 1.0
C      1  0.5355760000000  0.4522420000000  0.4309660000000 1.0
C      1  0.4511690000000  0.4707450000000  0.4418890000000 1.0
C      1  0.4669940000000  0.5506310000000  0.4396240000000 1.0
C      1  0.5510750000000  0.4656940000000  0.5662500000000 1.0
C      1  0.5335270000000  0.5493370000000  0.5692660000000 1.0
C      1  0.4510510000000  0.5429630000000  0.5720780000000 1.0
C      1  0.4788300000000  0.4466080000000  0.5619850000000 1.0
C      1  0.5892940000000  0.5136940000000  0.5251530000000 1.0
C      1  0.5079540000000  0.4140130000000  0.5228240000000 1.0
C      1  0.4191690000000  0.4873680000000  0.5275820000000 1.0
C      1  0.4930020000000  0.5943420000000  0.5215970000000 1.0
C      1  0.5895310000000  0.4923690000000  0.4818950000000 1.0
C      1  0.5146840000000  0.5863800000000  0.4821310000000 1.0
C      1  0.4239340000000  0.5140370000000  0.4865240000000 1.0
C      1  0.4934130000000  0.4098470000000  0.4704360000000 1.0
C      1  0.4793830000000  0.5777860000000  0.5402910000000 1.0
C      1  0.5726020000000  0.5247910000000  0.5466590000000 1.0
C      1  0.5228000000000  0.4224840000000  0.5464340000000 1.0
C      1  0.4284460000000  0.4663130000000  0.5456650000000 1.0
C      1  0.4744220000000  0.4191200000000  0.4488250000000 1.0
C      1  0.5699660000000  0.4816250000000  0.4641000000000 1.0
C      1  0.5237430000000  0.5712100000000  0.4585050000000 1.0
C      1  0.4206890000000  0.5267940000000  0.4603900000000 1.0
C      1  0.5182600000000  0.4452380000000  0.4796590000000 1.0
C      1  0.4380640000000  0.4653970000000  0.4876810000000 1.0
C      1  0.4684630000000  0.5649250000000  0.4903320000000 1.0
C      1  0.5622940000000  0.5189120000000  0.4850440000000 1.0
C      1  0.5218930000000  0.5701650000000  0.5294740000000 1.0
C      1  0.4448730000000  0.5332990000000  0.5228280000000 1.0
C      1  0.4871360000000  0.4335400000000  0.5181450000000 1.0
C      1  0.5707010000000  0.4653780000000  0.5194340000000 1.0
C      1  0.5624020000000  0.4475940000000  0.4986710000000 1.0
C      1  0.4461540000000  0.4186360000000  0.4886230000000 1.0
C      1  0.4205570000000  0.5615200000000  0.4948030000000 1.0
C      1  0.5539110000000  0.5678420000000  0.4948090000000 1.0
C      1  0.5753210000000  0.5576700000000  0.5118680000000 1.0
C      1  0.4447850000000  0.5758010000000  0.5061650000000 1.0
C      1  0.4333150000000  0.4407360000000  0.5035480000000 1.0
C      1  0.5505560000000  0.4226950000000  0.5072740000000 1.0
C      1  0.5639460000000  0.4526640000000  0.5449080000000 1.0
C      1  0.4669240000000  0.4328040000000  0.5398020000000 1.0
C      1  0.4394250000000  0.5497260000000  0.5477300000000 1.0
C      1  0.5434010000000  0.5665030000000  0.5499510000000 1.0
C      1  0.5579590000000  0.5364660000000  0.4601380000000 1.0
C      1  0.4556720000000  0.5624040000000  0.4624230000000 1.0
C      1  0.4372300000000  0.4551370000000  0.4597530000000 1.0
C      1  0.5387730000000  0.4424890000000  0.4569400000000 1.0
C      1  0.5507570000000  0.4269630000000  0.5369350000000 1.0
C      1  0.4406350000000  0.4435460000000  0.5318890000000 1.0
C      1  0.4502380000000  0.5749110000000  0.5359390000000 1.0
C      1  0.5681960000000  0.5532260000000  0.5402440000000 1.0
C      1  0.5504410000000  0.5632540000000  0.4667300000000 1.0
C      1  0.4265410000000  0.5560050000000  0.4655850000000 1.0
C      1  0.4469240000000  0.4264470000000  0.4598500000000 1.0
C      1  0.5607030000000  0.4553540000000  0.4712560000000 1.0
C      1  0.4528400000000  0.5039700000000  0.5232080000000 1.0
C      1  0.4791320000000  0.5344140000000  0.5035770000000 1.0
C      1  0.5345590000000  0.5120220000000  0.5034490000000 1.0
C      1  0.5052200000000  0.4679200000000  0.5156000000000 1.0
C      1  0.4635320000000  0.4957930000000  0.4935420000000 1.0
C      1  0.4866080000000  0.4519560000000  0.4758780000000 1.0
C      1  0.5288940000000  0.4756360000000  0.4945750000000 1.0
C      1  0.5090540000000  0.5269940000000  0.4920520000000 1.0
C      1  0.4972910000000  0.5098080000000  0.5497120000000 1.0
C      1  0.4928830000000  0.4913480000000  0.4497770000000 1.0
C      1  0.4806290000000  0.4717300000000  0.4977330000000 1.0
END
