TITL C-3577079-311-304 -1.77876931210342e-06 125000 -1186.69782358981 0 0 188 (C1) n - 1
REM
REM in /home/bkarasulu/work/CARBON/AIRSS/Generating-Clusters/EDIP-Nigel-Params/with-SteepDescent/Higher-Symm/SD-CG/HFTN-CG
REM
REM
REM
REM
REM
REM ./C.cell (12c818d87b63d06a65506943cc24bca4)
REM
REM compiler GCC version 9.2.1 20190827 (Red Hat 9.2.1-1)
REM options -cpp -mtune=generic -march=x86-64 -g -O0 -fpre-include=/usr/include/finclude/math-vector-fortran.h
REM seed 1259857271 1176468203 1730708184 -1077134795 2083420689 497268641 380378197 -108103527 2135904656 224451283 568488828 -879404884 -623776278 188866948 1377936253 129940751 24066269 297928077 -1166219978 1222584875 677736378 -1546800430 1407437212 -1385055342 -1560254086 1776406547 -1408613970 -388118526 -1903305255 -2078681490 -1142832749 1993603714 146701268
REM
CELL 1.54180   50.00000   50.00000   50.00000   90.00000   90.00000   90.00000
LATT -1
SFAC C  
C      1  0.5673190000000  0.4294080000000  0.5658970000000 1.0
C      1  0.5269430000000  0.5913080000000  0.5597140000000 1.0
C      1  0.4037600000000  0.4747060000000  0.5670690000000 1.0
C      1  0.5743330000000  0.4371440000000  0.4383960000000 1.0
C      1  0.5186810000000  0.5970130000000  0.4341480000000 1.0
C      1  0.4083770000000  0.4703630000000  0.4412290000000 1.0
C      1  0.5771370000000  0.5640180000000  0.5572730000000 1.0
C      1  0.5181940000000  0.3988330000000  0.5578470000000 1.0
C      1  0.4024040000000  0.5326220000000  0.5600820000000 1.0
C      1  0.5717580000000  0.5743630000000  0.4335250000000 1.0
C      1  0.5266390000000  0.4016590000000  0.4397990000000 1.0
C      1  0.4024860000000  0.5280290000000  0.4427990000000 1.0
C      1  0.5003450000000  0.5563580000000  0.5280360000000 1.0
C      1  0.4547780000000  0.4762500000000  0.5339240000000 1.0
C      1  0.5468900000000  0.4704250000000  0.5311270000000 1.0
C      1  0.5011050000000  0.5526800000000  0.4649150000000 1.0
C      1  0.4540880000000  0.4739790000000  0.4690310000000 1.0
C      1  0.5478150000000  0.4711770000000  0.4688970000000 1.0
C      1  0.5015170000000  0.4480230000000  0.5374400000000 1.0
C      1  0.4541190000000  0.5283160000000  0.5381130000000 1.0
C      1  0.5468490000000  0.5292170000000  0.5358060000000 1.0
C      1  0.5038690000000  0.4475290000000  0.4609170000000 1.0
C      1  0.4519490000000  0.5250300000000  0.4627390000000 1.0
C      1  0.5468580000000  0.5278080000000  0.4617730000000 1.0
C      1  0.4271530000000  0.4857860000000  0.4247190000000 1.0
C      1  0.5495380000000  0.4461920000000  0.4246660000000 1.0
C      1  0.5223570000000  0.5719360000000  0.4186830000000 1.0
C      1  0.4248900000000  0.4892360000000  0.5808350000000 1.0
C      1  0.5431780000000  0.4409980000000  0.5774120000000 1.0
C      1  0.5283760000000  0.5665710000000  0.5751720000000 1.0
C      1  0.4245830000000  0.5152370000000  0.4291630000000 1.0
C      1  0.5501900000000  0.5609980000000  0.4199260000000 1.0
C      1  0.5257570000000  0.4279500000000  0.4275140000000 1.0
C      1  0.4236750000000  0.5185960000000  0.5751750000000 1.0
C      1  0.5548380000000  0.5532680000000  0.5720500000000 1.0
C      1  0.5188500000000  0.4247940000000  0.5710460000000 1.0
C      1  0.6190050000000  0.5050940000000  0.5432650000000 1.0
C      1  0.4356170000000  0.5926560000000  0.5421250000000 1.0
C      1  0.4492330000000  0.3970130000000  0.5339280000000 1.0
C      1  0.6091280000000  0.5221460000000  0.4623380000000 1.0
C      1  0.4244920000000  0.5942620000000  0.4556500000000 1.0
C      1  0.4591460000000  0.3887710000000  0.4586720000000 1.0
C      1  0.6149220000000  0.4759740000000  0.5426170000000 1.0
C      1  0.4276850000000  0.4169700000000  0.5372010000000 1.0
C      1  0.4594400000000  0.6080410000000  0.5438860000000 1.0
C      1  0.6159120000000  0.4934950000000  0.4618050000000 1.0
C      1  0.4341190000000  0.4027170000000  0.4546590000000 1.0
C      1  0.4473530000000  0.6066600000000  0.4457600000000 1.0
C      1  0.4670940000000  0.3960120000000  0.5580640000000 1.0
C      1  0.6058380000000  0.5229270000000  0.5627070000000 1.0
C      1  0.4264300000000  0.5742680000000  0.5613490000000 1.0
C      1  0.4768210000000  0.3939840000000  0.4353690000000 1.0
C      1  0.5994720000000  0.5340740000000  0.4377290000000 1.0
C      1  0.4189420000000  0.5746530000000  0.4340740000000 1.0
C      1  0.4782380000000  0.5986390000000  0.5657260000000 1.0
C      1  0.6002340000000  0.4671700000000  0.5679100000000 1.0
C      1  0.4239030000000  0.4305130000000  0.5631620000000 1.0
C      1  0.4707390000000  0.5996010000000  0.4321370000000 1.0
C      1  0.6029080000000  0.4787110000000  0.4381780000000 1.0
C      1  0.4289320000000  0.4252320000000  0.4361480000000 1.0
C      1  0.5000200000000  0.5527630000000  0.5819080000000 1.0
C      1  0.4515550000000  0.4719340000000  0.5843670000000 1.0
C      1  0.5448470000000  0.4724730000000  0.5801170000000 1.0
C      1  0.4958350000000  0.5554730000000  0.4138760000000 1.0
C      1  0.4538540000000  0.4703460000000  0.4171040000000 1.0
C      1  0.5479540000000  0.4768790000000  0.4196800000000 1.0
C      1  0.4941270000000  0.4300020000000  0.5839590000000 1.0
C      1  0.4417230000000  0.5364680000000  0.5884350000000 1.0
C      1  0.5607480000000  0.5289940000000  0.5859170000000 1.0
C      1  0.5003540000000  0.4322080000000  0.4147310000000 1.0
C      1  0.4396610000000  0.5346630000000  0.4145380000000 1.0
C      1  0.5581560000000  0.5353500000000  0.4091680000000 1.0
C      1  0.4238170000000  0.5569280000000  0.5094960000000 1.0
C      1  0.4773100000000  0.4050950000000  0.5162520000000 1.0
C      1  0.5947060000000  0.5243580000000  0.5204020000000 1.0
C      1  0.4272890000000  0.5685020000000  0.4766110000000 1.0
C      1  0.4815420000000  0.4033930000000  0.4781500000000 1.0
C      1  0.5875660000000  0.5337710000000  0.4916110000000 1.0
C      1  0.4280970000000  0.4423250000000  0.5088060000000 1.0
C      1  0.4796560000000  0.5997700000000  0.5216150000000 1.0
C      1  0.5956130000000  0.4723680000000  0.5194150000000 1.0
C      1  0.4324960000000  0.4320210000000  0.4795600000000 1.0
C      1  0.4896550000000  0.5942530000000  0.4844330000000 1.0
C      1  0.5980570000000  0.4739370000000  0.4818230000000 1.0
C      1  0.5028010000000  0.6038170000000  0.5524820000000 1.0
C      1  0.4023040000000  0.4470570000000  0.5675430000000 1.0
C      1  0.5923760000000  0.4407660000000  0.5693470000000 1.0
C      1  0.4940300000000  0.6035290000000  0.4474680000000 1.0
C      1  0.4112930000000  0.4432140000000  0.4492090000000 1.0
C      1  0.5959260000000  0.4532520000000  0.4487320000000 1.0
C      1  0.4931780000000  0.3885340000000  0.5472660000000 1.0
C      1  0.4095250000000  0.5569730000000  0.5457150000000 1.0
C      1  0.5999130000000  0.5483160000000  0.5501740000000 1.0
C      1  0.5022510000000  0.3891560000000  0.4484680000000 1.0
C      1  0.4030150000000  0.5558990000000  0.4494280000000 1.0
C      1  0.5962740000000  0.5615300000000  0.4361400000000 1.0
C      1  0.5470550000000  0.4006200000000  0.4590490000000 1.0
C      1  0.5640910000000  0.5913440000000  0.4541740000000 1.0
C      1  0.3901510000000  0.5119220000000  0.4620500000000 1.0
C      1  0.5402220000000  0.3965120000000  0.5404360000000 1.0
C      1  0.5720420000000  0.5854740000000  0.5401800000000 1.0
C      1  0.3899220000000  0.5148650000000  0.5421920000000 1.0
C      1  0.5396320000000  0.6044370000000  0.4516900000000 1.0
C      1  0.5710990000000  0.4145340000000  0.4551050000000 1.0
C      1  0.3920860000000  0.4840470000000  0.4598200000000 1.0
C      1  0.5467140000000  0.5972770000000  0.5402810000000 1.0
C      1  0.5644830000000  0.4097190000000  0.5459260000000 1.0
C      1  0.3899180000000  0.4872820000000  0.5461840000000 1.0
C      1  0.5254300000000  0.5155120000000  0.5202760000000 1.0
C      1  0.4763590000000  0.5163240000000  0.5214110000000 1.0
C      1  0.5010270000000  0.4744410000000  0.5226500000000 1.0
C      1  0.5240140000000  0.5135200000000  0.4760560000000 1.0
C      1  0.4762500000000  0.5141890000000  0.4773350000000 1.0
C      1  0.5008540000000  0.4714560000000  0.4786950000000 1.0
C      1  0.5263390000000  0.4862090000000  0.5146190000000 1.0
C      1  0.4755260000000  0.4879020000000  0.5154810000000 1.0
C      1  0.5009700000000  0.5303200000000  0.5137380000000 1.0
C      1  0.5258200000000  0.4850840000000  0.4845620000000 1.0
C      1  0.4757560000000  0.4861920000000  0.4853130000000 1.0
C      1  0.5007160000000  0.5292440000000  0.4835160000000 1.0
C      1  0.5279280000000  0.4946950000000  0.3970990000000 1.0
C      1  0.4878960000000  0.5279530000000  0.3951520000000 1.0
C      1  0.4799200000000  0.4769230000000  0.3966010000000 1.0
C      1  0.5289150000000  0.4913390000000  0.6022380000000 1.0
C      1  0.4915300000000  0.5269000000000  0.6020650000000 1.0
C      1  0.4782820000000  0.4760790000000  0.6045240000000 1.0
C      1  0.5370050000000  0.5217280000000  0.3962200000000 1.0
C      1  0.4995550000000  0.4560120000000  0.3991680000000 1.0
C      1  0.4599300000000  0.5226010000000  0.3984670000000 1.0
C      1  0.5383850000000  0.5183070000000  0.5995580000000 1.0
C      1  0.4954490000000  0.4531900000000  0.6008380000000 1.0
C      1  0.4629930000000  0.5231120000000  0.6017590000000 1.0
C      1  0.5258220000000  0.5158530000000  0.5630400000000 1.0
C      1  0.4717840000000  0.5155690000000  0.5647200000000 1.0
C      1  0.4974520000000  0.4694890000000  0.5656630000000 1.0
C      1  0.5256640000000  0.5188060000000  0.4332790000000 1.0
C      1  0.4727100000000  0.5147520000000  0.4342280000000 1.0
C      1  0.5006160000000  0.4707560000000  0.4349780000000 1.0
C      1  0.5242310000000  0.4842920000000  0.5592270000000 1.0
C      1  0.4693590000000  0.4837490000000  0.5616610000000 1.0
C      1  0.4991350000000  0.5321590000000  0.5589200000000 1.0
C      1  0.5264650000000  0.4873900000000  0.4401250000000 1.0
C      1  0.4717470000000  0.4834350000000  0.4395200000000 1.0
C      1  0.4987940000000  0.5349440000000  0.4374960000000 1.0
C      1  0.5786190000000  0.5199120000000  0.4235450000000 1.0
C      1  0.4456470000000  0.5600310000000  0.4300300000000 1.0
C      1  0.4761860000000  0.4240300000000  0.4309950000000 1.0
C      1  0.5824290000000  0.5111730000000  0.5768430000000 1.0
C      1  0.4488970000000  0.5595700000000  0.5728880000000 1.0
C      1  0.4705180000000  0.4255140000000  0.5657690000000 1.0
C      1  0.5759480000000  0.4911960000000  0.4296330000000 1.0
C      1  0.4515450000000  0.4386980000000  0.4221910000000 1.0
C      1  0.4701040000000  0.5734200000000  0.4187110000000 1.0
C      1  0.5753540000000  0.4837050000000  0.5672730000000 1.0
C      1  0.4475160000000  0.4413530000000  0.5761190000000 1.0
C      1  0.4752230000000  0.5713890000000  0.5770270000000 1.0
C      1  0.4264160000000  0.5151760000000  0.5288800000000 1.0
C      1  0.5233650000000  0.4280670000000  0.5258900000000 1.0
C      1  0.5521730000000  0.5584120000000  0.5214700000000 1.0
C      1  0.4250210000000  0.5145800000000  0.4775720000000 1.0
C      1  0.5249200000000  0.4282410000000  0.4744710000000 1.0
C      1  0.5523200000000  0.5579510000000  0.4692710000000 1.0
C      1  0.4252250000000  0.4851870000000  0.5302990000000 1.0
C      1  0.5245800000000  0.5739330000000  0.5194880000000 1.0
C      1  0.5508310000000  0.4404720000000  0.5265750000000 1.0
C      1  0.4254380000000  0.4836880000000  0.4792040000000 1.0
C      1  0.5258210000000  0.5725860000000  0.4692340000000 1.0
C      1  0.5520970000000  0.4412300000000  0.4758480000000 1.0
C      1  0.4571870000000  0.4456570000000  0.4734390000000 1.0
C      1  0.5727460000000  0.4871500000000  0.4684460000000 1.0
C      1  0.4774270000000  0.5676760000000  0.4732320000000 1.0
C      1  0.4544400000000  0.4493140000000  0.5238520000000 1.0
C      1  0.5719780000000  0.4846130000000  0.5358830000000 1.0
C      1  0.4760250000000  0.5699820000000  0.5173140000000 1.0
C      1  0.4515930000000  0.5555380000000  0.4616800000000 1.0
C      1  0.5682770000000  0.5144430000000  0.4774050000000 1.0
C      1  0.4793660000000  0.4306920000000  0.4613910000000 1.0
C      1  0.4502370000000  0.5590990000000  0.5285170000000 1.0
C      1  0.5692140000000  0.5120310000000  0.5271980000000 1.0
C      1  0.4758490000000  0.4327170000000  0.5346840000000 1.0
C      1  0.5674550000000  0.5565950000000  0.4949460000000 1.0
C      1  0.5629910000000  0.4384690000000  0.5015510000000 1.0
C      1  0.5154430000000  0.4200100000000  0.4998830000000 1.0
C      1  0.5185960000000  0.5878030000000  0.4934460000000 1.0
C      1  0.4200760000000  0.5279880000000  0.5036140000000 1.0
C      1  0.4175810000000  0.4708190000000  0.5054780000000 1.0
C      1  0.4983490000000  0.5003020000000  0.4006640000000 1.0
C      1  0.4992680000000  0.4975850000000  0.5997870000000 1.0
END
