TITL C-3577086-586-123 -8.05296996365333e-07 125000 -331.655582131713 0 0 54 (C6v) n - 1
REM
REM in /home/bkarasulu/work/CARBON/AIRSS/Generating-Clusters/EDIP-Nigel-Params/with-SteepDescent/Higher-Symm/SD-CG/HFTN-CG
REM
REM
REM
REM
REM
REM ./C.cell (12c818d87b63d06a65506943cc24bca4)
REM
REM compiler GCC version 9.2.1 20190827 (Red Hat 9.2.1-1)
REM options -cpp -mtune=generic -march=x86-64 -g -O0 -fpre-include=/usr/include/finclude/math-vector-fortran.h
REM seed -957975025 185813392 1002639733 -2005225585 102036370 608949834 1446779220 -1900484159 -1410860139 -1308205927 363878986 -419336210 -194417702 801710477 1002698611 1012331624 554600963 1247878938 -118424688 795324202 -633697840 -1036234862 1103752019 1449468940 1798161536 -628997946 -841045188 -2037188682 812507329 -1638238848 -798423522 1727217420 -1418322265
REM
CELL 1.54180   50.00000   50.00000   50.00000   90.00000   90.00000   90.00000
LATT -1
SFAC C  
C      1  0.5698000000000  0.4854030000000  0.5313560000000 1.0
C      1  0.5222580000000  0.4322530000000  0.5313560000000 1.0
C      1  0.4524590000000  0.4468500000000  0.5313560000000 1.0
C      1  0.4302000000000  0.5145970000000  0.5313560000000 1.0
C      1  0.4777420000000  0.5677470000000  0.5313560000000 1.0
C      1  0.5475410000000  0.5531500000000  0.5313560000000 1.0
C      1  0.4302000000000  0.4854030000000  0.5313560000000 1.0
C      1  0.4777420000000  0.4322530000000  0.5313560000000 1.0
C      1  0.5475410000000  0.4468500000000  0.5313560000000 1.0
C      1  0.5698000000000  0.5145970000000  0.5313560000000 1.0
C      1  0.5222580000000  0.5677470000000  0.5313560000000 1.0
C      1  0.4524590000000  0.5531500000000  0.5313560000000 1.0
C      1  0.5144940000000  0.5631540000000  0.4554230000000 1.0
C      1  0.5619400000000  0.5190250000000  0.4554230000000 1.0
C      1  0.5474460000000  0.4558710000000  0.4554230000000 1.0
C      1  0.4855060000000  0.4368460000000  0.4554230000000 1.0
C      1  0.4380600000000  0.4809750000000  0.4554230000000 1.0
C      1  0.4525540000000  0.5441290000000  0.4554230000000 1.0
C      1  0.4855060000000  0.5631540000000  0.4554230000000 1.0
C      1  0.4380600000000  0.5190250000000  0.4554230000000 1.0
C      1  0.4525540000000  0.4558710000000  0.4554230000000 1.0
C      1  0.5144940000000  0.4368460000000  0.4554230000000 1.0
C      1  0.5619400000000  0.4809750000000  0.4554230000000 1.0
C      1  0.5474460000000  0.5441290000000  0.4554230000000 1.0
C      1  0.4202460000000  0.5143870000000  0.4784440000000 1.0
C      1  0.4725830000000  0.5762620000000  0.4784440000000 1.0
C      1  0.5523360000000  0.5618750000000  0.4784440000000 1.0
C      1  0.5797530000000  0.4856130000000  0.4784440000000 1.0
C      1  0.5274170000000  0.4237380000000  0.4784440000000 1.0
C      1  0.4476640000000  0.4381250000000  0.4784440000000 1.0
C      1  0.5797530000000  0.5143870000000  0.4784440000000 1.0
C      1  0.5274170000000  0.5762620000000  0.4784440000000 1.0
C      1  0.4476640000000  0.5618750000000  0.4784440000000 1.0
C      1  0.4202470000000  0.4856130000000  0.4784440000000 1.0
C      1  0.4725830000000  0.4237380000000  0.4784440000000 1.0
C      1  0.5523360000000  0.4381250000000  0.4784440000000 1.0
C      1  0.5583800000000  0.4502130000000  0.5046110000000 1.0
C      1  0.4860730000000  0.4245480000000  0.5046110000000 1.0
C      1  0.4276930000000  0.4743350000000  0.5046110000000 1.0
C      1  0.4416200000000  0.5497870000000  0.5046110000000 1.0
C      1  0.5139270000000  0.5754520000000  0.5046110000000 1.0
C      1  0.5723070000000  0.5256650000000  0.5046110000000 1.0
C      1  0.4416200000000  0.4502130000000  0.5046110000000 1.0
C      1  0.5139270000000  0.4245480000000  0.5046110000000 1.0
C      1  0.5723070000000  0.4743350000000  0.5046110000000 1.0
C      1  0.5583800000000  0.5497870000000  0.5046110000000 1.0
C      1  0.4860730000000  0.5754520000000  0.5046110000000 1.0
C      1  0.4276930000000  0.5256650000000  0.5046110000000 1.0
C      1  0.5572920000000  0.4669220000000  0.5493820000000 1.0
C      1  0.4427080000000  0.4669220000000  0.5493820000000 1.0
C      1  0.4427080000000  0.5330780000000  0.5493820000000 1.0
C      1  0.5572920000000  0.5330780000000  0.5493820000000 1.0
C      1  0.5000000000000  0.5661550000000  0.5493820000000 1.0
C      1  0.5000000000000  0.4338450000000  0.5493820000000 1.0
END
