TITL C-3577090-796-369 -2.35063161098143e-06 125000 -1174.20640050483 0 0 188 (C1) n - 1
REM
REM in /home/bkarasulu/work/CARBON/AIRSS/Generating-Clusters/EDIP-Nigel-Params/with-SteepDescent/Higher-Symm/SD-CG/HFTN-CG
REM
REM
REM
REM
REM
REM ./C.cell (12c818d87b63d06a65506943cc24bca4)
REM
REM compiler GCC version 9.2.1 20190827 (Red Hat 9.2.1-1)
REM options -cpp -mtune=generic -march=x86-64 -g -O0 -fpre-include=/usr/include/finclude/math-vector-fortran.h
REM seed 2075985599 -2110140693 -461304358 -1167481018 -245849699 -1505350655 -209293939 770778674 1804044993 1479036195 309243670 -232137861 1094944819 1418470420 1026696078 1667885906 857009257 399349796 -458536777 1530334347 1455828769 -686180963 -1522717744 -253357149 -1297887744 887486067 592243746 -138026628 -1116978985 -254086896 1160615830 -1858679845 764273724
REM
CELL 1.54180   50.00000   50.00000   50.00000   90.00000   90.00000   90.00000
LATT -1
SFAC C  
C      1  0.5285730000000  0.5957640000000  0.4665620000000 1.0
C      1  0.4139880000000  0.5581510000000  0.5200450000000 1.0
C      1  0.4566210000000  0.4742380000000  0.4373830000000 1.0
C      1  0.5460480000000  0.4432750000000  0.5900180000000 1.0
C      1  0.5097880000000  0.5663880000000  0.4941320000000 1.0
C      1  0.5035980000000  0.5312100000000  0.6087080000000 1.0
C      1  0.4691860000000  0.5130410000000  0.4685960000000 1.0
C      1  0.4172070000000  0.5473360000000  0.4481350000000 1.0
C      1  0.5399600000000  0.5682130000000  0.4481060000000 1.0
C      1  0.5723870000000  0.5210530000000  0.4194070000000 1.0
C      1  0.4326500000000  0.5335410000000  0.5672900000000 1.0
C      1  0.3892170000000  0.5033860000000  0.4591330000000 1.0
C      1  0.5178410000000  0.5232100000000  0.4820180000000 1.0
C      1  0.4882130000000  0.4422900000000  0.5990770000000 1.0
C      1  0.4737130000000  0.5944530000000  0.5365930000000 1.0
C      1  0.5601960000000  0.4881200000000  0.5054000000000 1.0
C      1  0.4165480000000  0.4626210000000  0.5564800000000 1.0
C      1  0.4803870000000  0.5489640000000  0.5948160000000 1.0
C      1  0.5317810000000  0.4392540000000  0.5485240000000 1.0
C      1  0.4652480000000  0.6086890000000  0.5116710000000 1.0
C      1  0.5646510000000  0.4622670000000  0.4901940000000 1.0
C      1  0.4986240000000  0.5028540000000  0.6175030000000 1.0
C      1  0.5783100000000  0.4224110000000  0.5548890000000 1.0
C      1  0.5688790000000  0.5106940000000  0.5774470000000 1.0
C      1  0.5891090000000  0.5753290000000  0.5235560000000 1.0
C      1  0.5171240000000  0.4830600000000  0.5267000000000 1.0
C      1  0.4728850000000  0.4861850000000  0.4603980000000 1.0
C      1  0.4430410000000  0.5905200000000  0.5018600000000 1.0
C      1  0.4689350000000  0.4836050000000  0.5282570000000 1.0
C      1  0.4321360000000  0.5456440000000  0.4745630000000 1.0
C      1  0.5551150000000  0.4686910000000  0.5768990000000 1.0
C      1  0.4805090000000  0.5081820000000  0.5180090000000 1.0
C      1  0.4352840000000  0.5536890000000  0.4257450000000 1.0
C      1  0.6039180000000  0.4881830000000  0.5556020000000 1.0
C      1  0.5285620000000  0.5061600000000  0.3902490000000 1.0
C      1  0.6037340000000  0.5296430000000  0.5297790000000 1.0
C      1  0.5055000000000  0.5274870000000  0.4330490000000 1.0
C      1  0.4788640000000  0.4686120000000  0.4835500000000 1.0
C      1  0.4288940000000  0.5818720000000  0.5271630000000 1.0
C      1  0.4753740000000  0.5280320000000  0.4433780000000 1.0
C      1  0.5580450000000  0.4604520000000  0.4138000000000 1.0
C      1  0.6000080000000  0.4670330000000  0.5312800000000 1.0
C      1  0.4359620000000  0.4931440000000  0.6017060000000 1.0
C      1  0.5303570000000  0.5549130000000  0.4017680000000 1.0
C      1  0.4502930000000  0.5799970000000  0.5473260000000 1.0
C      1  0.5456400000000  0.4079150000000  0.4731560000000 1.0
C      1  0.6056390000000  0.5351360000000  0.4991700000000 1.0
C      1  0.5223050000000  0.4846200000000  0.6118550000000 1.0
C      1  0.4417020000000  0.5169370000000  0.4788430000000 1.0
C      1  0.5391580000000  0.4513510000000  0.4725460000000 1.0
C      1  0.4784770000000  0.4416310000000  0.4678620000000 1.0
C      1  0.4547220000000  0.4260880000000  0.4240590000000 1.0
C      1  0.5129690000000  0.5963770000000  0.5022110000000 1.0
C      1  0.5225040000000  0.4013730000000  0.4921240000000 1.0
C      1  0.5068720000000  0.5921380000000  0.4218780000000 1.0
C      1  0.5050780000000  0.4729570000000  0.5727760000000 1.0
C      1  0.4577980000000  0.4461450000000  0.4456370000000 1.0
C      1  0.4634140000000  0.3910530000000  0.4494620000000 1.0
C      1  0.5116130000000  0.4698300000000  0.4253880000000 1.0
C      1  0.4850090000000  0.5722790000000  0.4165360000000 1.0
C      1  0.5182180000000  0.4520810000000  0.6032650000000 1.0
C      1  0.5069890000000  0.4752310000000  0.4964050000000 1.0
C      1  0.4107190000000  0.4820890000000  0.4582900000000 1.0
C      1  0.5547010000000  0.5868960000000  0.4885180000000 1.0
C      1  0.4732650000000  0.3978910000000  0.5266950000000 1.0
C      1  0.4796660000000  0.4136270000000  0.4155740000000 1.0
C      1  0.4404790000000  0.4056290000000  0.4396480000000 1.0
C      1  0.5833580000000  0.4467540000000  0.4540320000000 1.0
C      1  0.5786040000000  0.4476890000000  0.5395950000000 1.0
C      1  0.5188750000000  0.5339830000000  0.5367090000000 1.0
C      1  0.5551890000000  0.4211440000000  0.5733650000000 1.0
C      1  0.4247170000000  0.5066270000000  0.5786840000000 1.0
C      1  0.5388090000000  0.4538450000000  0.3951930000000 1.0
C      1  0.5081980000000  0.4599140000000  0.5459780000000 1.0
C      1  0.5051150000000  0.5088810000000  0.5337370000000 1.0
C      1  0.4603860000000  0.5316770000000  0.3906890000000 1.0
C      1  0.4411740000000  0.4560990000000  0.5712330000000 1.0
C      1  0.4117890000000  0.5606570000000  0.4905050000000 1.0
C      1  0.5307990000000  0.5354730000000  0.5979300000000 1.0
C      1  0.4275940000000  0.4227080000000  0.4937160000000 1.0
C      1  0.5557500000000  0.5175960000000  0.4606340000000 1.0
C      1  0.4477510000000  0.5282150000000  0.4161350000000 1.0
C      1  0.5271280000000  0.4990910000000  0.4193140000000 1.0
C      1  0.3956030000000  0.4934250000000  0.5100830000000 1.0
C      1  0.5968220000000  0.5175180000000  0.4767590000000 1.0
C      1  0.4580480000000  0.4876080000000  0.5564550000000 1.0
C      1  0.4973130000000  0.3860760000000  0.4814840000000 1.0
C      1  0.5567720000000  0.5414580000000  0.5052250000000 1.0
C      1  0.5991330000000  0.4876040000000  0.4789730000000 1.0
C      1  0.5474830000000  0.4859900000000  0.5318900000000 1.0
C      1  0.4433570000000  0.4901510000000  0.3927500000000 1.0
C      1  0.4605480000000  0.4415990000000  0.5164420000000 1.0
C      1  0.5852630000000  0.5568030000000  0.4999280000000 1.0
C      1  0.5324020000000  0.6003620000000  0.5271750000000 1.0
C      1  0.5156820000000  0.5730020000000  0.5710300000000 1.0
C      1  0.5019200000000  0.5466130000000  0.4089180000000 1.0
C      1  0.5590980000000  0.4900260000000  0.4499510000000 1.0
C      1  0.5050590000000  0.6067000000000  0.4481120000000 1.0
C      1  0.4560680000000  0.5642290000000  0.4902920000000 1.0
C      1  0.5793700000000  0.5326420000000  0.4492900000000 1.0
C      1  0.5530500000000  0.5657670000000  0.5450210000000 1.0
C      1  0.4130350000000  0.4496170000000  0.5309760000000 1.0
C      1  0.4404810000000  0.4637980000000  0.6002250000000 1.0
C      1  0.4133500000000  0.4487430000000  0.4865440000000 1.0
C      1  0.4715520000000  0.5940300000000  0.5869690000000 1.0
C      1  0.4818420000000  0.5977210000000  0.4661020000000 1.0
C      1  0.4901960000000  0.5704400000000  0.5278590000000 1.0
C      1  0.4707840000000  0.5553440000000  0.4550430000000 1.0
C      1  0.5239510000000  0.5393330000000  0.4548850000000 1.0
C      1  0.5890320000000  0.5041800000000  0.5342570000000 1.0
C      1  0.5388260000000  0.5607540000000  0.4916610000000 1.0
C      1  0.5615280000000  0.5934130000000  0.5189480000000 1.0
C      1  0.4063190000000  0.4446990000000  0.4589710000000 1.0
C      1  0.5826730000000  0.4002400000000  0.5381690000000 1.0
C      1  0.4504980000000  0.5954830000000  0.4552260000000 1.0
C      1  0.4938260000000  0.5690040000000  0.4682930000000 1.0
C      1  0.4478490000000  0.4133590000000  0.5405500000000 1.0
C      1  0.4189830000000  0.4174650000000  0.4560420000000 1.0
C      1  0.5146380000000  0.4436750000000  0.3904970000000 1.0
C      1  0.5021550000000  0.5536820000000  0.5506970000000 1.0
C      1  0.6021550000000  0.4643180000000  0.4993570000000 1.0
C      1  0.3978520000000  0.5266800000000  0.4456290000000 1.0
C      1  0.4039960000000  0.5076390000000  0.5347140000000 1.0
C      1  0.4638840000000  0.4782130000000  0.4086350000000 1.0
C      1  0.4879980000000  0.5305540000000  0.3875980000000 1.0
C      1  0.5704300000000  0.5619570000000  0.4512320000000 1.0
C      1  0.5368480000000  0.3951070000000  0.5190300000000 1.0
C      1  0.5891580000000  0.4336060000000  0.4809230000000 1.0
C      1  0.4726330000000  0.5513130000000  0.5112000000000 1.0
C      1  0.4142810000000  0.4914110000000  0.5564830000000 1.0
C      1  0.4228170000000  0.4222450000000  0.5244490000000 1.0
C      1  0.5919460000000  0.5544330000000  0.5448140000000 1.0
C      1  0.5387480000000  0.5603860000000  0.5859660000000 1.0
C      1  0.5314390000000  0.4877810000000  0.5820620000000 1.0
C      1  0.5799340000000  0.5751900000000  0.4753370000000 1.0
C      1  0.4487220000000  0.5806760000000  0.5767360000000 1.0
C      1  0.5332630000000  0.4770410000000  0.4573290000000 1.0
C      1  0.5870710000000  0.4880860000000  0.5795370000000 1.0
C      1  0.4843750000000  0.4409710000000  0.5401400000000 1.0
C      1  0.5003880000000  0.5033700000000  0.3842620000000 1.0
C      1  0.5336000000000  0.5778070000000  0.4200360000000 1.0
C      1  0.5515310000000  0.5341040000000  0.4025380000000 1.0
C      1  0.5705200000000  0.4113040000000  0.4885100000000 1.0
C      1  0.5646090000000  0.4045240000000  0.5166490000000 1.0
C      1  0.4820410000000  0.5381790000000  0.5671520000000 1.0
C      1  0.5217160000000  0.4093210000000  0.5404540000000 1.0
C      1  0.4606650000000  0.5281590000000  0.5263720000000 1.0
C      1  0.5648570000000  0.5614880000000  0.5716580000000 1.0
C      1  0.4965470000000  0.4173560000000  0.5266920000000 1.0
C      1  0.4286410000000  0.5045420000000  0.4130280000000 1.0
C      1  0.4917280000000  0.3937220000000  0.4534540000000 1.0
C      1  0.5858230000000  0.4763260000000  0.4554690000000 1.0
C      1  0.4289730000000  0.4851050000000  0.4353450000000 1.0
C      1  0.5613230000000  0.5116360000000  0.5472700000000 1.0
C      1  0.4588370000000  0.5231370000000  0.5553680000000 1.0
C      1  0.5413930000000  0.4178160000000  0.4456980000000 1.0
C      1  0.4686590000000  0.4611760000000  0.6120750000000 1.0
C      1  0.4519980000000  0.4283140000000  0.5667030000000 1.0
C      1  0.4790510000000  0.4277490000000  0.5753960000000 1.0
C      1  0.5553210000000  0.5148130000000  0.4910880000000 1.0
C      1  0.5576870000000  0.4921920000000  0.4211600000000 1.0
C      1  0.4579690000000  0.5725850000000  0.4345810000000 1.0
C      1  0.4273160000000  0.4926840000000  0.4793280000000 1.0
C      1  0.4972420000000  0.4251090000000  0.3982690000000 1.0
C      1  0.5069280000000  0.4437020000000  0.4515840000000 1.0
C      1  0.5191290000000  0.4935530000000  0.4770940000000 1.0
C      1  0.5197960000000  0.4498490000000  0.4936560000000 1.0
C      1  0.5247120000000  0.5949160000000  0.5539650000000 1.0
C      1  0.5102060000000  0.4158760000000  0.4385020000000 1.0
C      1  0.5544530000000  0.4610490000000  0.5479710000000 1.0
C      1  0.4879580000000  0.5223540000000  0.4905300000000 1.0
C      1  0.4010950000000  0.4640550000000  0.5087320000000 1.0
C      1  0.4874600000000  0.6109430000000  0.4931110000000 1.0
C      1  0.5607310000000  0.4400730000000  0.4360930000000 1.0
C      1  0.5062410000000  0.4256250000000  0.4989100000000 1.0
C      1  0.4914800000000  0.4797120000000  0.4020420000000 1.0
C      1  0.4459630000000  0.5534780000000  0.5881950000000 1.0
C      1  0.4607270000000  0.4224120000000  0.4909450000000 1.0
C      1  0.4928490000000  0.5765720000000  0.5915160000000 1.0
C      1  0.4738510000000  0.4913780000000  0.6037750000000 1.0
C      1  0.4713800000000  0.3937970000000  0.4972840000000 1.0
C      1  0.4598840000000  0.4684960000000  0.5064200000000 1.0
C      1  0.4812410000000  0.4903820000000  0.5752600000000 1.0
C      1  0.3846740000000  0.5059080000000  0.4870010000000 1.0
C      1  0.4131950000000  0.5356210000000  0.5405520000000 1.0
C      1  0.5478380000000  0.5378810000000  0.5343750000000 1.0
C      1  0.5512690000000  0.5160650000000  0.5997500000000 1.0
C      1  0.4270000000000  0.5921480000000  0.4752120000000 1.0
END
