TITL C-3577079-311-565 -1.36282224823809e-07 125000 -192.527828620382 0 0 31 (Cs) n - 1
REM
REM in /home/bkarasulu/work/CARBON/AIRSS/Generating-Clusters/EDIP-Nigel-Params/with-SteepDescent/Higher-Symm/SD-CG/HFTN-CG
REM
REM
REM
REM
REM
REM ./C.cell (12c818d87b63d06a65506943cc24bca4)
REM
REM compiler GCC version 9.2.1 20190827 (Red Hat 9.2.1-1)
REM options -cpp -mtune=generic -march=x86-64 -g -O0 -fpre-include=/usr/include/finclude/math-vector-fortran.h
REM seed 198013792 164968888 -381355264 1673946046 -336775016 440962664 1072427548 509455036 1835098194 -1521084870 -1095949461 323233959 689534993 1144510927 -11694190 1492684395 1610108666 -450411227 -280173323 707166958 -709946916 1625032267 -1809126920 -1625453227 94492045 -712532531 512701290 -731599826 -1905606367 2108526666 -1155889748 190378411 -521227147
REM
CELL 1.54180   50.00000   50.00000   50.00000   90.00000   90.00000   90.00000
LATT -1
SFAC C  
C      1  0.4775940000000  0.5121330000000  0.5619460000000 1.0
C      1  0.5058410000000  0.5238650000000  0.5615630000000 1.0
C      1  0.5254750000000  0.5006450000000  0.5612170000000 1.0
C      1  0.5093560000000  0.4745080000000  0.5611710000000 1.0
C      1  0.4797930000000  0.4816270000000  0.5614880000000 1.0
C      1  0.5147760000000  0.4603750000000  0.5347880000000 1.0
C      1  0.4677200000000  0.4717460000000  0.5352390000000 1.0
C      1  0.4641000000000  0.5205010000000  0.5360940000000 1.0
C      1  0.5092920000000  0.5391560000000  0.5353580000000 1.0
C      1  0.5405790000000  0.5022140000000  0.5348620000000 1.0
C      1  0.4888150000000  0.4584800000000  0.4675880000000 1.0
C      1  0.4531000000000  0.4965860000000  0.4715130000000 1.0
C      1  0.4806340000000  0.5412330000000  0.4715920000000 1.0
C      1  0.5307250000000  0.5264360000000  0.4677090000000 1.0
C      1  0.5386240000000  0.4746550000000  0.4726380000000 1.0
C      1  0.4885660000000  0.5237240000000  0.4935590000000 1.0
C      1  0.5189370000000  0.5161230000000  0.4923200000000 1.0
C      1  0.5216400000000  0.4850920000000  0.4931810000000 1.0
C      1  0.4927000000000  0.4735790000000  0.4922450000000 1.0
C      1  0.4722720000000  0.4973030000000  0.4935120000000 1.0
C      1  0.4579640000000  0.4957530000000  0.5200690000000 1.0
C      1  0.4834850000000  0.5371360000000  0.5201420000000 1.0
C      1  0.5309620000000  0.5260360000000  0.5187360000000 1.0
C      1  0.5338710000000  0.4775030000000  0.5193910000000 1.0
C      1  0.4891990000000  0.4583150000000  0.5186150000000 1.0
C      1  0.5142870000000  0.5180560000000  0.4459080000000 1.0
C      1  0.5385520000000  0.4747470000000  0.4457060000000 1.0
C      1  0.4889590000000  0.4769860000000  0.4458350000000 1.0
C      1  0.4700270000000  0.4995010000000  0.4491100000000 1.0
C      1  0.4856640000000  0.5248570000000  0.4491550000000 1.0
C      1  0.5152320000000  0.4891420000000  0.4381300000000 1.0
END
