TITL C-3577089-586-442 -1.81652588381232e-06 125000 -1227.50153536525 0 0 196 (C1) n - 1
REM
REM in /home/bkarasulu/work/CARBON/AIRSS/Generating-Clusters/EDIP-Nigel-Params/with-SteepDescent/Higher-Symm/SD-CG/HFTN-CG
REM
REM
REM
REM
REM
REM ./C.cell (12c818d87b63d06a65506943cc24bca4)
REM
REM compiler GCC version 9.2.1 20190827 (Red Hat 9.2.1-1)
REM options -cpp -mtune=generic -march=x86-64 -g -O0 -fpre-include=/usr/include/finclude/math-vector-fortran.h
REM seed -742786978 -2111170568 -745404458 -1301853313 1185641019 -232219189 296953471 524331060 368039746 -826532058 1575838111 1269585901 334685295 -2052471138 -1644104879 -423924852 1013640461 1627922147 1811957191 -462713473 -1110093888 1892652451 -827388806 1218869862 1261762730 -460324379 1914732469 512966552 -1436999444 869504235 1391551037 1637316017 -1759004705
REM
CELL 1.54180   50.00000   50.00000   50.00000   90.00000   90.00000   90.00000
LATT -1
SFAC C  
C      1  0.4427290000000  0.4134690000000  0.4869120000000 1.0
C      1  0.5139550000000  0.5817230000000  0.5450660000000 1.0
C      1  0.5272290000000  0.4156420000000  0.5303940000000 1.0
C      1  0.5935260000000  0.5052460000000  0.4984890000000 1.0
C      1  0.5563480000000  0.5517080000000  0.5472440000000 1.0
C      1  0.3879020000000  0.4831790000000  0.5084790000000 1.0
C      1  0.4122500000000  0.4605020000000  0.4406790000000 1.0
C      1  0.5611180000000  0.5814350000000  0.5429390000000 1.0
C      1  0.5367690000000  0.5947150000000  0.5333600000000 1.0
C      1  0.4746470000000  0.4693400000000  0.4191790000000 1.0
C      1  0.4713480000000  0.4749950000000  0.3891780000000 1.0
C      1  0.5649830000000  0.5102990000000  0.4931660000000 1.0
C      1  0.4943140000000  0.4549270000000  0.5181330000000 1.0
C      1  0.4986150000000  0.4363050000000  0.4971580000000 1.0
C      1  0.4704630000000  0.5615040000000  0.5898680000000 1.0
C      1  0.4648970000000  0.5852970000000  0.4263170000000 1.0
C      1  0.3981680000000  0.5203250000000  0.4457570000000 1.0
C      1  0.5395220000000  0.4461210000000  0.5887240000000 1.0
C      1  0.4204030000000  0.4341250000000  0.4438690000000 1.0
C      1  0.5208420000000  0.5705280000000  0.5871910000000 1.0
C      1  0.5343430000000  0.5589350000000  0.5002090000000 1.0
C      1  0.5265820000000  0.4740960000000  0.4331060000000 1.0
C      1  0.4896670000000  0.5997050000000  0.4951590000000 1.0
C      1  0.5170860000000  0.5175300000000  0.4788980000000 1.0
C      1  0.4800870000000  0.4197710000000  0.4268390000000 1.0
C      1  0.5746040000000  0.5963570000000  0.4964920000000 1.0
C      1  0.4671810000000  0.4535040000000  0.5294740000000 1.0
C      1  0.6113120000000  0.5524230000000  0.4973020000000 1.0
C      1  0.5380290000000  0.5895410000000  0.5050270000000 1.0
C      1  0.5363420000000  0.5471440000000  0.5731200000000 1.0
C      1  0.4203700000000  0.5462630000000  0.5722980000000 1.0
C      1  0.4783090000000  0.4186380000000  0.5612320000000 1.0
C      1  0.5531020000000  0.4391250000000  0.4214860000000 1.0
C      1  0.5438400000000  0.4663050000000  0.5377730000000 1.0
C      1  0.3966600000000  0.5330020000000  0.5333210000000 1.0
C      1  0.5292030000000  0.4694460000000  0.4826560000000 1.0
C      1  0.5654960000000  0.5102880000000  0.5769530000000 1.0
C      1  0.6059680000000  0.5335750000000  0.4574970000000 1.0
C      1  0.4637600000000  0.5241300000000  0.4335540000000 1.0
C      1  0.5113060000000  0.5926190000000  0.5716170000000 1.0
C      1  0.4817500000000  0.4890540000000  0.4875330000000 1.0
C      1  0.5179430000000  0.6036140000000  0.4885460000000 1.0
C      1  0.4459190000000  0.4838410000000  0.4554770000000 1.0
C      1  0.4743080000000  0.5619540000000  0.4136280000000 1.0
C      1  0.4754300000000  0.5510830000000  0.4505180000000 1.0
C      1  0.4694960000000  0.4926420000000  0.4388600000000 1.0
C      1  0.4618780000000  0.5750030000000  0.5648210000000 1.0
C      1  0.4352200000000  0.5619470000000  0.5241870000000 1.0
C      1  0.4577650000000  0.5013590000000  0.3885000000000 1.0
C      1  0.5156580000000  0.5270960000000  0.5639900000000 1.0
C      1  0.4310010000000  0.5136310000000  0.5066680000000 1.0
C      1  0.4777540000000  0.4381270000000  0.4752730000000 1.0
C      1  0.5407840000000  0.3970360000000  0.4793120000000 1.0
C      1  0.5937590000000  0.5551940000000  0.5197040000000 1.0
C      1  0.4566550000000  0.4245740000000  0.5819940000000 1.0
C      1  0.5741820000000  0.5357290000000  0.4186380000000 1.0
C      1  0.4366220000000  0.5293490000000  0.4834050000000 1.0
C      1  0.5031940000000  0.4764860000000  0.4700240000000 1.0
C      1  0.5102130000000  0.4433360000000  0.5898120000000 1.0
C      1  0.5190260000000  0.4273810000000  0.4550660000000 1.0
C      1  0.4804790000000  0.5197890000000  0.3931570000000 1.0
C      1  0.3829270000000  0.5062080000000  0.4913170000000 1.0
C      1  0.5523240000000  0.4958160000000  0.5437750000000 1.0
C      1  0.5458520000000  0.4285720000000  0.5102600000000 1.0
C      1  0.6008780000000  0.4803170000000  0.4840970000000 1.0
C      1  0.4308990000000  0.4177170000000  0.4622480000000 1.0
C      1  0.4919150000000  0.3926180000000  0.4960060000000 1.0
C      1  0.5879840000000  0.4722910000000  0.5696700000000 1.0
C      1  0.4347640000000  0.4679870000000  0.5855390000000 1.0
C      1  0.4636430000000  0.3933730000000  0.4880360000000 1.0
C      1  0.5534660000000  0.5568780000000  0.4780560000000 1.0
C      1  0.5035270000000  0.5185080000000  0.4487230000000 1.0
C      1  0.4860280000000  0.5937390000000  0.4451650000000 1.0
C      1  0.5295310000000  0.4217070000000  0.4268370000000 1.0
C      1  0.5068060000000  0.5054900000000  0.3977460000000 1.0
C      1  0.5875110000000  0.4528720000000  0.5234770000000 1.0
C      1  0.4226730000000  0.4512110000000  0.5632640000000 1.0
C      1  0.4347870000000  0.5676260000000  0.5554120000000 1.0
C      1  0.5116700000000  0.4996100000000  0.4274440000000 1.0
C      1  0.5382390000000  0.4057210000000  0.5560300000000 1.0
C      1  0.5474400000000  0.5410240000000  0.4536320000000 1.0
C      1  0.4488370000000  0.5877080000000  0.4704430000000 1.0
C      1  0.4320730000000  0.4990690000000  0.5877880000000 1.0
C      1  0.4044950000000  0.5469460000000  0.4550910000000 1.0
C      1  0.5265010000000  0.5012450000000  0.5585370000000 1.0
C      1  0.4838760000000  0.5418180000000  0.3753180000000 1.0
C      1  0.4041570000000  0.4732750000000  0.4652800000000 1.0
C      1  0.4913000000000  0.3917210000000  0.5551270000000 1.0
C      1  0.5653510000000  0.5827170000000  0.4715400000000 1.0
C      1  0.4674700000000  0.4232200000000  0.5341100000000 1.0
C      1  0.4802530000000  0.4100500000000  0.4570700000000 1.0
C      1  0.5302610000000  0.5192100000000  0.6123720000000 1.0
C      1  0.5139160000000  0.4566970000000  0.5411100000000 1.0
C      1  0.5082250000000  0.5476860000000  0.4871380000000 1.0
C      1  0.4878470000000  0.5275970000000  0.5293860000000 1.0
C      1  0.4651750000000  0.4441490000000  0.4302460000000 1.0
C      1  0.5808190000000  0.4248740000000  0.5608280000000 1.0
C      1  0.4270400000000  0.5530960000000  0.4378400000000 1.0
C      1  0.4465930000000  0.4643490000000  0.5083200000000 1.0
C      1  0.4723560000000  0.5335300000000  0.5559500000000 1.0
C      1  0.4083700000000  0.4591620000000  0.5396100000000 1.0
C      1  0.5871600000000  0.5334410000000  0.5394870000000 1.0
C      1  0.4425120000000  0.4932290000000  0.5450850000000 1.0
C      1  0.5265570000000  0.4386490000000  0.4864860000000 1.0
C      1  0.4943960000000  0.5615530000000  0.3928050000000 1.0
C      1  0.5716260000000  0.4850910000000  0.5884280000000 1.0
C      1  0.6112270000000  0.5263560000000  0.4856050000000 1.0
C      1  0.5912740000000  0.4474470000000  0.4517700000000 1.0
C      1  0.4442180000000  0.5226550000000  0.5526860000000 1.0
C      1  0.4054600000000  0.4886670000000  0.5334670000000 1.0
C      1  0.5815290000000  0.4930130000000  0.4368110000000 1.0
C      1  0.5225420000000  0.5928430000000  0.4343860000000 1.0
C      1  0.4460740000000  0.4921780000000  0.5167550000000 1.0
C      1  0.5253230000000  0.4903280000000  0.6099680000000 1.0
C      1  0.5547770000000  0.4250740000000  0.5716290000000 1.0
C      1  0.4101390000000  0.5476110000000  0.4852820000000 1.0
C      1  0.4964630000000  0.4824660000000  0.6147800000000 1.0
C      1  0.4524650000000  0.5132510000000  0.6034330000000 1.0
C      1  0.4888170000000  0.5198430000000  0.5792920000000 1.0
C      1  0.5221440000000  0.5542000000000  0.4010860000000 1.0
C      1  0.5600540000000  0.4144840000000  0.4648600000000 1.0
C      1  0.4744450000000  0.6064320000000  0.5207730000000 1.0
C      1  0.5833810000000  0.5772040000000  0.4484560000000 1.0
C      1  0.5508180000000  0.5301160000000  0.5927220000000 1.0
C      1  0.5414540000000  0.5410810000000  0.5233130000000 1.0
C      1  0.4727550000000  0.5166710000000  0.4751690000000 1.0
C      1  0.5535450000000  0.3851330000000  0.5025120000000 1.0
C      1  0.4748480000000  0.5010480000000  0.6154280000000 1.0
C      1  0.5511560000000  0.4636180000000  0.4054850000000 1.0
C      1  0.4738510000000  0.6016850000000  0.4708460000000 1.0
C      1  0.5385760000000  0.5736490000000  0.4178860000000 1.0
C      1  0.5921180000000  0.4771610000000  0.5421420000000 1.0
C      1  0.3986910000000  0.4607420000000  0.4915600000000 1.0
C      1  0.5635040000000  0.4887290000000  0.4140030000000 1.0
C      1  0.5709500000000  0.4089740000000  0.5100640000000 1.0
C      1  0.4545660000000  0.5407640000000  0.5997400000000 1.0
C      1  0.4261520000000  0.4201130000000  0.5105990000000 1.0
C      1  0.5047750000000  0.4849280000000  0.5490450000000 1.0
C      1  0.4269380000000  0.5329630000000  0.5283840000000 1.0
C      1  0.4608180000000  0.4721920000000  0.5564310000000 1.0
C      1  0.5186740000000  0.5440930000000  0.4437800000000 1.0
C      1  0.5624200000000  0.5594940000000  0.4319910000000 1.0
C      1  0.4600240000000  0.4670860000000  0.4809990000000 1.0
C      1  0.4399760000000  0.4119680000000  0.5357540000000 1.0
C      1  0.5052700000000  0.4330150000000  0.5637980000000 1.0
C      1  0.4956990000000  0.4989940000000  0.5217660000000 1.0
C      1  0.5584920000000  0.4538610000000  0.5177450000000 1.0
C      1  0.4264970000000  0.4780500000000  0.4220650000000 1.0
C      1  0.4956480000000  0.4512950000000  0.4535330000000 1.0
C      1  0.5214700000000  0.4996880000000  0.5039420000000 1.0
C      1  0.5908590000000  0.4751360000000  0.4572720000000 1.0
C      1  0.4992490000000  0.4027070000000  0.5249100000000 1.0
C      1  0.4468330000000  0.6051110000000  0.5142720000000 1.0
C      1  0.5522190000000  0.5084450000000  0.4658610000000 1.0
C      1  0.4417230000000  0.5785600000000  0.4434060000000 1.0
C      1  0.5018940000000  0.4774110000000  0.3850480000000 1.0
C      1  0.6014680000000  0.4346330000000  0.4769930000000 1.0
C      1  0.4297300000000  0.5321150000000  0.4167310000000 1.0
C      1  0.5306610000000  0.5259050000000  0.3926910000000 1.0
C      1  0.3886560000000  0.5327260000000  0.5028790000000 1.0
C      1  0.6057770000000  0.5624830000000  0.4604160000000 1.0
C      1  0.5116020000000  0.3932600000000  0.4729520000000 1.0
C      1  0.5472630000000  0.4722510000000  0.5995480000000 1.0
C      1  0.5895560000000  0.4244940000000  0.5341660000000 1.0
C      1  0.4323730000000  0.4236870000000  0.5634910000000 1.0
C      1  0.5852420000000  0.5209110000000  0.4410070000000 1.0
C      1  0.4641430000000  0.5674150000000  0.5111830000000 1.0
C      1  0.5463850000000  0.5121800000000  0.5168490000000 1.0
C      1  0.5623890000000  0.4415820000000  0.4497220000000 1.0
C      1  0.4188370000000  0.4495450000000  0.5120930000000 1.0
C      1  0.5566790000000  0.5163480000000  0.4044900000000 1.0
C      1  0.4854330000000  0.5592800000000  0.5315280000000 1.0
C      1  0.5071650000000  0.4588300000000  0.4103940000000 1.0
C      1  0.4595570000000  0.4516850000000  0.5952330000000 1.0
C      1  0.4766940000000  0.5452710000000  0.4903890000000 1.0
C      1  0.4092430000000  0.5175860000000  0.5774950000000 1.0
C      1  0.4884340000000  0.4639610000000  0.5936360000000 1.0
C      1  0.3927680000000  0.5094270000000  0.5522030000000 1.0
C      1  0.5044510000000  0.5329490000000  0.6121300000000 1.0
C      1  0.4845330000000  0.4850500000000  0.5707050000000 1.0
C      1  0.5039930000000  0.5625580000000  0.4603250000000 1.0
C      1  0.4979970000000  0.5580080000000  0.6000110000000 1.0
C      1  0.4318820000000  0.5941310000000  0.4928100000000 1.0
C      1  0.4156590000000  0.5723130000000  0.5030040000000 1.0
C      1  0.5155980000000  0.3959090000000  0.5704510000000 1.0
C      1  0.3934650000000  0.4999380000000  0.4649810000000 1.0
C      1  0.6039550000000  0.4555520000000  0.4983390000000 1.0
C      1  0.5815340000000  0.5818070000000  0.5216920000000 1.0
C      1  0.5468410000000  0.4759920000000  0.4586940000000 1.0
C      1  0.5925020000000  0.5049380000000  0.5294560000000 1.0
C      1  0.5260210000000  0.6002160000000  0.4614720000000 1.0
C      1  0.4344940000000  0.5035210000000  0.4078550000000 1.0
C      1  0.4347040000000  0.5138840000000  0.4564070000000 1.0
C      1  0.4789610000000  0.5968030000000  0.5512470000000 1.0
C      1  0.5054810000000  0.4281890000000  0.4115320000000 1.0
C      1  0.5827360000000  0.4127580000000  0.4829330000000 1.0
END
