TITL C-3578201-9217-453 6.58308833123004e-08 125000 -454.707412812446 0 0 73 (C1) n - 1
REM
REM in /home/bkarasulu/work/CARBON/AIRSS/Generating-Clusters/EDIP-Nigel-Params/with-SteepDescent/Higher-Symm/SD-CG/HFTN-CG
REM
REM
REM
REM
REM
REM ./C.cell (12c818d87b63d06a65506943cc24bca4)
REM
REM compiler GCC version 9.2.1 20190827 (Red Hat 9.2.1-1)
REM options -cpp -mtune=generic -march=x86-64 -g -O0 -fpre-include=/usr/include/finclude/math-vector-fortran.h
REM seed 1220434529 -375466510 848476762 1723747808 532562539 -1483400046 -696636357 -2019844947 690036307 507067633 480369211 -2024127274 1706742154 189184410 2004292828 66270404 -950614553 1687741734 1471540124 -567839119 460440604 -1134236364 1746486702 649767577 -1443766700 -296629935 582204364 1407674870 -1042215908 -1038115336 1773360891 2084746649 829722161
REM
CELL 1.54180   50.00000   50.00000   50.00000   90.00000   90.00000   90.00000
LATT -1
SFAC C  
C      1  0.5775760000000  0.4839890000000  0.5020130000000 1.0
C      1  0.5572480000000  0.4817760000000  0.4572940000000 1.0
C      1  0.5492420000000  0.4993140000000  0.5375590000000 1.0
C      1  0.4950860000000  0.4762800000000  0.5629930000000 1.0
C      1  0.4948660000000  0.5650280000000  0.5379030000000 1.0
C      1  0.4922610000000  0.4687590000000  0.4488700000000 1.0
C      1  0.5650470000000  0.4759010000000  0.5257200000000 1.0
C      1  0.4957210000000  0.4246200000000  0.5181870000000 1.0
C      1  0.4795060000000  0.4762130000000  0.5006990000000 1.0
C      1  0.5601870000000  0.5257950000000  0.4817430000000 1.0
C      1  0.5389580000000  0.4592040000000  0.5680270000000 1.0
C      1  0.5531470000000  0.4388800000000  0.4968390000000 1.0
C      1  0.5452840000000  0.4977440000000  0.4348940000000 1.0
C      1  0.4522510000000  0.5487040000000  0.5027510000000 1.0
C      1  0.5353290000000  0.4436750000000  0.5448270000000 1.0
C      1  0.4282770000000  0.5470760000000  0.4858270000000 1.0
C      1  0.4295250000000  0.4663530000000  0.4721080000000 1.0
C      1  0.5101210000000  0.5675780000000  0.4472510000000 1.0
C      1  0.5256670000000  0.5163450000000  0.4964040000000 1.0
C      1  0.4953460000000  0.4911640000000  0.5269900000000 1.0
C      1  0.4443220000000  0.4892920000000  0.4639520000000 1.0
C      1  0.4341370000000  0.5076230000000  0.5334040000000 1.0
C      1  0.5641150000000  0.5226530000000  0.5303070000000 1.0
C      1  0.4740720000000  0.4979840000000  0.5648370000000 1.0
C      1  0.5194360000000  0.5565060000000  0.5522510000000 1.0
C      1  0.4219740000000  0.4965210000000  0.5089470000000 1.0
C      1  0.5320140000000  0.4286840000000  0.4796460000000 1.0
C      1  0.5222980000000  0.4808860000000  0.5741590000000 1.0
C      1  0.5078820000000  0.4666250000000  0.4934780000000 1.0
C      1  0.4958210000000  0.4849840000000  0.4249470000000 1.0
C      1  0.4614600000000  0.4425060000000  0.5477780000000 1.0
C      1  0.5144250000000  0.5285400000000  0.5620160000000 1.0
C      1  0.5498140000000  0.5646200000000  0.5126920000000 1.0
C      1  0.5321870000000  0.5214840000000  0.4461060000000 1.0
C      1  0.4747740000000  0.5457970000000  0.5489020000000 1.0
C      1  0.4472100000000  0.4912300000000  0.5534310000000 1.0
C      1  0.4723140000000  0.5442710000000  0.4631810000000 1.0
C      1  0.4830570000000  0.5109020000000  0.4332970000000 1.0
C      1  0.4842150000000  0.5199080000000  0.5236370000000 1.0
C      1  0.4150680000000  0.5180070000000  0.4870390000000 1.0
C      1  0.4802880000000  0.4435070000000  0.4483080000000 1.0
C      1  0.4614260000000  0.4505180000000  0.4971920000000 1.0
C      1  0.4752250000000  0.5622000000000  0.4889500000000 1.0
C      1  0.4854320000000  0.5254120000000  0.5670170000000 1.0
C      1  0.4668670000000  0.4319820000000  0.5206180000000 1.0
C      1  0.5426690000000  0.5661520000000  0.5398250000000 1.0
C      1  0.4589280000000  0.5195680000000  0.5075810000000 1.0
C      1  0.4412380000000  0.5405550000000  0.4588360000000 1.0
C      1  0.5148360000000  0.4764150000000  0.4664610000000 1.0
C      1  0.5323770000000  0.5654060000000  0.4647070000000 1.0
C      1  0.4883460000000  0.5350330000000  0.4191860000000 1.0
C      1  0.5079570000000  0.4326600000000  0.5439010000000 1.0
C      1  0.5240220000000  0.4860450000000  0.4203870000000 1.0
C      1  0.5468580000000  0.4544150000000  0.5202960000000 1.0
C      1  0.5034150000000  0.5324270000000  0.5061310000000 1.0
C      1  0.5155750000000  0.5077690000000  0.4685120000000 1.0
C      1  0.4788100000000  0.4353100000000  0.4748750000000 1.0
C      1  0.5620160000000  0.5387350000000  0.5079200000000 1.0
C      1  0.5049330000000  0.4363110000000  0.4914140000000 1.0
C      1  0.5498260000000  0.5415550000000  0.4584560000000 1.0
C      1  0.4434500000000  0.4638230000000  0.5502150000000 1.0
C      1  0.4266860000000  0.5123400000000  0.4587060000000 1.0
C      1  0.4877240000000  0.4470360000000  0.5605760000000 1.0
C      1  0.5274980000000  0.5718490000000  0.4940380000000 1.0
C      1  0.5454240000000  0.4532380000000  0.4618630000000 1.0
C      1  0.5702320000000  0.4974690000000  0.4786100000000 1.0
C      1  0.4852710000000  0.5153410000000  0.4638600000000 1.0
C      1  0.5339940000000  0.5057740000000  0.5643870000000 1.0
C      1  0.5003170000000  0.5612060000000  0.5064060000000 1.0
C      1  0.4285120000000  0.4690030000000  0.4997920000000 1.0
C      1  0.4865480000000  0.5549690000000  0.4392260000000 1.0
C      1  0.4664540000000  0.4994490000000  0.4827460000000 1.0
C      1  0.5256070000000  0.4931050000000  0.5160910000000 1.0
END
