TITL C-3577084-3642-328 1.26908614785798e-06 125000 -342.185537516467 0 0 56 (C1) n - 1
REM
REM in /home/bkarasulu/work/CARBON/AIRSS/Generating-Clusters/EDIP-Nigel-Params/with-SteepDescent/Higher-Symm/SD-CG/HFTN-CG
REM
REM
REM
REM
REM
REM ./C.cell (12c818d87b63d06a65506943cc24bca4)
REM
REM compiler GCC version 9.2.1 20190827 (Red Hat 9.2.1-1)
REM options -cpp -mtune=generic -march=x86-64 -g -O0 -fpre-include=/usr/include/finclude/math-vector-fortran.h
REM seed -1257392839 924553139 -882948930 377335772 -1350685261 -1054027863 643756633 1673436505 -2086679473 678196958 593880069 -1325435050 -1801932297 1236697946 1503368521 1544288981 1644547646 -1885565390 -103145247 -1358247133 -1032155032 -1132255717 -1706206430 -975892376 -1369362296 724696603 1091359014 -199287539 2068786146 -1561107146 1952602498 -1534953492 -625345539
REM
CELL 1.54180   50.00000   50.00000   50.00000   90.00000   90.00000   90.00000
LATT -1
SFAC C  
C      1  0.4687460000000  0.4535340000000  0.4568260000000 1.0
C      1  0.4734820000000  0.5590150000000  0.4816020000000 1.0
C      1  0.4717630000000  0.4850370000000  0.5621170000000 1.0
C      1  0.5440510000000  0.4860850000000  0.5459720000000 1.0
C      1  0.5436420000000  0.4570130000000  0.4619490000000 1.0
C      1  0.5474070000000  0.5654360000000  0.4796130000000 1.0
C      1  0.4996280000000  0.5256550000000  0.4997410000000 1.0
C      1  0.4879460000000  0.4839110000000  0.5170790000000 1.0
C      1  0.4899510000000  0.4807160000000  0.4865260000000 1.0
C      1  0.4660300000000  0.4339850000000  0.5032430000000 1.0
C      1  0.4830220000000  0.5206890000000  0.4513600000000 1.0
C      1  0.4786620000000  0.5267960000000  0.5491810000000 1.0
C      1  0.5112020000000  0.4307100000000  0.4867590000000 1.0
C      1  0.5180790000000  0.5507430000000  0.4434500000000 1.0
C      1  0.5206600000000  0.5215210000000  0.5687920000000 1.0
C      1  0.5235940000000  0.4933980000000  0.5663630000000 1.0
C      1  0.5180180000000  0.4472330000000  0.4654570000000 1.0
C      1  0.5213700000000  0.5640870000000  0.4682230000000 1.0
C      1  0.4991200000000  0.4746590000000  0.5656510000000 1.0
C      1  0.4972070000000  0.4582300000000  0.4488370000000 1.0
C      1  0.4997470000000  0.5684760000000  0.4881250000000 1.0
C      1  0.5051820000000  0.5399740000000  0.5546310000000 1.0
C      1  0.4947550000000  0.4339650000000  0.5092070000000 1.0
C      1  0.5052360000000  0.5280760000000  0.4318880000000 1.0
C      1  0.5539560000000  0.5702270000000  0.5064600000000 1.0
C      1  0.5510160000000  0.4588970000000  0.5454930000000 1.0
C      1  0.5560740000000  0.4777330000000  0.4493410000000 1.0
C      1  0.4738440000000  0.5481720000000  0.4559120000000 1.0
C      1  0.4687710000000  0.5113060000000  0.5714510000000 1.0
C      1  0.4634380000000  0.4318700000000  0.4747090000000 1.0
C      1  0.5027160000000  0.5084230000000  0.5245660000000 1.0
C      1  0.5223120000000  0.4678770000000  0.5041200000000 1.0
C      1  0.5016740000000  0.5067270000000  0.4761740000000 1.0
C      1  0.5016680000000  0.4481550000000  0.5569210000000 1.0
C      1  0.5044390000000  0.4802820000000  0.4328660000000 1.0
C      1  0.5033360000000  0.5715750000000  0.5157530000000 1.0
C      1  0.4486590000000  0.4557130000000  0.5158810000000 1.0
C      1  0.4578190000000  0.5039720000000  0.4580760000000 1.0
C      1  0.4577260000000  0.5322330000000  0.5280410000000 1.0
C      1  0.4394910000000  0.4723570000000  0.4925330000000 1.0
C      1  0.4470180000000  0.5187370000000  0.4819260000000 1.0
C      1  0.4435910000000  0.5055990000000  0.5273050000000 1.0
C      1  0.4623790000000  0.4776810000000  0.4728240000000 1.0
C      1  0.4670880000000  0.5352260000000  0.4989740000000 1.0
C      1  0.4617430000000  0.4812410000000  0.5329180000000 1.0
C      1  0.5206790000000  0.5032400000000  0.4286290000000 1.0
C      1  0.5175410000000  0.5589740000000  0.5360520000000 1.0
C      1  0.5106980000000  0.4364240000000  0.5333730000000 1.0
C      1  0.5438920000000  0.5035330000000  0.4472000000000 1.0
C      1  0.5452620000000  0.5578430000000  0.5301250000000 1.0
C      1  0.5358400000000  0.4479800000000  0.5243720000000 1.0
C      1  0.5319780000000  0.4973210000000  0.4750170000000 1.0
C      1  0.5315510000000  0.5364200000000  0.5008320000000 1.0
C      1  0.5310160000000  0.4945510000000  0.5198480000000 1.0
C      1  0.5460140000000  0.5106090000000  0.4986210000000 1.0
C      1  0.4327900000000  0.5003500000000  0.5003390000000 1.0
END
