TITL C-3578195-8548-783 -1.07569504150158e-06 125000 -1022.8751692586 0 0 162 (C1) n - 1
REM
REM in /home/bkarasulu/work/CARBON/AIRSS/Generating-Clusters/EDIP-Nigel-Params/with-SteepDescent/Higher-Symm/SD-CG/HFTN-CG
REM
REM
REM
REM
REM
REM ./C.cell (12c818d87b63d06a65506943cc24bca4)
REM
REM compiler GCC version 9.2.1 20190827 (Red Hat 9.2.1-1)
REM options -cpp -mtune=generic -march=x86-64 -g -O0 -fpre-include=/usr/include/finclude/math-vector-fortran.h
REM seed -572022912 -708773054 110251746 -695831804 146472884 1469321116 1855471809 -1368165313 -1712095374 -830892268 1712924995 2032785864 -589316468 2043504553 262148181 -1185673137 -559199690 -1648169420 370369940 -2011799355 -1871905126 -1160462438 -312812113 1506345078 -1009184484 -1599163593 2140799538 -787535608 -1507303832 1208184244 -1264853427 842129161 -1719753147
REM
CELL 1.54180   50.00000   50.00000   50.00000   90.00000   90.00000   90.00000
LATT -1
SFAC C  
C      1  0.5827050000000  0.5753790000000  0.4999040000000 1.0
C      1  0.5794560000000  0.4663740000000  0.4339550000000 1.0
C      1  0.5797540000000  0.4649610000000  0.5611390000000 1.0
C      1  0.4197130000000  0.5745720000000  0.4957340000000 1.0
C      1  0.4187800000000  0.4659120000000  0.5629960000000 1.0
C      1  0.4221610000000  0.4661510000000  0.4398170000000 1.0
C      1  0.5032450000000  0.5973950000000  0.4660170000000 1.0
C      1  0.5050930000000  0.4212270000000  0.4344950000000 1.0
C      1  0.5022110000000  0.4762310000000  0.5999660000000 1.0
C      1  0.4970730000000  0.5954960000000  0.5328580000000 1.0
C      1  0.4931430000000  0.4209790000000  0.5707050000000 1.0
C      1  0.4971560000000  0.4816710000000  0.3986300000000 1.0
C      1  0.5883030000000  0.5117350000000  0.5705830000000 1.0
C      1  0.5845810000000  0.5584070000000  0.4589510000000 1.0
C      1  0.5897290000000  0.4351260000000  0.4714590000000 1.0
C      1  0.4150730000000  0.5081620000000  0.4280780000000 1.0
C      1  0.4123220000000  0.5579120000000  0.5415950000000 1.0
C      1  0.4083390000000  0.4353310000000  0.5246150000000 1.0
C      1  0.5320820000000  0.5977060000000  0.4584070000000 1.0
C      1  0.5338460000000  0.4187980000000  0.4410200000000 1.0
C      1  0.5316300000000  0.4811130000000  0.6039640000000 1.0
C      1  0.4679020000000  0.5922210000000  0.5386530000000 1.0
C      1  0.4643220000000  0.4196900000000  0.5662840000000 1.0
C      1  0.4681880000000  0.4869390000000  0.3972320000000 1.0
C      1  0.5884140000000  0.4471470000000  0.5186830000000 1.0
C      1  0.5872100000000  0.5447960000000  0.5377940000000 1.0
C      1  0.5805200000000  0.5130230000000  0.4440650000000 1.0
C      1  0.4155570000000  0.4511630000000  0.4810560000000 1.0
C      1  0.4139100000000  0.5442090000000  0.4562520000000 1.0
C      1  0.4094130000000  0.5127610000000  0.5582980000000 1.0
C      1  0.5429380000000  0.4831660000000  0.5461060000000 1.0
C      1  0.5483110000000  0.5446450000000  0.5045580000000 1.0
C      1  0.5419970000000  0.4704590000000  0.4697860000000 1.0
C      1  0.4494000000000  0.4859150000000  0.4732340000000 1.0
C      1  0.4655300000000  0.5416290000000  0.5089340000000 1.0
C      1  0.4638540000000  0.4595780000000  0.5311390000000 1.0
C      1  0.4557400000000  0.5122210000000  0.5869640000000 1.0
C      1  0.4603350000000  0.5667210000000  0.4493420000000 1.0
C      1  0.4579630000000  0.4186010000000  0.4655530000000 1.0
C      1  0.5390550000000  0.5132660000000  0.4151690000000 1.0
C      1  0.5433190000000  0.5695540000000  0.5486800000000 1.0
C      1  0.5453540000000  0.4186520000000  0.5306840000000 1.0
C      1  0.5202850000000  0.4056310000000  0.4873610000000 1.0
C      1  0.5211190000000  0.5260160000000  0.5878520000000 1.0
C      1  0.5190820000000  0.5666340000000  0.4215480000000 1.0
C      1  0.4754090000000  0.3983870000000  0.5221210000000 1.0
C      1  0.4795710000000  0.5352680000000  0.4042620000000 1.0
C      1  0.4816020000000  0.5579970000000  0.5713680000000 1.0
C      1  0.4600740000000  0.5144720000000  0.4065490000000 1.0
C      1  0.4605290000000  0.4206010000000  0.5359370000000 1.0
C      1  0.4603420000000  0.5690030000000  0.5561760000000 1.0
C      1  0.5409630000000  0.5078840000000  0.5964290000000 1.0
C      1  0.5396310000000  0.4184820000000  0.4704110000000 1.0
C      1  0.5398650000000  0.5757990000000  0.4395080000000 1.0
C      1  0.5133750000000  0.5925170000000  0.5568150000000 1.0
C      1  0.5132360000000  0.5032790000000  0.3878730000000 1.0
C      1  0.5050420000000  0.3978570000000  0.5604090000000 1.0
C      1  0.4854120000000  0.5956440000000  0.4431790000000 1.0
C      1  0.4852810000000  0.4979870000000  0.6086760000000 1.0
C      1  0.4888030000000  0.4020200000000  0.4489030000000 1.0
C      1  0.5073170000000  0.5705710000000  0.5740920000000 1.0
C      1  0.5053530000000  0.5302750000000  0.3923880000000 1.0
C      1  0.5024680000000  0.3944140000000  0.5326180000000 1.0
C      1  0.4926400000000  0.5784720000000  0.4216920000000 1.0
C      1  0.4960040000000  0.5234670000000  0.6015700000000 1.0
C      1  0.4950090000000  0.3971250000000  0.4762910000000 1.0
C      1  0.4899680000000  0.4983840000000  0.4462660000000 1.0
C      1  0.4915290000000  0.4516250000000  0.5309090000000 1.0
C      1  0.4926550000000  0.5471670000000  0.5227510000000 1.0
C      1  0.5130560000000  0.4965200000000  0.5558670000000 1.0
C      1  0.5145350000000  0.4549900000000  0.4702550000000 1.0
C      1  0.5105910000000  0.5471320000000  0.4725040000000 1.0
C      1  0.5365460000000  0.4405550000000  0.5504080000000 1.0
C      1  0.5380730000000  0.5703300000000  0.5174370000000 1.0
C      1  0.5341140000000  0.4864910000000  0.4300450000000 1.0
C      1  0.4672200000000  0.4464550000000  0.4555290000000 1.0
C      1  0.4655150000000  0.5680450000000  0.4805800000000 1.0
C      1  0.4626720000000  0.4869690000000  0.5682600000000 1.0
C      1  0.4620160000000  0.5070790000000  0.4570180000000 1.0
C      1  0.4521190000000  0.4521640000000  0.5062560000000 1.0
C      1  0.4500590000000  0.5266440000000  0.5306730000000 1.0
C      1  0.5464360000000  0.5129090000000  0.5444240000000 1.0
C      1  0.5537110000000  0.4628180000000  0.4960490000000 1.0
C      1  0.5396880000000  0.5388700000000  0.4739460000000 1.0
C      1  0.5942170000000  0.4808100000000  0.4780050000000 1.0
C      1  0.5968060000000  0.4970140000000  0.5218560000000 1.0
C      1  0.5882330000000  0.5203590000000  0.4967950000000 1.0
C      1  0.4045150000000  0.4833290000000  0.5194220000000 1.0
C      1  0.4011150000000  0.4991770000000  0.4755650000000 1.0
C      1  0.4077590000000  0.5229810000000  0.5004740000000 1.0
C      1  0.4091040000000  0.4425140000000  0.5515100000000 1.0
C      1  0.4105890000000  0.5768790000000  0.5218190000000 1.0
C      1  0.4095590000000  0.4817330000000  0.4204550000000 1.0
C      1  0.5899620000000  0.4427100000000  0.4445150000000 1.0
C      1  0.5937040000000  0.5793940000000  0.4746890000000 1.0
C      1  0.5900270000000  0.4848550000000  0.5775120000000 1.0
C      1  0.6156560000000  0.5227010000000  0.4833170000000 1.0
C      1  0.6207400000000  0.4935710000000  0.4840630000000 1.0
C      1  0.6224510000000  0.4829220000000  0.5115520000000 1.0
C      1  0.3793760000000  0.5235890000000  0.5139310000000 1.0
C      1  0.3772360000000  0.4940280000000  0.5129220000000 1.0
C      1  0.3765910000000  0.4830720000000  0.4855520000000 1.0
C      1  0.5747520000000  0.4858730000000  0.4551660000000 1.0
C      1  0.5778550000000  0.4720300000000  0.5317220000000 1.0
C      1  0.5784920000000  0.5465170000000  0.5093250000000 1.0
C      1  0.4200620000000  0.4888530000000  0.5447480000000 1.0
C      1  0.4222100000000  0.4765110000000  0.4672880000000 1.0
C      1  0.4175990000000  0.5474180000000  0.4848480000000 1.0
C      1  0.4519830000000  0.4390930000000  0.5815890000000 1.0
C      1  0.4523500000000  0.5993780000000  0.5166400000000 1.0
C      1  0.4554300000000  0.4647110000000  0.4082120000000 1.0
C      1  0.5469000000000  0.4373790000000  0.4249970000000 1.0
C      1  0.5486310000000  0.6017210000000  0.4805710000000 1.0
C      1  0.5471550000000  0.4593620000000  0.5955950000000 1.0
C      1  0.5623940000000  0.4337700000000  0.4848150000000 1.0
C      1  0.5610130000000  0.5249420000000  0.5692150000000 1.0
C      1  0.5561420000000  0.5524790000000  0.4506680000000 1.0
C      1  0.4346230000000  0.4266570000000  0.5125740000000 1.0
C      1  0.4434320000000  0.5185580000000  0.4316250000000 1.0
C      1  0.4390480000000  0.5470280000000  0.5509300000000 1.0
C      1  0.4313090000000  0.5274200000000  0.5738350000000 1.0
C      1  0.4382760000000  0.5478300000000  0.4389590000000 1.0
C      1  0.4310360000000  0.4230680000000  0.4806850000000 1.0
C      1  0.5597820000000  0.5289200000000  0.4308790000000 1.0
C      1  0.5671760000000  0.5528670000000  0.5581740000000 1.0
C      1  0.5687340000000  0.4244160000000  0.5128570000000 1.0
C      1  0.5069730000000  0.5223610000000  0.5148990000000 1.0
C      1  0.5059700000000  0.4988900000000  0.4709660000000 1.0
C      1  0.5057420000000  0.4725550000000  0.5159540000000 1.0
C      1  0.4984190000000  0.5231920000000  0.4851610000000 1.0
C      1  0.4986760000000  0.4983260000000  0.5296610000000 1.0
C      1  0.4973560000000  0.4729310000000  0.4862240000000 1.0
C      1  0.5999190000000  0.5184000000000  0.5444730000000 1.0
C      1  0.5972850000000  0.5316800000000  0.4600660000000 1.0
C      1  0.6030870000000  0.4544810000000  0.4925040000000 1.0
C      1  0.4000470000000  0.5180660000000  0.4510180000000 1.0
C      1  0.3982520000000  0.5319980000000  0.5373320000000 1.0
C      1  0.3982490000000  0.4565770000000  0.5050080000000 1.0
C      1  0.5286990000000  0.5525630000000  0.5798520000000 1.0
C      1  0.5260760000000  0.5470690000000  0.4019890000000 1.0
C      1  0.5232720000000  0.4057850000000  0.5161450000000 1.0
C      1  0.4718600000000  0.5612540000000  0.4129250000000 1.0
C      1  0.4749410000000  0.5359250000000  0.5881920000000 1.0
C      1  0.4725720000000  0.3965970000000  0.4934730000000 1.0
C      1  0.5358710000000  0.5241060000000  0.5193910000000 1.0
C      1  0.5362340000000  0.5016780000000  0.4658150000000 1.0
C      1  0.5354590000000  0.4662970000000  0.5208390000000 1.0
C      1  0.4690570000000  0.5245490000000  0.4824420000000 1.0
C      1  0.4504730000000  0.4949300000000  0.5391200000000 1.0
C      1  0.4664900000000  0.4640930000000  0.4812550000000 1.0
C      1  0.4457360000000  0.5874160000000  0.4925240000000 1.0
C      1  0.4479490000000  0.4553730000000  0.4331030000000 1.0
C      1  0.4436700000000  0.4650280000000  0.5775510000000 1.0
C      1  0.5571760000000  0.5897870000000  0.5040410000000 1.0
C      1  0.5567260000000  0.4498760000000  0.5712260000000 1.0
C      1  0.5534630000000  0.4641500000000  0.4218180000000 1.0
C      1  0.5061980000000  0.5729500000000  0.5137420000000 1.0
C      1  0.5039600000000  0.4778600000000  0.4283320000000 1.0
C      1  0.5044500000000  0.4459690000000  0.5572320000000 1.0
C      1  0.4972340000000  0.5728590000000  0.4832890000000 1.0
C      1  0.4959570000000  0.4750980000000  0.5706700000000 1.0
C      1  0.4979310000000  0.4489520000000  0.4453440000000 1.0
END
