TITL C-3577083-591-676 -4.28986797558851e-06 125000 -568.01039875835 0 0 93 (C1) n - 1
REM
REM in /home/bkarasulu/work/CARBON/AIRSS/Generating-Clusters/EDIP-Nigel-Params/with-SteepDescent/Higher-Symm/SD-CG/HFTN-CG
REM
REM
REM
REM
REM
REM ./C.cell (12c818d87b63d06a65506943cc24bca4)
REM
REM compiler GCC version 9.2.1 20190827 (Red Hat 9.2.1-1)
REM options -cpp -mtune=generic -march=x86-64 -g -O0 -fpre-include=/usr/include/finclude/math-vector-fortran.h
REM seed -2115768464 -2131277460 -635591147 -1245418615 1964533402 116420548 1002056657 1942493186 -1849514065 1927106950 1302929838 1067129323 982753454 -1392510268 2012563981 -462214137 -125243133 -1466087514 -1348190151 -548888566 -1431498517 -279523157 -1817700720 814499092 -2038787768 1818812267 119955943 1587719898 393896519 -258328562 -1226768775 1094591926 419752141
REM
CELL 1.54180   50.00000   50.00000   50.00000   90.00000   90.00000   90.00000
LATT -1
SFAC C  
C      1  0.4826870000000  0.4927470000000  0.5435420000000 1.0
C      1  0.4821390000000  0.5398540000000  0.4898950000000 1.0
C      1  0.5511140000000  0.4836840000000  0.4890710000000 1.0
C      1  0.4907340000000  0.5282530000000  0.4480210000000 1.0
C      1  0.5136970000000  0.4853930000000  0.4659490000000 1.0
C      1  0.5114960000000  0.5347570000000  0.5546750000000 1.0
C      1  0.4777940000000  0.4515960000000  0.5096340000000 1.0
C      1  0.5256780000000  0.5397800000000  0.5139630000000 1.0
C      1  0.5102570000000  0.4361760000000  0.4786710000000 1.0
C      1  0.5407250000000  0.5153380000000  0.5293440000000 1.0
C      1  0.4601350000000  0.4856910000000  0.5133800000000 1.0
C      1  0.4614910000000  0.5210880000000  0.4732560000000 1.0
C      1  0.5106980000000  0.4801490000000  0.5440800000000 1.0
C      1  0.5080200000000  0.5261200000000  0.4942350000000 1.0
C      1  0.4585660000000  0.4893090000000  0.4712710000000 1.0
C      1  0.5175860000000  0.5121500000000  0.4506830000000 1.0
C      1  0.4885420000000  0.4719950000000  0.4533880000000 1.0
C      1  0.4834370000000  0.5241820000000  0.5474890000000 1.0
C      1  0.5262150000000  0.4334110000000  0.5032760000000 1.0
C      1  0.4688490000000  0.5450360000000  0.5165520000000 1.0
C      1  0.4794000000000  0.4408290000000  0.4812720000000 1.0
C      1  0.4474580000000  0.5116340000000  0.5282960000000 1.0
C      1  0.5293380000000  0.4886500000000  0.5171410000000 1.0
C      1  0.5514500000000  0.5076310000000  0.4708490000000 1.0
C      1  0.4358730000000  0.4457890000000  0.4741150000000 1.0
C      1  0.4465470000000  0.4739730000000  0.4319330000000 1.0
C      1  0.4733550000000  0.4306200000000  0.4389910000000 1.0
C      1  0.4278350000000  0.5558400000000  0.5262870000000 1.0
C      1  0.5682530000000  0.4461890000000  0.5240420000000 1.0
C      1  0.5609050000000  0.5532880000000  0.4761840000000 1.0
C      1  0.4414550000000  0.5297140000000  0.5685670000000 1.0
C      1  0.5551130000000  0.4797170000000  0.5609870000000 1.0
C      1  0.5525360000000  0.5271430000000  0.4313760000000 1.0
C      1  0.4777310000000  0.5684260000000  0.5592640000000 1.0
C      1  0.5264870000000  0.4397080000000  0.5511560000000 1.0
C      1  0.5207050000000  0.5664260000000  0.4502190000000 1.0
C      1  0.5633980000000  0.4486880000000  0.4759730000000 1.0
C      1  0.5530220000000  0.4761780000000  0.4336690000000 1.0
C      1  0.5226070000000  0.4356990000000  0.4414260000000 1.0
C      1  0.5666280000000  0.5538440000000  0.5244240000000 1.0
C      1  0.4367540000000  0.4497740000000  0.5243880000000 1.0
C      1  0.4317190000000  0.5582160000000  0.4770550000000 1.0
C      1  0.5565190000000  0.5286690000000  0.5680070000000 1.0
C      1  0.4472990000000  0.4795750000000  0.5661270000000 1.0
C      1  0.4432600000000  0.5233900000000  0.4341160000000 1.0
C      1  0.5269940000000  0.5711790000000  0.5518530000000 1.0
C      1  0.4772480000000  0.4397560000000  0.5555860000000 1.0
C      1  0.4730520000000  0.5697520000000  0.4510090000000 1.0
C      1  0.5139560000000  0.5668950000000  0.5251690000000 1.0
C      1  0.5678170000000  0.5256960000000  0.5155230000000 1.0
C      1  0.5291540000000  0.5184810000000  0.5719430000000 1.0
C      1  0.5122280000000  0.4117440000000  0.4597800000000 1.0
C      1  0.4860220000000  0.5686720000000  0.4780150000000 1.0
C      1  0.4854340000000  0.4301560000000  0.5293790000000 1.0
C      1  0.5797370000000  0.4713530000000  0.4895040000000 1.0
C      1  0.4328490000000  0.5297130000000  0.4838410000000 1.0
C      1  0.4301040000000  0.4751870000000  0.5109770000000 1.0
C      1  0.5359760000000  0.4848710000000  0.4128660000000 1.0
C      1  0.4712220000000  0.5152840000000  0.4302690000000 1.0
C      1  0.4694810000000  0.4925380000000  0.5791980000000 1.0
C      1  0.4847280000000  0.5655240000000  0.5311200000000 1.0
C      1  0.4279120000000  0.5282010000000  0.5133770000000 1.0
C      1  0.4692730000000  0.5214070000000  0.5744390000000 1.0
C      1  0.4826220000000  0.4102470000000  0.4577150000000 1.0
C      1  0.5125480000000  0.5787240000000  0.4746600000000 1.0
C      1  0.5145650000000  0.4256610000000  0.5285710000000 1.0
C      1  0.4320190000000  0.4738160000000  0.4814060000000 1.0
C      1  0.5688210000000  0.5269910000000  0.4854550000000 1.0
C      1  0.5888660000000  0.4633070000000  0.5148840000000 1.0
C      1  0.4735200000000  0.4860590000000  0.4298360000000 1.0
C      1  0.5285210000000  0.5108000000000  0.4212190000000 1.0
C      1  0.5281950000000  0.4894050000000  0.5675010000000 1.0
C      1  0.5029820000000  0.4497130000000  0.5652740000000 1.0
C      1  0.4420090000000  0.5684450000000  0.5031840000000 1.0
C      1  0.4960440000000  0.5558300000000  0.4370170000000 1.0
C      1  0.4455550000000  0.4331700000000  0.4995300000000 1.0
C      1  0.5547300000000  0.4337330000000  0.5005260000000 1.0
C      1  0.5512290000000  0.5644260000000  0.5014850000000 1.0
C      1  0.5648970000000  0.5014210000000  0.4446950000000 1.0
C      1  0.5678080000000  0.5051580000000  0.5544460000000 1.0
C      1  0.4338090000000  0.5039620000000  0.5541810000000 1.0
C      1  0.4333640000000  0.4973730000000  0.4445830000000 1.0
C      1  0.4965920000000  0.4485530000000  0.4338080000000 1.0
C      1  0.5042920000000  0.5614590000000  0.5707210000000 1.0
C      1  0.5432960000000  0.5474900000000  0.4530790000000 1.0
C      1  0.4432530000000  0.5541110000000  0.5518510000000 1.0
C      1  0.5486490000000  0.4575810000000  0.5425780000000 1.0
C      1  0.4468840000000  0.5557450000000  0.4510500000000 1.0
C      1  0.5401630000000  0.4586980000000  0.4552900000000 1.0
C      1  0.4555470000000  0.4581300000000  0.5471760000000 1.0
C      1  0.4510500000000  0.4487730000000  0.4484520000000 1.0
C      1  0.5540130000000  0.5550020000000  0.5517790000000 1.0
C      1  0.5096080000000  0.4966670000000  0.4945710000000 1.0
END
