TITL C-3578199-7832-650 -3.20525648247177e-06 125000 -912.478751274011 0 0 146 (C1) n - 1
REM
REM in /home/bkarasulu/work/CARBON/AIRSS/Generating-Clusters/EDIP-Nigel-Params/with-SteepDescent/Higher-Symm/SD-CG/HFTN-CG
REM
REM
REM
REM
REM
REM ./C.cell (12c818d87b63d06a65506943cc24bca4)
REM
REM compiler GCC version 9.2.1 20190827 (Red Hat 9.2.1-1)
REM options -cpp -mtune=generic -march=x86-64 -g -O0 -fpre-include=/usr/include/finclude/math-vector-fortran.h
REM seed 1309517365 -1242838896 232324297 -479855340 -965341265 1455393432 -1367257456 -313545215 2054251212 311078659 1101750929 -879052902 -1320238981 -388582767 -297444766 -442774663 1490139182 1293126498 220826041 1560574380 -1047247759 90659410 -1160435703 -564852171 -1524667466 -2123763879 -1092225708 -1206150241 -1542241585 -426974300 -1729633175 557500495 -416326937
REM
CELL 1.54180   50.00000   50.00000   50.00000   90.00000   90.00000   90.00000
LATT -1
SFAC C  
C      1  0.4616890000000  0.5275650000000  0.5267280000000 1.0
C      1  0.4638490000000  0.5261100000000  0.4750630000000 1.0
C      1  0.5680130000000  0.5125790000000  0.4659230000000 1.0
C      1  0.5626300000000  0.5094930000000  0.5308260000000 1.0
C      1  0.4281160000000  0.4984220000000  0.5734010000000 1.0
C      1  0.4279080000000  0.5018650000000  0.4281030000000 1.0
C      1  0.5375930000000  0.4951610000000  0.5420540000000 1.0
C      1  0.5418630000000  0.4984650000000  0.4512620000000 1.0
C      1  0.4691660000000  0.4917140000000  0.4027360000000 1.0
C      1  0.4730940000000  0.4922300000000  0.5946870000000 1.0
C      1  0.5934870000000  0.5476260000000  0.5329670000000 1.0
C      1  0.5940620000000  0.5475530000000  0.4710310000000 1.0
C      1  0.5203040000000  0.4981900000000  0.4192550000000 1.0
C      1  0.5226610000000  0.5008550000000  0.5775750000000 1.0
C      1  0.5270330000000  0.5364840000000  0.5290730000000 1.0
C      1  0.5248170000000  0.5192410000000  0.4690890000000 1.0
C      1  0.5488260000000  0.4676520000000  0.5870140000000 1.0
C      1  0.5456330000000  0.4624150000000  0.4163230000000 1.0
C      1  0.4454000000000  0.4533760000000  0.4272290000000 1.0
C      1  0.4536720000000  0.4517700000000  0.5718090000000 1.0
C      1  0.4180840000000  0.5482220000000  0.5126940000000 1.0
C      1  0.4202070000000  0.5482890000000  0.4848930000000 1.0
C      1  0.4668620000000  0.4350460000000  0.4211120000000 1.0
C      1  0.4808310000000  0.4397850000000  0.5743800000000 1.0
C      1  0.4319510000000  0.5268060000000  0.5278110000000 1.0
C      1  0.4334930000000  0.5242180000000  0.4716360000000 1.0
C      1  0.3896280000000  0.4668690000000  0.4754630000000 1.0
C      1  0.3925970000000  0.4654940000000  0.5306910000000 1.0
C      1  0.4744090000000  0.5184370000000  0.3923370000000 1.0
C      1  0.4760490000000  0.5194180000000  0.6042900000000 1.0
C      1  0.5203920000000  0.4742220000000  0.5924190000000 1.0
C      1  0.5184610000000  0.4707050000000  0.4068890000000 1.0
C      1  0.5608140000000  0.4254510000000  0.5161730000000 1.0
C      1  0.5590040000000  0.4276140000000  0.4866920000000 1.0
C      1  0.4781390000000  0.4739510000000  0.5283150000000 1.0
C      1  0.4760300000000  0.4775580000000  0.4714830000000 1.0
C      1  0.4859160000000  0.4179350000000  0.5580400000000 1.0
C      1  0.4913580000000  0.4300670000000  0.4374950000000 1.0
C      1  0.4694500000000  0.5613190000000  0.5802930000000 1.0
C      1  0.4735380000000  0.5600090000000  0.4193350000000 1.0
C      1  0.5348820000000  0.4196880000000  0.5562320000000 1.0
C      1  0.5385360000000  0.4214770000000  0.4449200000000 1.0
C      1  0.5401640000000  0.4686530000000  0.4637570000000 1.0
C      1  0.5397800000000  0.4645060000000  0.5348360000000 1.0
C      1  0.5668660000000  0.4533570000000  0.4721470000000 1.0
C      1  0.5680090000000  0.4515860000000  0.5301660000000 1.0
C      1  0.4894430000000  0.4814960000000  0.4466170000000 1.0
C      1  0.4939390000000  0.4803120000000  0.5512560000000 1.0
C      1  0.4974290000000  0.5369850000000  0.4398500000000 1.0
C      1  0.4957670000000  0.5405460000000  0.5604150000000 1.0
C      1  0.5808280000000  0.4733540000000  0.4875520000000 1.0
C      1  0.5854300000000  0.4700740000000  0.5150090000000 1.0
C      1  0.4792690000000  0.5028240000000  0.4870010000000 1.0
C      1  0.4765710000000  0.5028410000000  0.5176050000000 1.0
C      1  0.5221330000000  0.4583560000000  0.5114560000000 1.0
C      1  0.5172190000000  0.4719240000000  0.4855100000000 1.0
C      1  0.5370450000000  0.4132860000000  0.5289550000000 1.0
C      1  0.5379580000000  0.4131410000000  0.4717270000000 1.0
C      1  0.5528580000000  0.5347250000000  0.5149600000000 1.0
C      1  0.5474950000000  0.5355740000000  0.4839040000000 1.0
C      1  0.4772470000000  0.5513920000000  0.5366030000000 1.0
C      1  0.4801130000000  0.5490170000000  0.4643130000000 1.0
C      1  0.4926140000000  0.4509740000000  0.5131310000000 1.0
C      1  0.4829660000000  0.4511990000000  0.4836550000000 1.0
C      1  0.4268050000000  0.5748350000000  0.5194960000000 1.0
C      1  0.4310050000000  0.5751050000000  0.4803930000000 1.0
C      1  0.5898030000000  0.4769880000000  0.4411110000000 1.0
C      1  0.5869220000000  0.4780410000000  0.5605360000000 1.0
C      1  0.5688110000000  0.5199760000000  0.4232260000000 1.0
C      1  0.5671570000000  0.5213510000000  0.5732240000000 1.0
C      1  0.4351770000000  0.4377730000000  0.5555620000000 1.0
C      1  0.4259170000000  0.4427360000000  0.4441950000000 1.0
C      1  0.4958200000000  0.4600130000000  0.4268340000000 1.0
C      1  0.5037100000000  0.4592450000000  0.5701410000000 1.0
C      1  0.5443780000000  0.5342390000000  0.4128100000000 1.0
C      1  0.5445320000000  0.5384120000000  0.5817750000000 1.0
C      1  0.3967860000000  0.4937860000000  0.5304640000000 1.0
C      1  0.3973860000000  0.4943570000000  0.4738870000000 1.0
C      1  0.5786020000000  0.5672940000000  0.4871570000000 1.0
C      1  0.5709620000000  0.5598290000000  0.5176620000000 1.0
C      1  0.5090260000000  0.5873330000000  0.4737380000000 1.0
C      1  0.5055030000000  0.5921310000000  0.5258810000000 1.0
C      1  0.4641140000000  0.4007670000000  0.5210290000000 1.0
C      1  0.4639880000000  0.4077900000000  0.4696870000000 1.0
C      1  0.4364440000000  0.5284800000000  0.4229530000000 1.0
C      1  0.4344010000000  0.5262180000000  0.5791200000000 1.0
C      1  0.5838020000000  0.4499170000000  0.4480060000000 1.0
C      1  0.5818140000000  0.4500760000000  0.5562060000000 1.0
C      1  0.5110560000000  0.5020830000000  0.4904170000000 1.0
C      1  0.5139550000000  0.5095460000000  0.5249460000000 1.0
C      1  0.4427920000000  0.4151060000000  0.5116170000000 1.0
C      1  0.4415820000000  0.4168020000000  0.4831960000000 1.0
C      1  0.4665360000000  0.5694250000000  0.4460650000000 1.0
C      1  0.4610360000000  0.5703970000000  0.5540690000000 1.0
C      1  0.4626150000000  0.5346200000000  0.4128920000000 1.0
C      1  0.4606400000000  0.5351280000000  0.5864170000000 1.0
C      1  0.5154160000000  0.5852870000000  0.4463230000000 1.0
C      1  0.5103990000000  0.5927080000000  0.5538730000000 1.0
C      1  0.4941980000000  0.5072800000000  0.5664640000000 1.0
C      1  0.4923210000000  0.5062150000000  0.4298940000000 1.0
C      1  0.4043150000000  0.4469970000000  0.4875340000000 1.0
C      1  0.4070270000000  0.4470220000000  0.5161790000000 1.0
C      1  0.4223200000000  0.5007230000000  0.5172530000000 1.0
C      1  0.4232140000000  0.4995070000000  0.4877480000000 1.0
C      1  0.5342410000000  0.5771720000000  0.5558160000000 1.0
C      1  0.5382680000000  0.5688400000000  0.4460970000000 1.0
C      1  0.5656480000000  0.4901550000000  0.5758200000000 1.0
C      1  0.5710230000000  0.4884590000000  0.4212510000000 1.0
C      1  0.5311930000000  0.4481850000000  0.5588970000000 1.0
C      1  0.5348200000000  0.4494370000000  0.4413740000000 1.0
C      1  0.6082210000000  0.5280560000000  0.4874320000000 1.0
C      1  0.6085520000000  0.5287240000000  0.5166230000000 1.0
C      1  0.5348130000000  0.5881790000000  0.4866800000000 1.0
C      1  0.5331850000000  0.5946750000000  0.5149670000000 1.0
C      1  0.4875930000000  0.4242820000000  0.4676310000000 1.0
C      1  0.4873730000000  0.4109250000000  0.5312360000000 1.0
C      1  0.5845860000000  0.5383590000000  0.4428920000000 1.0
C      1  0.5861030000000  0.5356160000000  0.5574860000000 1.0
C      1  0.5110380000000  0.4158220000000  0.5139430000000 1.0
C      1  0.5109800000000  0.4109170000000  0.4837020000000 1.0
C      1  0.5537020000000  0.5821180000000  0.5326830000000 1.0
C      1  0.5512770000000  0.5666970000000  0.4736980000000 1.0
C      1  0.4065280000000  0.5015390000000  0.4468830000000 1.0
C      1  0.4026420000000  0.5039080000000  0.5578770000000 1.0
C      1  0.4499540000000  0.4797100000000  0.5817840000000 1.0
C      1  0.4458150000000  0.4813870000000  0.4173050000000 1.0
C      1  0.5890410000000  0.4925850000000  0.5339630000000 1.0
C      1  0.5909010000000  0.4922540000000  0.4674820000000 1.0
C      1  0.5020110000000  0.5298560000000  0.6081640000000 1.0
C      1  0.5013900000000  0.5255050000000  0.3870330000000 1.0
C      1  0.6165400000000  0.5047140000000  0.4743230000000 1.0
C      1  0.6153120000000  0.5055020000000  0.5305510000000 1.0
C      1  0.5271080000000  0.5216070000000  0.5986350000000 1.0
C      1  0.5263660000000  0.5167750000000  0.3969830000000 1.0
C      1  0.4317930000000  0.5691080000000  0.5488450000000 1.0
C      1  0.4372470000000  0.5711680000000  0.4512260000000 1.0
C      1  0.4203780000000  0.5384630000000  0.5558290000000 1.0
C      1  0.4248920000000  0.5465020000000  0.4412470000000 1.0
C      1  0.4910410000000  0.5685020000000  0.5149290000000 1.0
C      1  0.4942540000000  0.5652220000000  0.4856820000000 1.0
C      1  0.5268600000000  0.5483610000000  0.5575590000000 1.0
C      1  0.5287180000000  0.5428370000000  0.4374250000000 1.0
C      1  0.3761900000000  0.5070220000000  0.5146060000000 1.0
C      1  0.3768170000000  0.5102360000000  0.4873770000000 1.0
C      1  0.4277640000000  0.4323250000000  0.5289880000000 1.0
C      1  0.4239450000000  0.4352890000000  0.4709300000000 1.0
END
