TITL C-3578206-1180-295 1.23309270676911e-07 125000 -174.829114111795 0 0 30 (C1) n - 1
REM
REM in /home/bkarasulu/work/CARBON/AIRSS/Generating-Clusters/EDIP-Nigel-Params/with-SteepDescent/Higher-Symm/SD-CG/HFTN-CG
REM
REM
REM
REM
REM
REM ./C.cell (12c818d87b63d06a65506943cc24bca4)
REM
REM compiler GCC version 9.2.1 20190827 (Red Hat 9.2.1-1)
REM options -cpp -mtune=generic -march=x86-64 -g -O0 -fpre-include=/usr/include/finclude/math-vector-fortran.h
REM seed 1536874591 -1197541251 -1935241798 -1496421677 2030359457 -13922838 -101030247 -2040128893 -720298100 -994460329 -275121232 -449976018 -905038944 -1444623570 357264320 -896695138 874188691 590321542 -1328904607 -2104458364 -821956017 1092286196 335924410 -445947440 508334047 -1379420646 -1942829225 762601974 181846544 -5447257 167271632 -246447534 -643175726
REM
CELL 1.54180   50.00000   50.00000   50.00000   90.00000   90.00000   90.00000
LATT -1
SFAC C  
C      1  0.5538860000000  0.4831530000000  0.5145510000000 1.0
C      1  0.5006370000000  0.5462620000000  0.5352460000000 1.0
C      1  0.4839540000000  0.4843330000000  0.4432200000000 1.0
C      1  0.5323800000000  0.4726040000000  0.4999670000000 1.0
C      1  0.4568340000000  0.4900590000000  0.5343800000000 1.0
C      1  0.4719090000000  0.4625160000000  0.4954910000000 1.0
C      1  0.5172580000000  0.4488260000000  0.5089840000000 1.0
C      1  0.4938590000000  0.4389400000000  0.4934320000000 1.0
C      1  0.4577210000000  0.5143260000000  0.4832410000000 1.0
C      1  0.5020710000000  0.4513120000000  0.4516480000000 1.0
C      1  0.5009540000000  0.5565190000000  0.4920800000000 1.0
C      1  0.4579530000000  0.4897810000000  0.4518780000000 1.0
C      1  0.5075010000000  0.5019410000000  0.5338030000000 1.0
C      1  0.4924580000000  0.5276420000000  0.4920590000000 1.0
C      1  0.5628600000000  0.5057940000000  0.5260750000000 1.0
C      1  0.5181470000000  0.5172670000000  0.4798510000000 1.0
C      1  0.5271890000000  0.5344930000000  0.5412970000000 1.0
C      1  0.5203370000000  0.4879270000000  0.4779920000000 1.0
C      1  0.4737760000000  0.4700730000000  0.5245220000000 1.0
C      1  0.4997550000000  0.4291820000000  0.4676100000000 1.0
C      1  0.4598210000000  0.5167000000000  0.5273500000000 1.0
C      1  0.5014430000000  0.4739820000000  0.5317860000000 1.0
C      1  0.5489450000000  0.5297850000000  0.5225570000000 1.0
C      1  0.4546990000000  0.4844180000000  0.4797990000000 1.0
C      1  0.4999040000000  0.5682850000000  0.5177330000000 1.0
C      1  0.5470070000000  0.5377920000000  0.4949110000000 1.0
C      1  0.5282240000000  0.5553360000000  0.4828670000000 1.0
C      1  0.4889620000000  0.5220820000000  0.5221470000000 1.0
C      1  0.4962070000000  0.4744960000000  0.4676000000000 1.0
C      1  0.4433480000000  0.5241740000000  0.5059200000000 1.0
END
