TITL C-3578203-1966-110 1.17729374650777e-07 125000 -43.3225458159813 0 0 8 (D8h) n - 1
REM
REM in /home/bkarasulu/work/CARBON/AIRSS/Generating-Clusters/EDIP-Nigel-Params/with-SteepDescent/Higher-Symm/SD-CG/HFTN-CG
REM
REM
REM
REM
REM
REM ./C.cell (12c818d87b63d06a65506943cc24bca4)
REM
REM compiler GCC version 9.2.1 20190827 (Red Hat 9.2.1-1)
REM options -cpp -mtune=generic -march=x86-64 -g -O0 -fpre-include=/usr/include/finclude/math-vector-fortran.h
REM seed -903799960 -197776758 -53246412 -1894628694 691645599 1803967795 -1280282493 -2012742291 1501804527 -867630199 -516331754 -1128047709 1914184074 2014938212 429093028 280472164 -769938935 -522936805 2144896765 -1901394644 -1444125016 -206015664 -1531592021 -1059281618 -1296876735 1875864358 -828047767 -1813615787 -1557689326 -498167440 740533715 -1735425596 -435751276
REM
CELL 1.54180   50.00000   50.00000   50.00000   90.00000   90.00000   90.00000
LATT -1
SFAC C  
C      1  0.5322060000000  0.5133400000000  0.5000000000000 1.0
C      1  0.5133400000000  0.4677940000000  0.5000000000000 1.0
C      1  0.4677940000000  0.4866600000000  0.5000000000000 1.0
C      1  0.4866600000000  0.5322060000000  0.5000000000000 1.0
C      1  0.4677940000000  0.5133400000000  0.5000000000000 1.0
C      1  0.4866600000000  0.4677940000000  0.5000000000000 1.0
C      1  0.5322060000000  0.4866600000000  0.5000000000000 1.0
C      1  0.5133400000000  0.5322060000000  0.5000000000000 1.0
END
