TITL C-3578204-4308-199 -7.27698874956498e-07 125000 -1046.92649575241 0 0 166 (C1) n - 1
REM
REM in /home/bkarasulu/work/CARBON/AIRSS/Generating-Clusters/EDIP-Nigel-Params/with-SteepDescent/Higher-Symm/SD-CG/HFTN-CG
REM
REM
REM
REM
REM
REM ./C.cell (12c818d87b63d06a65506943cc24bca4)
REM
REM compiler GCC version 9.2.1 20190827 (Red Hat 9.2.1-1)
REM options -cpp -mtune=generic -march=x86-64 -g -O0 -fpre-include=/usr/include/finclude/math-vector-fortran.h
REM seed 775593844 1411286958 1137336878 -752323011 299837157 -1977248474 -1742653239 816903672 -286719847 -34534550 1133399895 -960975995 1196606400 1424916331 1406062270 -1462148777 -1408590803 -1627496886 -1515379035 2064363653 -380468780 1318004019 -674026490 618187396 -1534856600 936645859 1009609465 1273988467 1046896430 703761783 -986257604 964206454 169822571
REM
CELL 1.54180   50.00000   50.00000   50.00000   90.00000   90.00000   90.00000
LATT -1
SFAC C  
C      1  0.3789980000000  0.5160660000000  0.5094900000000 1.0
C      1  0.6345900000000  0.5283020000000  0.4813550000000 1.0
C      1  0.3739770000000  0.4863950000000  0.5066960000000 1.0
C      1  0.6338970000000  0.4728770000000  0.4822430000000 1.0
C      1  0.5581820000000  0.4033220000000  0.5291730000000 1.0
C      1  0.4459600000000  0.4051630000000  0.4725660000000 1.0
C      1  0.5573680000000  0.5982250000000  0.5290260000000 1.0
C      1  0.4439340000000  0.5973490000000  0.4722020000000 1.0
C      1  0.5761480000000  0.5159660000000  0.5588660000000 1.0
C      1  0.4348150000000  0.5162760000000  0.4496780000000 1.0
C      1  0.5768640000000  0.4868410000000  0.5616080000000 1.0
C      1  0.4369520000000  0.4859420000000  0.4443180000000 1.0
C      1  0.3935870000000  0.5594350000000  0.4842520000000 1.0
C      1  0.6112130000000  0.5618130000000  0.5117480000000 1.0
C      1  0.4021540000000  0.4478180000000  0.4841740000000 1.0
C      1  0.6098370000000  0.4401470000000  0.5128160000000 1.0
C      1  0.3925060000000  0.5172020000000  0.4611480000000 1.0
C      1  0.6116870000000  0.5153060000000  0.5243720000000 1.0
C      1  0.3928320000000  0.4879240000000  0.4608680000000 1.0
C      1  0.6110440000000  0.4861940000000  0.5251340000000 1.0
C      1  0.5700970000000  0.4256860000000  0.5450110000000 1.0
C      1  0.4324730000000  0.4231880000000  0.4519470000000 1.0
C      1  0.5711120000000  0.5760470000000  0.5440610000000 1.0
C      1  0.4300910000000  0.5786660000000  0.4537790000000 1.0
C      1  0.4591370000000  0.5779700000000  0.5122330000000 1.0
C      1  0.5347990000000  0.5891830000000  0.4825550000000 1.0
C      1  0.4598900000000  0.4215250000000  0.5113860000000 1.0
C      1  0.5372650000000  0.4149680000000  0.4855650000000 1.0
C      1  0.4899360000000  0.3954980000000  0.4979260000000 1.0
C      1  0.5188610000000  0.3974830000000  0.5024870000000 1.0
C      1  0.4875780000000  0.6054010000000  0.4976980000000 1.0
C      1  0.5168850000000  0.6049270000000  0.5016570000000 1.0
C      1  0.5074290000000  0.4761010000000  0.3874130000000 1.0
C      1  0.4925590000000  0.4750870000000  0.6135000000000 1.0
C      1  0.5031070000000  0.5281010000000  0.3941620000000 1.0
C      1  0.4973330000000  0.5267320000000  0.6101440000000 1.0
C      1  0.5494130000000  0.5580440000000  0.5534020000000 1.0
C      1  0.4494970000000  0.5584530000000  0.4448100000000 1.0
C      1  0.5473500000000  0.4409270000000  0.5563260000000 1.0
C      1  0.4512920000000  0.4440690000000  0.4429790000000 1.0
C      1  0.4789460000000  0.5129700000000  0.3985890000000 1.0
C      1  0.5229340000000  0.5121140000000  0.6061450000000 1.0
C      1  0.4812470000000  0.4845520000000  0.3926670000000 1.0
C      1  0.5182380000000  0.4831830000000  0.6050330000000 1.0
C      1  0.5126980000000  0.4690510000000  0.5293190000000 1.0
C      1  0.4825280000000  0.4703390000000  0.4732190000000 1.0
C      1  0.5140940000000  0.5306610000000  0.5277050000000 1.0
C      1  0.4836250000000  0.5295430000000  0.4740830000000 1.0
C      1  0.6139440000000  0.4861410000000  0.4675180000000 1.0
C      1  0.3892760000000  0.4877220000000  0.5417480000000 1.0
C      1  0.6141620000000  0.5151130000000  0.4671280000000 1.0
C      1  0.3981370000000  0.5134520000000  0.5315080000000 1.0
C      1  0.4916080000000  0.5498100000000  0.5224230000000 1.0
C      1  0.5035450000000  0.5517050000000  0.4788000000000 1.0
C      1  0.4905560000000  0.4507260000000  0.5228830000000 1.0
C      1  0.5054390000000  0.4502560000000  0.4777080000000 1.0
C      1  0.4302260000000  0.5288810000000  0.5643540000000 1.0
C      1  0.5680760000000  0.5264190000000  0.4448810000000 1.0
C      1  0.4306860000000  0.4735050000000  0.5661120000000 1.0
C      1  0.5677650000000  0.4741800000000  0.4436660000000 1.0
C      1  0.5273040000000  0.5996940000000  0.5288560000000 1.0
C      1  0.4733440000000  0.5955620000000  0.4741680000000 1.0
C      1  0.5284360000000  0.3999930000000  0.5299400000000 1.0
C      1  0.4756350000000  0.4041150000000  0.4739540000000 1.0
C      1  0.5895180000000  0.4718240000000  0.4627260000000 1.0
C      1  0.4065290000000  0.4677860000000  0.5514490000000 1.0
C      1  0.5893600000000  0.5292770000000  0.4642450000000 1.0
C      1  0.4074900000000  0.5359910000000  0.5461330000000 1.0
C      1  0.4916000000000  0.4140680000000  0.4518310000000 1.0
C      1  0.5116370000000  0.4157540000000  0.5488950000000 1.0
C      1  0.4895320000000  0.5858770000000  0.4512010000000 1.0
C      1  0.5096030000000  0.5865680000000  0.5496630000000 1.0
C      1  0.5165930000000  0.4283340000000  0.4591980000000 1.0
C      1  0.4834000000000  0.4286760000000  0.5417280000000 1.0
C      1  0.5150230000000  0.5720370000000  0.4600970000000 1.0
C      1  0.4828470000000  0.5717430000000  0.5418030000000 1.0
C      1  0.4178210000000  0.4174330000000  0.5254150000000 1.0
C      1  0.5861020000000  0.4158540000000  0.4752170000000 1.0
C      1  0.4118480000000  0.5842700000000  0.5251960000000 1.0
C      1  0.5841760000000  0.5841910000000  0.4761440000000 1.0
C      1  0.5706040000000  0.6138030000000  0.5095980000000 1.0
C      1  0.4299510000000  0.6122430000000  0.4915600000000 1.0
C      1  0.5723120000000  0.3879730000000  0.5101840000000 1.0
C      1  0.4313060000000  0.3887500000000  0.4905540000000 1.0
C      1  0.5359580000000  0.4640930000000  0.5924840000000 1.0
C      1  0.4645130000000  0.4667940000000  0.4079080000000 1.0
C      1  0.5324460000000  0.5276840000000  0.5833850000000 1.0
C      1  0.4605510000000  0.5350370000000  0.4043800000000 1.0
C      1  0.4757940000000  0.5158400000000  0.5931760000000 1.0
C      1  0.5240270000000  0.5160900000000  0.4102920000000 1.0
C      1  0.4756030000000  0.4861780000000  0.5934500000000 1.0
C      1  0.5228270000000  0.4865090000000  0.4088330000000 1.0
C      1  0.4733690000000  0.5703260000000  0.4321530000000 1.0
C      1  0.5265650000000  0.5712620000000  0.5683270000000 1.0
C      1  0.4779280000000  0.4204830000000  0.4274770000000 1.0
C      1  0.5230650000000  0.4168480000000  0.5750200000000 1.0
C      1  0.6224860000000  0.5352050000000  0.5058030000000 1.0
C      1  0.3876820000000  0.5308900000000  0.4858250000000 1.0
C      1  0.6214190000000  0.4663340000000  0.5065780000000 1.0
C      1  0.3885330000000  0.4735550000000  0.4854500000000 1.0
C      1  0.5300830000000  0.4669930000000  0.4849260000000 1.0
C      1  0.4536280000000  0.4735280000000  0.5166220000000 1.0
C      1  0.5383760000000  0.5253110000000  0.4851000000000 1.0
C      1  0.4555260000000  0.5250820000000  0.5174920000000 1.0
C      1  0.5030250000000  0.4855920000000  0.5520760000000 1.0
C      1  0.4939490000000  0.4855380000000  0.4499330000000 1.0
C      1  0.5039060000000  0.5152140000000  0.5519760000000 1.0
C      1  0.4947510000000  0.5146170000000  0.4507730000000 1.0
C      1  0.6067240000000  0.5817160000000  0.4926560000000 1.0
C      1  0.3937740000000  0.5787130000000  0.5045720000000 1.0
C      1  0.6067770000000  0.4198970000000  0.4937610000000 1.0
C      1  0.4052730000000  0.4279070000000  0.5027590000000 1.0
C      1  0.5576680000000  0.5344920000000  0.5708190000000 1.0
C      1  0.4379230000000  0.5375140000000  0.4251560000000 1.0
C      1  0.5597830000000  0.4703220000000  0.5777450000000 1.0
C      1  0.4390630000000  0.4757430000000  0.4174730000000 1.0
C      1  0.4387570000000  0.3995000000000  0.5157810000000 1.0
C      1  0.5643720000000  0.3990700000000  0.4853820000000 1.0
C      1  0.4358490000000  0.5985860000000  0.5156190000000 1.0
C      1  0.5631230000000  0.6018270000000  0.4851230000000 1.0
C      1  0.4550810000000  0.5403740000000  0.4707340000000 1.0
C      1  0.5391020000000  0.5471110000000  0.5268790000000 1.0
C      1  0.4568550000000  0.4560680000000  0.4702410000000 1.0
C      1  0.5371520000000  0.4521110000000  0.5303130000000 1.0
C      1  0.4096140000000  0.4426460000000  0.4569150000000 1.0
C      1  0.5912220000000  0.4442830000000  0.5349510000000 1.0
C      1  0.4040450000000  0.5641280000000  0.4572340000000 1.0
C      1  0.5922930000000  0.5576730000000  0.5334120000000 1.0
C      1  0.4422280000000  0.4446450000000  0.5648570000000 1.0
C      1  0.5585470000000  0.4453410000000  0.4415940000000 1.0
C      1  0.4417160000000  0.5576030000000  0.5638230000000 1.0
C      1  0.5581350000000  0.5552290000000  0.4430790000000 1.0
C      1  0.4433820000000  0.4479720000000  0.4997610000000 1.0
C      1  0.5456040000000  0.4447560000000  0.5000420000000 1.0
C      1  0.4461620000000  0.5496870000000  0.5020730000000 1.0
C      1  0.5445470000000  0.5534100000000  0.4950110000000 1.0
C      1  0.4098120000000  0.4704300000000  0.4428470000000 1.0
C      1  0.5940070000000  0.4722550000000  0.5436330000000 1.0
C      1  0.4031590000000  0.5375830000000  0.4421300000000 1.0
C      1  0.5946830000000  0.5297920000000  0.5420020000000 1.0
C      1  0.5268050000000  0.4378720000000  0.5923250000000 1.0
C      1  0.4679880000000  0.4385480000000  0.4080670000000 1.0
C      1  0.5148000000000  0.5507280000000  0.5854910000000 1.0
C      1  0.4808150000000  0.5562930000000  0.4077670000000 1.0
C      1  0.5702840000000  0.4402170000000  0.4707130000000 1.0
C      1  0.4303350000000  0.4417980000000  0.5361800000000 1.0
C      1  0.5682240000000  0.5594920000000  0.4729970000000 1.0
C      1  0.4253170000000  0.5594150000000  0.5335450000000 1.0
C      1  0.4711230000000  0.5562510000000  0.5644480000000 1.0
C      1  0.5286770000000  0.5556890000000  0.4390880000000 1.0
C      1  0.4719910000000  0.4447030000000  0.5650160000000 1.0
C      1  0.5289660000000  0.4445770000000  0.4374730000000 1.0
C      1  0.5208520000000  0.5258140000000  0.4387600000000 1.0
C      1  0.4775660000000  0.5261130000000  0.5644510000000 1.0
C      1  0.5198270000000  0.4745710000000  0.4366590000000 1.0
C      1  0.4775690000000  0.4751030000000  0.5649560000000 1.0
C      1  0.5209940000000  0.5131150000000  0.5043970000000 1.0
C      1  0.4769780000000  0.5141010000000  0.5002930000000 1.0
C      1  0.5195620000000  0.4847310000000  0.5055980000000 1.0
C      1  0.4755710000000  0.4850880000000  0.4993580000000 1.0
C      1  0.4530050000000  0.4847550000000  0.5479190000000 1.0
C      1  0.5420260000000  0.4842340000000  0.4558600000000 1.0
C      1  0.4531910000000  0.5157930000000  0.5478000000000 1.0
C      1  0.5427500000000  0.5147830000000  0.4568460000000 1.0
C      1  0.4948400000000  0.5671380000000  0.5002180000000 1.0
C      1  0.4951510000000  0.4340900000000  0.4999450000000 1.0
END
