TITL C-3578207-9274-825 -2.21949194134727e-06 125000 -1244.14897139623 0 0 195 (C1) n - 1
REM
REM in /home/bkarasulu/work/CARBON/AIRSS/Generating-Clusters/EDIP-Nigel-Params/with-SteepDescent/Higher-Symm/SD-CG/HFTN-CG
REM
REM
REM
REM
REM
REM ./C.cell (12c818d87b63d06a65506943cc24bca4)
REM
REM compiler GCC version 9.2.1 20190827 (Red Hat 9.2.1-1)
REM options -cpp -mtune=generic -march=x86-64 -g -O0 -fpre-include=/usr/include/finclude/math-vector-fortran.h
REM seed -1395914047 -439184368 -1103817328 1778187387 771173475 1403077714 -972554777 296885414 -1186999535 2093292670 956404663 -503436017 -1164660355 -1107344144 786098317 -446456912 -792955656 393800867 262120155 1209694706 -75582927 -1640118323 -1887416486 2104039092 -1632732725 913741486 2016074571 75066450 -787935039 76494649 622941678 -763567328 49616988
REM
CELL 1.54180   50.00000   50.00000   50.00000   90.00000   90.00000   90.00000
LATT -1
SFAC C  
C      1  0.5269180000000  0.5362740000000  0.4164340000000 1.0
C      1  0.5415930000000  0.4880410000000  0.4201900000000 1.0
C      1  0.5009270000000  0.4584530000000  0.4220760000000 1.0
C      1  0.4599280000000  0.4888810000000  0.4215050000000 1.0
C      1  0.4751630000000  0.5368480000000  0.4189250000000 1.0
C      1  0.5688870000000  0.5812810000000  0.4903310000000 1.0
C      1  0.5989420000000  0.4591730000000  0.4912130000000 1.0
C      1  0.4915220000000  0.3888250000000  0.4893920000000 1.0
C      1  0.3869980000000  0.4724370000000  0.4881890000000 1.0
C      1  0.4411520000000  0.5946540000000  0.4895520000000 1.0
C      1  0.4552910000000  0.4530340000000  0.5285080000000 1.0
C      1  0.4412860000000  0.5274800000000  0.5274330000000 1.0
C      1  0.5083620000000  0.5646780000000  0.5264690000000 1.0
C      1  0.5646790000000  0.5114030000000  0.5272920000000 1.0
C      1  0.5311380000000  0.4408260000000  0.5279400000000 1.0
C      1  0.4884530000000  0.4242900000000  0.4531780000000 1.0
C      1  0.4246440000000  0.4914800000000  0.4546430000000 1.0
C      1  0.4697400000000  0.5649430000000  0.4547100000000 1.0
C      1  0.5540380000000  0.5516690000000  0.4526100000000 1.0
C      1  0.5647640000000  0.4656040000000  0.4547320000000 1.0
C      1  0.5188580000000  0.4296010000000  0.4541340000000 1.0
C      1  0.4396300000000  0.4638330000000  0.4552570000000 1.0
C      1  0.4448850000000  0.5445210000000  0.4537050000000 1.0
C      1  0.5270930000000  0.5674360000000  0.4518420000000 1.0
C      1  0.5718790000000  0.4960620000000  0.4540880000000 1.0
C      1  0.4873520000000  0.5207430000000  0.6118130000000 1.0
C      1  0.5158070000000  0.5190750000000  0.6117400000000 1.0
C      1  0.5228680000000  0.4914780000000  0.6117630000000 1.0
C      1  0.4988100000000  0.4761810000000  0.6116330000000 1.0
C      1  0.4767070000000  0.4941780000000  0.6124210000000 1.0
C      1  0.4513450000000  0.4597590000000  0.4267020000000 1.0
C      1  0.4447000000000  0.5357160000000  0.4240100000000 1.0
C      1  0.5173030000000  0.5651390000000  0.4219460000000 1.0
C      1  0.5668950000000  0.5050730000000  0.4241590000000 1.0
C      1  0.5256050000000  0.4399600000000  0.4255010000000 1.0
C      1  0.5673850000000  0.5010500000000  0.5889290000000 1.0
C      1  0.5210420000000  0.4372440000000  0.5879510000000 1.0
C      1  0.4458130000000  0.4597880000000  0.5891750000000 1.0
C      1  0.4464840000000  0.5389170000000  0.5873120000000 1.0
C      1  0.5206430000000  0.5641650000000  0.5882280000000 1.0
C      1  0.3972970000000  0.4451350000000  0.4791540000000 1.0
C      1  0.4175660000000  0.5788480000000  0.4801930000000 1.0
C      1  0.5495370000000  0.6010440000000  0.4800040000000 1.0
C      1  0.6113430000000  0.4837920000000  0.4808750000000 1.0
C      1  0.5197470000000  0.3855820000000  0.4793320000000 1.0
C      1  0.5159190000000  0.5212370000000  0.3917570000000 1.0
C      1  0.5247870000000  0.4922310000000  0.3941780000000 1.0
C      1  0.5001330000000  0.4752850000000  0.3963770000000 1.0
C      1  0.4762990000000  0.4932370000000  0.3960950000000 1.0
C      1  0.4855990000000  0.5215900000000  0.3938210000000 1.0
C      1  0.4475630000000  0.4988660000000  0.5256870000000 1.0
C      1  0.4832890000000  0.5482290000000  0.5234290000000 1.0
C      1  0.5412050000000  0.5300220000000  0.5259390000000 1.0
C      1  0.5424450000000  0.4685520000000  0.5264550000000 1.0
C      1  0.4842690000000  0.4484150000000  0.5241910000000 1.0
C      1  0.5402630000000  0.5821910000000  0.4111760000000 1.0
C      1  0.5888450000000  0.4870690000000  0.4124230000000 1.0
C      1  0.5170900000000  0.4139900000000  0.4112540000000 1.0
C      1  0.4244610000000  0.4574080000000  0.4128000000000 1.0
C      1  0.4345810000000  0.5619150000000  0.4127480000000 1.0
C      1  0.4516590000000  0.4881020000000  0.5988370000000 1.0
C      1  0.4738510000000  0.5432710000000  0.5992440000000 1.0
C      1  0.5332550000000  0.5391080000000  0.5997720000000 1.0
C      1  0.5471780000000  0.4811400000000  0.5996550000000 1.0
C      1  0.4963150000000  0.4501440000000  0.5989780000000 1.0
C      1  0.5248020000000  0.4942310000000  0.4437170000000 1.0
C      1  0.5004030000000  0.4773660000000  0.4460350000000 1.0
C      1  0.4774670000000  0.4972010000000  0.4451650000000 1.0
C      1  0.4883930000000  0.5243650000000  0.4436460000000 1.0
C      1  0.5164670000000  0.5211310000000  0.4386070000000 1.0
C      1  0.4321900000000  0.4164410000000  0.4599890000000 1.0
C      1  0.3982400000000  0.5389390000000  0.4610470000000 1.0
C      1  0.5068860000000  0.6096570000000  0.4593460000000 1.0
C      1  0.6081120000000  0.5259630000000  0.4581390000000 1.0
C      1  0.5588520000000  0.4052130000000  0.4582180000000 1.0
C      1  0.4310440000000  0.4193080000000  0.5078680000000 1.0
C      1  0.3986800000000  0.5407830000000  0.5093220000000 1.0
C      1  0.5079690000000  0.6092820000000  0.5080370000000 1.0
C      1  0.6064530000000  0.5264350000000  0.5074080000000 1.0
C      1  0.5571850000000  0.4069280000000  0.5076820000000 1.0
C      1  0.5731510000000  0.5561310000000  0.4754590000000 1.0
C      1  0.5760340000000  0.4477210000000  0.4764050000000 1.0
C      1  0.4779290000000  0.4143130000000  0.4804300000000 1.0
C      1  0.4084240000000  0.4942850000000  0.4836790000000 1.0
C      1  0.4682350000000  0.5840020000000  0.4810800000000 1.0
C      1  0.4159510000000  0.4421520000000  0.5501570000000 1.0
C      1  0.4185950000000  0.5610640000000  0.5505080000000 1.0
C      1  0.5328960000000  0.5973740000000  0.5500290000000 1.0
C      1  0.6033450000000  0.4992200000000  0.5506170000000 1.0
C      1  0.5300850000000  0.4010900000000  0.5509270000000 1.0
C      1  0.5213280000000  0.5628760000000  0.4990330000000 1.0
C      1  0.5654090000000  0.4988170000000  0.4998670000000 1.0
C      1  0.5214340000000  0.4326260000000  0.5007130000000 1.0
C      1  0.4435260000000  0.4616060000000  0.5018710000000 1.0
C      1  0.4453430000000  0.5376780000000  0.4990320000000 1.0
C      1  0.5709570000000  0.5843420000000  0.5190520000000 1.0
C      1  0.6021800000000  0.4585910000000  0.5199890000000 1.0
C      1  0.4923830000000  0.3875270000000  0.5187240000000 1.0
C      1  0.3822330000000  0.4702750000000  0.5182910000000 1.0
C      1  0.4395470000000  0.5956370000000  0.5188060000000 1.0
C      1  0.5622410000000  0.5643590000000  0.4071660000000 1.0
C      1  0.5773260000000  0.4612550000000  0.4082120000000 1.0
C      1  0.4890610000000  0.4166560000000  0.4062090000000 1.0
C      1  0.4160600000000  0.4837570000000  0.4065500000000 1.0
C      1  0.4572020000000  0.5784810000000  0.4087440000000 1.0
C      1  0.4071290000000  0.4423630000000  0.4292650000000 1.0
C      1  0.4146140000000  0.5718740000000  0.4299230000000 1.0
C      1  0.5443510000000  0.6040310000000  0.4288380000000 1.0
C      1  0.6111700000000  0.4877440000000  0.4298040000000 1.0
C      1  0.5248290000000  0.3919520000000  0.4274710000000 1.0
C      1  0.5266280000000  0.5496770000000  0.5467050000000 1.0
C      1  0.5564090000000  0.4900140000000  0.5474820000000 1.0
C      1  0.5065620000000  0.4444670000000  0.5467240000000 1.0
C      1  0.4518570000000  0.4778140000000  0.5489060000000 1.0
C      1  0.4633160000000  0.5395680000000  0.5461320000000 1.0
C      1  0.5523260000000  0.6051830000000  0.5285720000000 1.0
C      1  0.6162790000000  0.4829470000000  0.5291220000000 1.0
C      1  0.5197820000000  0.3833350000000  0.5287510000000 1.0
C      1  0.3950970000000  0.4447610000000  0.5281150000000 1.0
C      1  0.4156030000000  0.5818530000000  0.5290230000000 1.0
C      1  0.4817960000000  0.5213910000000  0.5678260000000 1.0
C      1  0.5142430000000  0.5263560000000  0.5680400000000 1.0
C      1  0.5292510000000  0.4964920000000  0.5683290000000 1.0
C      1  0.5049090000000  0.4731780000000  0.5679320000000 1.0
C      1  0.4763510000000  0.4894670000000  0.5685560000000 1.0
C      1  0.5487490000000  0.4744140000000  0.4979810000000 1.0
C      1  0.4924630000000  0.4367770000000  0.4970630000000 1.0
C      1  0.4287090000000  0.4864250000000  0.5059980000000 1.0
C      1  0.4698320000000  0.5536200000000  0.4972810000000 1.0
C      1  0.5390970000000  0.5392140000000  0.4975000000000 1.0
C      1  0.4022700000000  0.5700540000000  0.5048470000000 1.0
C      1  0.5371410000000  0.6145190000000  0.5039850000000 1.0
C      1  0.6203480000000  0.5000950000000  0.5044140000000 1.0
C      1  0.5375120000000  0.3846470000000  0.5042510000000 1.0
C      1  0.4033400000000  0.4292710000000  0.5040010000000 1.0
C      1  0.5905700000000  0.5726370000000  0.5347400000000 1.0
C      1  0.5971110000000  0.4362810000000  0.5356650000000 1.0
C      1  0.4696090000000  0.3886060000000  0.5346640000000 1.0
C      1  0.3843080000000  0.4933880000000  0.5342910000000 1.0
C      1  0.4586340000000  0.6082260000000  0.5346280000000 1.0
C      1  0.5404940000000  0.5706480000000  0.5650900000000 1.0
C      1  0.5804190000000  0.4838510000000  0.5662670000000 1.0
C      1  0.5083700000000  0.4195510000000  0.5655150000000 1.0
C      1  0.4267600000000  0.4673360000000  0.5658110000000 1.0
C      1  0.4469910000000  0.5594040000000  0.5641740000000 1.0
C      1  0.4396570000000  0.4282730000000  0.5359040000000 1.0
C      1  0.4126660000000  0.5345330000000  0.5356400000000 1.0
C      1  0.5062200000000  0.5940650000000  0.5344970000000 1.0
C      1  0.5918490000000  0.5232190000000  0.5345860000000 1.0
C      1  0.5505390000000  0.4189980000000  0.5359200000000 1.0
C      1  0.4904930000000  0.4608320000000  0.4773370000000 1.0
C      1  0.4643820000000  0.4992700000000  0.4717360000000 1.0
C      1  0.4930660000000  0.5330670000000  0.4739690000000 1.0
C      1  0.5203250000000  0.5159010000000  0.4818500000000 1.0
C      1  0.5196570000000  0.4827220000000  0.4850800000000 1.0
C      1  0.5658360000000  0.5513960000000  0.5688030000000 1.0
C      1  0.5693920000000  0.4534390000000  0.5694710000000 1.0
C      1  0.4768690000000  0.4192290000000  0.5698390000000 1.0
C      1  0.4168540000000  0.4967680000000  0.5690520000000 1.0
C      1  0.4719210000000  0.5782710000000  0.5686870000000 1.0
C      1  0.4800630000000  0.5981810000000  0.5490820000000 1.0
C      1  0.5873780000000  0.5493030000000  0.5492970000000 1.0
C      1  0.5740610000000  0.4319040000000  0.5503970000000 1.0
C      1  0.4582600000000  0.4087360000000  0.5500220000000 1.0
C      1  0.4004320000000  0.5104340000000  0.5493960000000 1.0
C      1  0.4922400000000  0.4760400000000  0.5186320000000 1.0
C      1  0.4753550000000  0.4987090000000  0.5144200000000 1.0
C      1  0.4933240000000  0.5212220000000  0.5165080000000 1.0
C      1  0.5181430000000  0.5117060000000  0.5255590000000 1.0
C      1  0.5168690000000  0.4840430000000  0.5287510000000 1.0
C      1  0.4379520000000  0.5104940000000  0.5840670000000 1.0
C      1  0.4913840000000  0.5617600000000  0.5831920000000 1.0
C      1  0.5560870000000  0.5281280000000  0.5836550000000 1.0
C      1  0.5443540000000  0.4554500000000  0.5843230000000 1.0
C      1  0.4705430000000  0.4434070000000  0.5851510000000 1.0
C      1  0.4793590000000  0.4361780000000  0.4260640000000 1.0
C      1  0.4313880000000  0.5013840000000  0.4242430000000 1.0
C      1  0.4793500000000  0.5671830000000  0.4239710000000 1.0
C      1  0.5571240000000  0.5403940000000  0.4236270000000 1.0
C      1  0.5539610000000  0.4601400000000  0.4261400000000 1.0
C      1  0.5055510000000  0.5615920000000  0.4734580000000 1.0
C      1  0.5582680000000  0.5151460000000  0.4763620000000 1.0
C      1  0.5323040000000  0.4472010000000  0.4776320000000 1.0
C      1  0.4602270000000  0.4698720000000  0.4780680000000 1.0
C      1  0.4427020000000  0.5203850000000  0.4737890000000 1.0
C      1  0.3998900000000  0.5239730000000  0.4848360000000 1.0
C      1  0.4930930000000  0.6026240000000  0.4829540000000 1.0
C      1  0.5960360000000  0.5372930000000  0.4808610000000 1.0
C      1  0.5663270000000  0.4194950000000  0.4812540000000 1.0
C      1  0.4473060000000  0.4148750000000  0.4832480000000 1.0
C      1  0.4181830000000  0.4412940000000  0.4562950000000 1.0
C      1  0.4180370000000  0.5594760000000  0.4560470000000 1.0
C      1  0.5325750000000  0.5971240000000  0.4547390000000 1.0
C      1  0.6020930000000  0.4981520000000  0.4555850000000 1.0
C      1  0.5307870000000  0.4016080000000  0.4545450000000 1.0
END
