TITL C-3578200-9634-86 -1.65878785161389e-06 125000 -823.691532983551 0 0 133 (C1) n - 1
REM
REM in /home/bkarasulu/work/CARBON/AIRSS/Generating-Clusters/EDIP-Nigel-Params/with-SteepDescent/Higher-Symm/SD-CG/HFTN-CG
REM
REM
REM
REM
REM
REM ./C.cell (12c818d87b63d06a65506943cc24bca4)
REM
REM compiler GCC version 9.2.1 20190827 (Red Hat 9.2.1-1)
REM options -cpp -mtune=generic -march=x86-64 -g -O0 -fpre-include=/usr/include/finclude/math-vector-fortran.h
REM seed -1886499179 789875389 -880431281 -197964503 -1660966329 -1285214176 872913397 -1882924885 -877776092 -1858766060 -1322275960 -1273167065 -655173442 -1374351884 28720598 1467061585 -1581505069 526969396 1745290475 675677729 1408798020 246262223 -108837754 46203242 -954490282 -987100710 1769806607 91753648 -1925828329 1436922691 -951730335 1688733750 -1158547911
REM
CELL 1.54180   50.00000   50.00000   50.00000   90.00000   90.00000   90.00000
LATT -1
SFAC C  
C      1  0.4744460000000  0.5534310000000  0.5669220000000 1.0
C      1  0.4488930000000  0.5718840000000  0.5180440000000 1.0
C      1  0.4582520000000  0.5492470000000  0.4509380000000 1.0
C      1  0.5236420000000  0.5485550000000  0.4439050000000 1.0
C      1  0.5616980000000  0.5506940000000  0.4905040000000 1.0
C      1  0.5400510000000  0.5535040000000  0.5499770000000 1.0
C      1  0.5232300000000  0.4446830000000  0.5539400000000 1.0
C      1  0.5601860000000  0.4461310000000  0.5086070000000 1.0
C      1  0.5369470000000  0.4435450000000  0.4536210000000 1.0
C      1  0.4776860000000  0.4467180000000  0.4460350000000 1.0
C      1  0.4423300000000  0.4427560000000  0.4919490000000 1.0
C      1  0.4635210000000  0.4443120000000  0.5465000000000 1.0
C      1  0.5238730000000  0.4771250000000  0.5840120000000 1.0
C      1  0.4392030000000  0.4784200000000  0.5592220000000 1.0
C      1  0.4090240000000  0.4704950000000  0.4736820000000 1.0
C      1  0.4766460000000  0.4770050000000  0.4129970000000 1.0
C      1  0.5611320000000  0.4784760000000  0.4422920000000 1.0
C      1  0.5928730000000  0.4760340000000  0.5252510000000 1.0
C      1  0.4747020000000  0.5158300000000  0.5907660000000 1.0
C      1  0.5608660000000  0.5169200000000  0.5621520000000 1.0
C      1  0.5846430000000  0.5151910000000  0.4775680000000 1.0
C      1  0.5260090000000  0.5171560000000  0.4097120000000 1.0
C      1  0.4392400000000  0.5142860000000  0.4326290000000 1.0
C      1  0.4213910000000  0.5248550000000  0.5132350000000 1.0
C      1  0.4825100000000  0.4941640000000  0.5717440000000 1.0
C      1  0.4341630000000  0.4987550000000  0.5034320000000 1.0
C      1  0.4493450000000  0.4944900000000  0.4553690000000 1.0
C      1  0.5181570000000  0.4947410000000  0.4298090000000 1.0
C      1  0.5659150000000  0.4947070000000  0.4901870000000 1.0
C      1  0.5515550000000  0.4967170000000  0.5421420000000 1.0
C      1  0.5119920000000  0.4977310000000  0.5633770000000 1.0
C      1  0.5718000000000  0.4991050000000  0.5199070000000 1.0
C      1  0.5392890000000  0.4983430000000  0.4528960000000 1.0
C      1  0.4883040000000  0.4970360000000  0.4319770000000 1.0
C      1  0.4251480000000  0.4962300000000  0.4747440000000 1.0
C      1  0.4623390000000  0.4969050000000  0.5498820000000 1.0
C      1  0.5688180000000  0.5782660000000  0.4911370000000 1.0
C      1  0.5410260000000  0.5805580000000  0.5591840000000 1.0
C      1  0.4732250000000  0.5821530000000  0.5657820000000 1.0
C      1  0.4301130000000  0.5912020000000  0.5111670000000 1.0
C      1  0.4586030000000  0.5774150000000  0.4450860000000 1.0
C      1  0.5318620000000  0.5770980000000  0.4418310000000 1.0
C      1  0.4356980000000  0.4153960000000  0.4970070000000 1.0
C      1  0.4635730000000  0.4163560000000  0.5511350000000 1.0
C      1  0.5327250000000  0.4181690000000  0.5589020000000 1.0
C      1  0.5667990000000  0.4189270000000  0.5033440000000 1.0
C      1  0.5400030000000  0.4167290000000  0.4443710000000 1.0
C      1  0.4712800000000  0.4190080000000  0.4441830000000 1.0
C      1  0.4426560000000  0.5424770000000  0.5255540000000 1.0
C      1  0.4284170000000  0.5363100000000  0.4489190000000 1.0
C      1  0.5073570000000  0.5389540000000  0.4198140000000 1.0
C      1  0.5699810000000  0.5372480000000  0.4646760000000 1.0
C      1  0.5682820000000  0.5407480000000  0.5460780000000 1.0
C      1  0.4936240000000  0.5386370000000  0.5848500000000 1.0
C      1  0.5732020000000  0.4552680000000  0.5349480000000 1.0
C      1  0.5650490000000  0.4556800000000  0.4596980000000 1.0
C      1  0.4941580000000  0.4544760000000  0.4207700000000 1.0
C      1  0.4300180000000  0.4512420000000  0.4647480000000 1.0
C      1  0.4353100000000  0.4553130000000  0.5410310000000 1.0
C      1  0.5063910000000  0.4540580000000  0.5785060000000 1.0
C      1  0.4813190000000  0.5264790000000  0.4293210000000 1.0
C      1  0.5476720000000  0.5281980000000  0.4466920000000 1.0
C      1  0.5782080000000  0.5295580000000  0.5189290000000 1.0
C      1  0.5186830000000  0.5277420000000  0.5701780000000 1.0
C      1  0.4525240000000  0.5337280000000  0.5568590000000 1.0
C      1  0.4122350000000  0.5228280000000  0.4699220000000 1.0
C      1  0.5230830000000  0.4645090000000  0.4247060000000 1.0
C      1  0.4500800000000  0.4644520000000  0.4461010000000 1.0
C      1  0.4283970000000  0.4613420000000  0.5123050000000 1.0
C      1  0.4772850000000  0.4641370000000  0.5769830000000 1.0
C      1  0.5513120000000  0.4679620000000  0.5508470000000 1.0
C      1  0.5732250000000  0.4649840000000  0.4871310000000 1.0
C      1  0.4895900000000  0.5261760000000  0.4723190000000 1.0
C      1  0.5144650000000  0.5225410000000  0.4887610000000 1.0
C      1  0.5101220000000  0.5205350000000  0.5192500000000 1.0
C      1  0.4870590000000  0.5345060000000  0.5289040000000 1.0
C      1  0.4659270000000  0.5315080000000  0.5096660000000 1.0
C      1  0.4713770000000  0.5473510000000  0.4787710000000 1.0
C      1  0.4964150000000  0.4820070000000  0.4726410000000 1.0
C      1  0.4639010000000  0.5021430000000  0.5030460000000 1.0
C      1  0.4791820000000  0.4856490000000  0.5252480000000 1.0
C      1  0.5092280000000  0.4931120000000  0.5294170000000 1.0
C      1  0.5282890000000  0.4810830000000  0.5079650000000 1.0
C      1  0.5226380000000  0.4941220000000  0.4808520000000 1.0
C      1  0.4062300000000  0.5372010000000  0.4932670000000 1.0
C      1  0.4570210000000  0.5259530000000  0.4133740000000 1.0
C      1  0.5526650000000  0.5256840000000  0.4174440000000 1.0
C      1  0.5994470000000  0.5290970000000  0.4981970000000 1.0
C      1  0.5440440000000  0.5253560000000  0.5836820000000 1.0
C      1  0.4475180000000  0.5225360000000  0.5842420000000 1.0
C      1  0.6008720000000  0.4662940000000  0.4988100000000 1.0
C      1  0.5522530000000  0.4658940000000  0.4181460000000 1.0
C      1  0.4491280000000  0.4688020000000  0.4168370000000 1.0
C      1  0.4015170000000  0.4640240000000  0.5007570000000 1.0
C      1  0.4480100000000  0.4645410000000  0.5827560000000 1.0
C      1  0.5513910000000  0.4695730000000  0.5802860000000 1.0
C      1  0.5154100000000  0.6101670000000  0.5229960000000 1.0
C      1  0.4855280000000  0.6061650000000  0.5235140000000 1.0
C      1  0.4698190000000  0.6213400000000  0.5026820000000 1.0
C      1  0.4814320000000  0.6156540000000  0.4756730000000 1.0
C      1  0.5111670000000  0.6140240000000  0.4732690000000 1.0
C      1  0.5273520000000  0.6078530000000  0.4968590000000 1.0
C      1  0.4884010000000  0.3855720000000  0.5238870000000 1.0
C      1  0.5169700000000  0.3860950000000  0.5248870000000 1.0
C      1  0.5318900000000  0.3861150000000  0.5004880000000 1.0
C      1  0.5184230000000  0.3854470000000  0.4752230000000 1.0
C      1  0.4898300000000  0.3861740000000  0.4745240000000 1.0
C      1  0.4748430000000  0.3852940000000  0.4987850000000 1.0
C      1  0.4788230000000  0.5781330000000  0.5127890000000 1.0
C      1  0.4862580000000  0.5723640000000  0.4836350000000 1.0
C      1  0.5160770000000  0.5705160000000  0.4763590000000 1.0
C      1  0.5310780000000  0.5499880000000  0.4934530000000 1.0
C      1  0.5250460000000  0.5568350000000  0.5237090000000 1.0
C      1  0.4962540000000  0.5613810000000  0.5295640000000 1.0
C      1  0.5290900000000  0.4519490000000  0.5055540000000 1.0
C      1  0.5187740000000  0.4433550000000  0.4780750000000 1.0
C      1  0.4911460000000  0.4534050000000  0.4732690000000 1.0
C      1  0.4720980000000  0.4466180000000  0.4956830000000 1.0
C      1  0.4811070000000  0.4543070000000  0.5231910000000 1.0
C      1  0.5097420000000  0.4449990000000  0.5272800000000 1.0
C      1  0.4737160000000  0.3921350000000  0.5463660000000 1.0
C      1  0.4478890000000  0.3915870000000  0.4981470000000 1.0
C      1  0.4769110000000  0.3938820000000  0.4513260000000 1.0
C      1  0.5326740000000  0.3922260000000  0.4524060000000 1.0
C      1  0.5585080000000  0.3936210000000  0.5012350000000 1.0
C      1  0.5295240000000  0.3936930000000  0.5484140000000 1.0
C      1  0.5301950000000  0.6008010000000  0.5448610000000 1.0
C      1  0.5540580000000  0.6004820000000  0.4941220000000 1.0
C      1  0.5204560000000  0.6016120000000  0.4494340000000 1.0
C      1  0.4661200000000  0.6007670000000  0.4567270000000 1.0
C      1  0.4428690000000  0.6139060000000  0.5042460000000 1.0
C      1  0.4755300000000  0.6048910000000  0.5509280000000 1.0
C      1  0.4745770000000  0.5008420000000  0.4743800000000 1.0
END
