TITL C-3578197-9521-312 -2.06704532335964e-07 125000 -519.726049858228 0 0 87 (C1) n - 1
REM
REM in /home/bkarasulu/work/CARBON/AIRSS/Generating-Clusters/EDIP-Nigel-Params/with-SteepDescent/Higher-Symm/SD-CG/HFTN-CG
REM
REM
REM
REM
REM
REM ./C.cell (12c818d87b63d06a65506943cc24bca4)
REM
REM compiler GCC version 9.2.1 20190827 (Red Hat 9.2.1-1)
REM options -cpp -mtune=generic -march=x86-64 -g -O0 -fpre-include=/usr/include/finclude/math-vector-fortran.h
REM seed -918826646 -173940684 -749791115 -1177340394 976538636 718598380 1811421037 -343474113 1320764926 1183044481 -641138808 1112606283 945894044 1246830684 2097451220 1488869604 -326495427 -524368083 2038379744 2077165007 -15968390 -686251040 1036822811 137321923 488705917 886366111 1572924655 -792003463 -1172943814 -2058552004 -244745525 1705920252 2909913
REM
CELL 1.54180   50.00000   50.00000   50.00000   90.00000   90.00000   90.00000
LATT -1
SFAC C  
C      1  0.5287060000000  0.4471540000000  0.5720700000000 1.0
C      1  0.4477040000000  0.4687130000000  0.4277300000000 1.0
C      1  0.4685960000000  0.5519930000000  0.5729860000000 1.0
C      1  0.5505020000000  0.5304060000000  0.4279090000000 1.0
C      1  0.4789160000000  0.4837220000000  0.4862470000000 1.0
C      1  0.4877820000000  0.5192520000000  0.5164060000000 1.0
C      1  0.5203780000000  0.5112140000000  0.4831510000000 1.0
C      1  0.5164620000000  0.4767450000000  0.5161270000000 1.0
C      1  0.5031110000000  0.4509910000000  0.5238440000000 1.0
C      1  0.4540400000000  0.4990090000000  0.4844810000000 1.0
C      1  0.5011080000000  0.5448520000000  0.5168170000000 1.0
C      1  0.5477580000000  0.5026440000000  0.4854150000000 1.0
C      1  0.4250220000000  0.4750770000000  0.5212340000000 1.0
C      1  0.4763670000000  0.5734840000000  0.4797400000000 1.0
C      1  0.5746400000000  0.5234160000000  0.5218440000000 1.0
C      1  0.5253510000000  0.4238080000000  0.4751680000000 1.0
C      1  0.5069780000000  0.5175070000000  0.4043740000000 1.0
C      1  0.5167380000000  0.4916490000000  0.5964520000000 1.0
C      1  0.4931670000000  0.4798770000000  0.4043560000000 1.0
C      1  0.4791600000000  0.5070330000000  0.5964130000000 1.0
C      1  0.4931470000000  0.4550200000000  0.4201360000000 1.0
C      1  0.4542960000000  0.5072030000000  0.5806320000000 1.0
C      1  0.5053360000000  0.5424790000000  0.4196050000000 1.0
C      1  0.5417180000000  0.4926950000000  0.5813210000000 1.0
C      1  0.5259000000000  0.4845150000000  0.4398230000000 1.0
C      1  0.4833170000000  0.4750240000000  0.5621880000000 1.0
C      1  0.4689830000000  0.5157890000000  0.4398270000000 1.0
C      1  0.5157580000000  0.5300880000000  0.5613850000000 1.0
C      1  0.4869020000000  0.5704820000000  0.5601810000000 1.0
C      1  0.5694120000000  0.5129370000000  0.4411830000000 1.0
C      1  0.5080120000000  0.4321770000000  0.5579440000000 1.0
C      1  0.4287290000000  0.4863720000000  0.4407120000000 1.0
C      1  0.4604990000000  0.5247590000000  0.4697070000000 1.0
C      1  0.5265240000000  0.5403970000000  0.5320730000000 1.0
C      1  0.5314050000000  0.4694480000000  0.4750460000000 1.0
C      1  0.4688750000000  0.4682040000000  0.5264710000000 1.0
C      1  0.5525600000000  0.4918250000000  0.4295720000000 1.0
C      1  0.4909760000000  0.4495300000000  0.5742480000000 1.0
C      1  0.4442470000000  0.5071410000000  0.4269080000000 1.0
C      1  0.5070290000000  0.5546220000000  0.5746790000000 1.0
C      1  0.5414970000000  0.4705160000000  0.5588630000000 1.0
C      1  0.4713930000000  0.4582480000000  0.4425610000000 1.0
C      1  0.4578710000000  0.5285020000000  0.5580230000000 1.0
C      1  0.5273040000000  0.5419850000000  0.4423240000000 1.0
C      1  0.4358050000000  0.4518990000000  0.4767330000000 1.0
C      1  0.4532440000000  0.5640510000000  0.5231370000000 1.0
C      1  0.5660520000000  0.5475570000000  0.4776280000000 1.0
C      1  0.5484880000000  0.4315690000000  0.5189440000000 1.0
C      1  0.4785470000000  0.5163480000000  0.5420750000000 1.0
C      1  0.5145370000000  0.5221090000000  0.4586860000000 1.0
C      1  0.5221240000000  0.4842000000000  0.5424090000000 1.0
C      1  0.4830080000000  0.4788360000000  0.4590940000000 1.0
C      1  0.5514600000000  0.4322070000000  0.4894470000000 1.0
C      1  0.4341100000000  0.4492990000000  0.5065420000000 1.0
C      1  0.4505420000000  0.5662320000000  0.4935210000000 1.0
C      1  0.5678170000000  0.5495040000000  0.5076300000000 1.0
C      1  0.5423730000000  0.5615880000000  0.5170460000000 1.0
C      1  0.5593690000000  0.4601810000000  0.4827380000000 1.0
C      1  0.4613160000000  0.4408970000000  0.5154960000000 1.0
C      1  0.4386030000000  0.5407910000000  0.4837010000000 1.0
C      1  0.5188350000000  0.4546890000000  0.4348380000000 1.0
C      1  0.4533710000000  0.4815900000000  0.5658490000000 1.0
C      1  0.4793360000000  0.5435850000000  0.4340530000000 1.0
C      1  0.5435050000000  0.5188270000000  0.5669250000000 1.0
C      1  0.5147660000000  0.4481490000000  0.4627340000000 1.0
C      1  0.4474350000000  0.4850280000000  0.5375060000000 1.0
C      1  0.4844130000000  0.5542210000000  0.4603320000000 1.0
C      1  0.5543340000000  0.5146490000000  0.5403260000000 1.0
C      1  0.4284790000000  0.5258400000000  0.5078500000000 1.0
C      1  0.5271170000000  0.5707510000000  0.4928860000000 1.0
C      1  0.5709400000000  0.4727810000000  0.5076850000000 1.0
C      1  0.4783760000000  0.4336220000000  0.4916080000000 1.0
C      1  0.5193730000000  0.4241370000000  0.5220070000000 1.0
C      1  0.4312160000000  0.4814400000000  0.4707750000000 1.0
C      1  0.4826580000000  0.5676500000000  0.5299790000000 1.0
C      1  0.5701930000000  0.5183410000000  0.4712620000000 1.0
C      1  0.5828810000000  0.5019350000000  0.5024430000000 1.0
C      1  0.5046850000000  0.4173860000000  0.4956680000000 1.0
C      1  0.4184410000000  0.4963320000000  0.5007810000000 1.0
C      1  0.4977700000000  0.5798470000000  0.4996840000000 1.0
C      1  0.5407550000000  0.5606500000000  0.4676870000000 1.0
C      1  0.5599640000000  0.4568980000000  0.5312580000000 1.0
C      1  0.4613230000000  0.4387790000000  0.4662400000000 1.0
C      1  0.4387710000000  0.5398180000000  0.5334300000000 1.0
C      1  0.4979730000000  0.4991900000000  0.5770410000000 1.0
C      1  0.5005310000000  0.4986030000000  0.4243330000000 1.0
C      1  0.5007870000000  0.4974240000000  0.5006960000000 1.0
END
