TITL C-3577078-809-134 -7.41509426785678e-06 125000 -925.24557565237 0 0 150 (C1) n - 1
REM
REM in /home/bkarasulu/work/CARBON/AIRSS/Generating-Clusters/EDIP-Nigel-Params/with-SteepDescent/Higher-Symm/SD-CG/HFTN-CG
REM
REM
REM
REM
REM
REM ./C.cell (12c818d87b63d06a65506943cc24bca4)
REM
REM compiler GCC version 9.2.1 20190827 (Red Hat 9.2.1-1)
REM options -cpp -mtune=generic -march=x86-64 -g -O0 -fpre-include=/usr/include/finclude/math-vector-fortran.h
REM seed 680817322 -685235221 -266570320 -2122316950 -89314542 -1391272806 -637218932 1006925776 1842762046 201309442 -780602655 -175816116 -1500664849 -1566517290 -1182907980 -1643354400 345957602 1537129798 367330809 189056957 -2098766682 -1475999566 557629392 1529524696 1244992843 809554958 -1967548466 -88161133 1969609702 1673877954 1884142313 1182452648 78733289
REM
CELL 1.54180   50.00000   50.00000   50.00000   90.00000   90.00000   90.00000
LATT -1
SFAC C  
C      1  0.5892480000000  0.4759430000000  0.4560480000000 1.0
C      1  0.5895260000000  0.5249320000000  0.5419840000000 1.0
C      1  0.4103240000000  0.5237970000000  0.4573670000000 1.0
C      1  0.4121140000000  0.4780460000000  0.5416040000000 1.0
C      1  0.5060640000000  0.4841120000000  0.4870020000000 1.0
C      1  0.5043120000000  0.5150660000000  0.5220010000000 1.0
C      1  0.4946700000000  0.5136780000000  0.4799870000000 1.0
C      1  0.4911860000000  0.4843470000000  0.5148000000000 1.0
C      1  0.4837820000000  0.5746320000000  0.4270610000000 1.0
C      1  0.4877180000000  0.4261250000000  0.5729450000000 1.0
C      1  0.5125340000000  0.4278450000000  0.4278350000000 1.0
C      1  0.5133850000000  0.5720120000000  0.5747350000000 1.0
C      1  0.4621270000000  0.4045040000000  0.5407860000000 1.0
C      1  0.4723600000000  0.6042450000000  0.4671310000000 1.0
C      1  0.5340780000000  0.5960200000000  0.5402080000000 1.0
C      1  0.5376050000000  0.4049220000000  0.4598630000000 1.0
C      1  0.5552530000000  0.4964320000000  0.4865960000000 1.0
C      1  0.5610910000000  0.5084720000000  0.5150800000000 1.0
C      1  0.4378760000000  0.5075530000000  0.4857480000000 1.0
C      1  0.4409690000000  0.4947570000000  0.5151450000000 1.0
C      1  0.5475700000000  0.5327490000000  0.5438580000000 1.0
C      1  0.5519980000000  0.4682720000000  0.4513510000000 1.0
C      1  0.4486780000000  0.4687290000000  0.5491310000000 1.0
C      1  0.4530050000000  0.5296880000000  0.4566440000000 1.0
C      1  0.4389070000000  0.5836570000000  0.4942210000000 1.0
C      1  0.4310510000000  0.4148130000000  0.5046040000000 1.0
C      1  0.5692520000000  0.4147350000000  0.4959820000000 1.0
C      1  0.5626760000000  0.5843820000000  0.5030050000000 1.0
C      1  0.4815960000000  0.5642760000000  0.4939120000000 1.0
C      1  0.4731520000000  0.4342640000000  0.5099000000000 1.0
C      1  0.5269170000000  0.4346670000000  0.4908900000000 1.0
C      1  0.5185320000000  0.5641420000000  0.5062330000000 1.0
C      1  0.5287960000000  0.6012740000000  0.4777860000000 1.0
C      1  0.5299190000000  0.4022850000000  0.5211920000000 1.0
C      1  0.4708990000000  0.4019770000000  0.4797500000000 1.0
C      1  0.4719820000000  0.6024180000000  0.5223770000000 1.0
C      1  0.4234550000000  0.4319330000000  0.5275210000000 1.0
C      1  0.4327610000000  0.5662690000000  0.4719670000000 1.0
C      1  0.5727620000000  0.5702340000000  0.5265740000000 1.0
C      1  0.5772960000000  0.4307450000000  0.4723190000000 1.0
C      1  0.5306590000000  0.4984260000000  0.4007820000000 1.0
C      1  0.5293830000000  0.5001630000000  0.5950420000000 1.0
C      1  0.4726460000000  0.5013010000000  0.4054460000000 1.0
C      1  0.4727870000000  0.4963050000000  0.5991040000000 1.0
C      1  0.4860120000000  0.4751880000000  0.4066010000000 1.0
C      1  0.4853460000000  0.5217380000000  0.5926350000000 1.0
C      1  0.5162250000000  0.5249800000000  0.4029290000000 1.0
C      1  0.5159220000000  0.4741340000000  0.5910030000000 1.0
C      1  0.4047730000000  0.4631540000000  0.4945030000000 1.0
C      1  0.4095170000000  0.5371180000000  0.5027690000000 1.0
C      1  0.5898930000000  0.5365960000000  0.4956780000000 1.0
C      1  0.5949730000000  0.4635380000000  0.5045890000000 1.0
C      1  0.5194660000000  0.4467830000000  0.5343630000000 1.0
C      1  0.5205890000000  0.5511500000000  0.4599800000000 1.0
C      1  0.4787910000000  0.5528500000000  0.5404360000000 1.0
C      1  0.4800880000000  0.4467770000000  0.4651630000000 1.0
C      1  0.5024200000000  0.4671580000000  0.4619150000000 1.0
C      1  0.5020350000000  0.5339150000000  0.5459790000000 1.0
C      1  0.4970500000000  0.5320060000000  0.4558060000000 1.0
C      1  0.4972550000000  0.4667460000000  0.5391640000000 1.0
C      1  0.4505640000000  0.5156950000000  0.5355010000000 1.0
C      1  0.4476360000000  0.4845570000000  0.4676840000000 1.0
C      1  0.5518790000000  0.4854730000000  0.5331050000000 1.0
C      1  0.5472350000000  0.5158690000000  0.4645160000000 1.0
C      1  0.4649650000000  0.5459660000000  0.5132870000000 1.0
C      1  0.4593920000000  0.4546260000000  0.4876120000000 1.0
C      1  0.5398980000000  0.4554370000000  0.5124510000000 1.0
C      1  0.5352600000000  0.5463500000000  0.4867170000000 1.0
C      1  0.5531500000000  0.5496480000000  0.5698520000000 1.0
C      1  0.5544000000000  0.4492300000000  0.4267750000000 1.0
C      1  0.4461670000000  0.4493280000000  0.5739520000000 1.0
C      1  0.4476640000000  0.5473910000000  0.4302590000000 1.0
C      1  0.5846650000000  0.5444910000000  0.5225290000000 1.0
C      1  0.5859380000000  0.4575980000000  0.4776370000000 1.0
C      1  0.4159810000000  0.4590030000000  0.5208340000000 1.0
C      1  0.4155370000000  0.5439460000000  0.4758880000000 1.0
C      1  0.4612110000000  0.5581070000000  0.5634540000000 1.0
C      1  0.4660220000000  0.4390430000000  0.4395900000000 1.0
C      1  0.5348520000000  0.4380420000000  0.5587960000000 1.0
C      1  0.5364810000000  0.5606770000000  0.4364490000000 1.0
C      1  0.5306720000000  0.5210400000000  0.5045990000000 1.0
C      1  0.5337010000000  0.4783490000000  0.4936670000000 1.0
C      1  0.4634820000000  0.4771470000000  0.5081190000000 1.0
C      1  0.4682750000000  0.5190150000000  0.4969260000000 1.0
C      1  0.4651710000000  0.4567850000000  0.4167060000000 1.0
C      1  0.4610740000000  0.5381070000000  0.5849430000000 1.0
C      1  0.5370970000000  0.5434900000000  0.4130390000000 1.0
C      1  0.5374470000000  0.4564830000000  0.5813630000000 1.0
C      1  0.4509850000000  0.4131570000000  0.4602170000000 1.0
C      1  0.4517710000000  0.5881010000000  0.5412430000000 1.0
C      1  0.5480700000000  0.5864760000000  0.4559010000000 1.0
C      1  0.5495740000000  0.4147210000000  0.5415880000000 1.0
C      1  0.4648670000000  0.5014530000000  0.4488890000000 1.0
C      1  0.4619090000000  0.4965740000000  0.5564830000000 1.0
C      1  0.5371510000000  0.4955820000000  0.4444080000000 1.0
C      1  0.5351180000000  0.5041470000000  0.5518420000000 1.0
C      1  0.5705610000000  0.4260150000000  0.5235940000000 1.0
C      1  0.5671320000000  0.5745250000000  0.4755530000000 1.0
C      1  0.4333170000000  0.5753200000000  0.5219570000000 1.0
C      1  0.4293140000000  0.4246490000000  0.4765360000000 1.0
C      1  0.5583350000000  0.4252650000000  0.4493510000000 1.0
C      1  0.5550580000000  0.5753730000000  0.5498390000000 1.0
C      1  0.4444370000000  0.5713850000000  0.4466020000000 1.0
C      1  0.4415360000000  0.4254380000000  0.5510800000000 1.0
C      1  0.4885810000000  0.5247210000000  0.4135880000000 1.0
C      1  0.4868100000000  0.4720990000000  0.5924380000000 1.0
C      1  0.5153450000000  0.4737770000000  0.4082850000000 1.0
C      1  0.5141860000000  0.5242450000000  0.5871190000000 1.0
C      1  0.4234550000000  0.4754960000000  0.4505030000000 1.0
C      1  0.4240900000000  0.5265550000000  0.5482970000000 1.0
C      1  0.5738040000000  0.5248540000000  0.4508080000000 1.0
C      1  0.5771150000000  0.4762080000000  0.5487870000000 1.0
C      1  0.4004820000000  0.5108690000000  0.5088800000000 1.0
C      1  0.3973200000000  0.4902930000000  0.4879000000000 1.0
C      1  0.6015040000000  0.4907780000000  0.5108240000000 1.0
C      1  0.5970700000000  0.5100110000000  0.4896630000000 1.0
C      1  0.5101790000000  0.5808760000000  0.4657720000000 1.0
C      1  0.5056620000000  0.4200700000000  0.5267190000000 1.0
C      1  0.4944060000000  0.4206480000000  0.4736170000000 1.0
C      1  0.4906300000000  0.5814770000000  0.5343160000000 1.0
C      1  0.4444520000000  0.5132810000000  0.5786080000000 1.0
C      1  0.4485920000000  0.4902370000000  0.4241300000000 1.0
C      1  0.5536070000000  0.4911150000000  0.5762800000000 1.0
C      1  0.5530510000000  0.5097580000000  0.4212970000000 1.0
C      1  0.5105510000000  0.4101830000000  0.4499570000000 1.0
C      1  0.5093750000000  0.5909220000000  0.5546620000000 1.0
C      1  0.4899570000000  0.5923680000000  0.4482590000000 1.0
C      1  0.4894460000000  0.4091930000000  0.5504010000000 1.0
C      1  0.5812320000000  0.4528580000000  0.5276060000000 1.0
C      1  0.5770700000000  0.5475470000000  0.4725600000000 1.0
C      1  0.4226740000000  0.5486020000000  0.5256240000000 1.0
C      1  0.4184350000000  0.4515860000000  0.4715790000000 1.0
C      1  0.5245740000000  0.5535930000000  0.5367030000000 1.0
C      1  0.5281490000000  0.4485070000000  0.4617850000000 1.0
C      1  0.4724230000000  0.4480310000000  0.5392800000000 1.0
C      1  0.4751240000000  0.5538220000000  0.4638910000000 1.0
C      1  0.4035740000000  0.4966140000000  0.4597020000000 1.0
C      1  0.4045420000000  0.5053870000000  0.5374960000000 1.0
C      1  0.5933970000000  0.5038000000000  0.4613810000000 1.0
C      1  0.5965700000000  0.4975760000000  0.5392080000000 1.0
C      1  0.4592740000000  0.4066520000000  0.5089600000000 1.0
C      1  0.4670690000000  0.5921000000000  0.4937260000000 1.0
C      1  0.5340160000000  0.5919390000000  0.5069080000000 1.0
C      1  0.5408960000000  0.4070050000000  0.4919060000000 1.0
C      1  0.5278310000000  0.4476170000000  0.4143570000000 1.0
C      1  0.5277950000000  0.5502780000000  0.5847930000000 1.0
C      1  0.4734900000000  0.5501600000000  0.4165630000000 1.0
C      1  0.4732660000000  0.4468790000000  0.5855320000000 1.0
C      1  0.5009310000000  0.4946920000000  0.4432010000000 1.0
C      1  0.4975870000000  0.4966690000000  0.5577680000000 1.0
END
