TITL C-3577080-309-252 -7.61818932167036e-07 125000 -102.010919823666 0 0 18 (C1) n - 1
REM
REM in /home/bkarasulu/work/CARBON/AIRSS/Generating-Clusters/EDIP-Nigel-Params/with-SteepDescent/Higher-Symm/SD-CG/HFTN-CG
REM
REM
REM
REM
REM
REM ./C.cell (12c818d87b63d06a65506943cc24bca4)
REM
REM compiler GCC version 9.2.1 20190827 (Red Hat 9.2.1-1)
REM options -cpp -mtune=generic -march=x86-64 -g -O0 -fpre-include=/usr/include/finclude/math-vector-fortran.h
REM seed 335971384 1169964708 -1157855842 1514477027 -1700299700 1382559233 1682176309 -1285811892 -2105457393 -400012075 1034625182 2090839213 1675376735 692430667 -464121081 -1129886427 942913651 439362887 564151617 1388047582 2009444232 665046591 -1482902203 -1777241844 1653579197 -1050384035 1921603726 -1923488107 1098979627 1230221073 -1811590639 1434837100 -351347712
REM
CELL 1.54180   50.00000   50.00000   50.00000   90.00000   90.00000   90.00000
LATT -1
SFAC C  
C      1  0.4769210000000  0.5283350000000  0.4884400000000 1.0
C      1  0.4813130000000  0.4986260000000  0.5294800000000 1.0
C      1  0.4808010000000  0.4767840000000  0.4839870000000 1.0
C      1  0.5074490000000  0.5250950000000  0.4931640000000 1.0
C      1  0.5095930000000  0.4995870000000  0.5293900000000 1.0
C      1  0.5050640000000  0.4629100000000  0.4756870000000 1.0
C      1  0.5172840000000  0.4514890000000  0.4990240000000 1.0
C      1  0.5189820000000  0.5174020000000  0.4665320000000 1.0
C      1  0.5150170000000  0.5266200000000  0.5369030000000 1.0
C      1  0.4996850000000  0.4546390000000  0.5222000000000 1.0
C      1  0.5021840000000  0.5022570000000  0.4484530000000 1.0
C      1  0.4973940000000  0.5486560000000  0.5293980000000 1.0
C      1  0.4763810000000  0.5273970000000  0.5197060000000 1.0
C      1  0.4758530000000  0.4730350000000  0.5139020000000 1.0
C      1  0.4801800000000  0.5035720000000  0.4699280000000 1.0
C      1  0.5184840000000  0.4796070000000  0.4563380000000 1.0
C      1  0.5165640000000  0.5508210000000  0.5064940000000 1.0
C      1  0.5208520000000  0.4731670000000  0.5309720000000 1.0
END
