TITL C-3578196-9646-604 7.11461023001889e-08 125000 -219.21588913152 0 0 36 (D2) n - 1
REM
REM in /home/bkarasulu/work/CARBON/AIRSS/Generating-Clusters/EDIP-Nigel-Params/with-SteepDescent/Higher-Symm/SD-CG/HFTN-CG
REM
REM
REM
REM
REM
REM ./C.cell (12c818d87b63d06a65506943cc24bca4)
REM
REM compiler GCC version 9.2.1 20190827 (Red Hat 9.2.1-1)
REM options -cpp -mtune=generic -march=x86-64 -g -O0 -fpre-include=/usr/include/finclude/math-vector-fortran.h
REM seed 1835165467 1027412259 -709997720 283391984 1962302701 -1550907169 548943080 -1990130738 514022906 994964978 1153819739 -648964356 -1068580139 1615872067 840353407 -751652742 515956590 -233433178 -2094177709 152251230 998790052 385250130 767034079 -1609136519 1261625970 227335921 -1821329107 -1155778501 -1769351160 -1677621775 -1784108931 -26760559 -1832312303
REM
CELL 1.54180   50.00000   50.00000   50.00000   90.00000   90.00000   90.00000
LATT -1
SFAC C  
C      1  0.4957090000000  0.5797310000000  0.4872530000000 1.0
C      1  0.5042920000000  0.4202700000000  0.4872520000000 1.0
C      1  0.4957060000000  0.4202690000000  0.5127460000000 1.0
C      1  0.5042930000000  0.5797300000000  0.5127480000000 1.0
C      1  0.4770810000000  0.5264690000000  0.5562620000000 1.0
C      1  0.5229140000000  0.4735290000000  0.5562630000000 1.0
C      1  0.4770850000000  0.4735310000000  0.4437360000000 1.0
C      1  0.5229190000000  0.5264700000000  0.4437390000000 1.0
C      1  0.5257230000000  0.5369510000000  0.5202180000000 1.0
C      1  0.4742750000000  0.4630490000000  0.5202160000000 1.0
C      1  0.5257240000000  0.4630490000000  0.4797840000000 1.0
C      1  0.4742770000000  0.5369520000000  0.4797820000000 1.0
C      1  0.4798540000000  0.5447320000000  0.5347290000000 1.0
C      1  0.5201430000000  0.4552670000000  0.5347300000000 1.0
C      1  0.4798560000000  0.4552680000000  0.4652690000000 1.0
C      1  0.5201470000000  0.5447320000000  0.4652710000000 1.0
C      1  0.5417930000000  0.5067860000000  0.4869950000000 1.0
C      1  0.4582080000000  0.4932140000000  0.4869910000000 1.0
C      1  0.5417920000000  0.4932130000000  0.5130090000000 1.0
C      1  0.4582070000000  0.5067870000000  0.5130060000000 1.0
C      1  0.5292250000000  0.5326320000000  0.4908500000000 1.0
C      1  0.4707760000000  0.4673680000000  0.4908470000000 1.0
C      1  0.5292230000000  0.4673670000000  0.5091520000000 1.0
C      1  0.4707760000000  0.5326320000000  0.5091510000000 1.0
C      1  0.4688920000000  0.5109060000000  0.4663210000000 1.0
C      1  0.5311110000000  0.4890950000000  0.4663230000000 1.0
C      1  0.4688890000000  0.4890950000000  0.5336770000000 1.0
C      1  0.5311080000000  0.5109040000000  0.5336790000000 1.0
C      1  0.4933950000000  0.4418800000000  0.5307090000000 1.0
C      1  0.5066020000000  0.5581190000000  0.5307110000000 1.0
C      1  0.4933990000000  0.5581200000000  0.4692900000000 1.0
C      1  0.5066040000000  0.4418810000000  0.4692900000000 1.0
C      1  0.4711480000000  0.4999510000000  0.4404470000000 1.0
C      1  0.5288570000000  0.5000500000000  0.4404490000000 1.0
C      1  0.4711430000000  0.5000500000000  0.5595510000000 1.0
C      1  0.5288520000000  0.4999490000000  0.5595530000000 1.0
END
