TITL C-3578205-846-590 1.34653502686212e-06 125000 -291.937165688113 0 0 49 (C1) n - 1
REM
REM in /home/bkarasulu/work/CARBON/AIRSS/Generating-Clusters/EDIP-Nigel-Params/with-SteepDescent/Higher-Symm/SD-CG/HFTN-CG
REM
REM
REM
REM
REM
REM ./C.cell (12c818d87b63d06a65506943cc24bca4)
REM
REM compiler GCC version 9.2.1 20190827 (Red Hat 9.2.1-1)
REM options -cpp -mtune=generic -march=x86-64 -g -O0 -fpre-include=/usr/include/finclude/math-vector-fortran.h
REM seed -1560000225 -1014161153 -1194157736 1610443680 -1450745467 -571341552 1864562150 -1606357153 -1675520574 1421314432 769327104 586265707 94630680 800258327 2092527988 1699499002 859160415 -946743209 1984926730 -1221164686 203927497 -531897780 664012040 830344045 -1755035476 502656019 966170799 1731120923 -2105140759 -467204735 1359661451 -771612313 -1226910616
REM
CELL 1.54180   50.00000   50.00000   50.00000   90.00000   90.00000   90.00000
LATT -1
SFAC C  
C      1  0.5210870000000  0.5154160000000  0.5102230000000 1.0
C      1  0.5000700000000  0.5591580000000  0.5440350000000 1.0
C      1  0.5215980000000  0.4748870000000  0.5510720000000 1.0
C      1  0.4425430000000  0.5408750000000  0.4843680000000 1.0
C      1  0.5624790000000  0.4902170000000  0.4937300000000 1.0
C      1  0.4656420000000  0.4511040000000  0.4983600000000 1.0
C      1  0.4782580000000  0.4855780000000  0.4339770000000 1.0
C      1  0.4750340000000  0.4949240000000  0.5132630000000 1.0
C      1  0.5464640000000  0.4421720000000  0.4631660000000 1.0
C      1  0.5044450000000  0.5211500000000  0.4617750000000 1.0
C      1  0.5597740000000  0.5148650000000  0.4779740000000 1.0
C      1  0.5520790000000  0.4605230000000  0.4855790000000 1.0
C      1  0.4730420000000  0.4782020000000  0.5581880000000 1.0
C      1  0.4940720000000  0.5177430000000  0.5199510000000 1.0
C      1  0.5226820000000  0.5057630000000  0.4819300000000 1.0
C      1  0.4905190000000  0.4451170000000  0.5151330000000 1.0
C      1  0.4608310000000  0.4969410000000  0.5408960000000 1.0
C      1  0.4556710000000  0.4996350000000  0.4752990000000 1.0
C      1  0.4517430000000  0.5444950000000  0.5296020000000 1.0
C      1  0.5563670000000  0.4916090000000  0.5225920000000 1.0
C      1  0.5107650000000  0.5597690000000  0.5178370000000 1.0
C      1  0.5402280000000  0.4473010000000  0.5095610000000 1.0
C      1  0.4895280000000  0.5553100000000  0.4974260000000 1.0
C      1  0.4618170000000  0.5264610000000  0.5491340000000 1.0
C      1  0.5401940000000  0.4686940000000  0.5298300000000 1.0
C      1  0.4597730000000  0.5541230000000  0.5040030000000 1.0
C      1  0.4357590000000  0.4907970000000  0.4930490000000 1.0
C      1  0.5066880000000  0.5183210000000  0.5681740000000 1.0
C      1  0.5486890000000  0.5413940000000  0.4853030000000 1.0
C      1  0.5228230000000  0.5215570000000  0.4388300000000 1.0
C      1  0.5033220000000  0.4607650000000  0.4643980000000 1.0
C      1  0.4917770000000  0.5312030000000  0.5469270000000 1.0
C      1  0.5277460000000  0.5030430000000  0.5584070000000 1.0
C      1  0.5155440000000  0.4323850000000  0.5003490000000 1.0
C      1  0.4946310000000  0.4616070000000  0.5494560000000 1.0
C      1  0.4740840000000  0.4565970000000  0.4702850000000 1.0
C      1  0.5473010000000  0.5150960000000  0.5385710000000 1.0
C      1  0.4295010000000  0.5185330000000  0.4974550000000 1.0
C      1  0.4457870000000  0.4695750000000  0.5094490000000 1.0
C      1  0.5245180000000  0.4946360000000  0.4322160000000 1.0
C      1  0.5191530000000  0.4357360000000  0.4694730000000 1.0
C      1  0.4276110000000  0.5563130000000  0.4686260000000 1.0
C      1  0.4993030000000  0.5512590000000  0.4697780000000 1.0
C      1  0.5166850000000  0.4766750000000  0.4867360000000 1.0
C      1  0.5356840000000  0.5420770000000  0.5132760000000 1.0
C      1  0.4997870000000  0.4747710000000  0.5131940000000 1.0
C      1  0.5044650000000  0.4759380000000  0.4378660000000 1.0
C      1  0.5304950000000  0.5504670000000  0.4631390000000 1.0
C      1  0.4619430000000  0.4792210000000  0.4561400000000 1.0
END
