TITL C-3578204-4308-394 3.15625476010283e-09 125000 -257.723498736694 0 0 43 (C1) n - 1
REM
REM in /home/bkarasulu/work/CARBON/AIRSS/Generating-Clusters/EDIP-Nigel-Params/with-SteepDescent/Higher-Symm/SD-CG/HFTN-CG
REM
REM
REM
REM
REM
REM ./C.cell (12c818d87b63d06a65506943cc24bca4)
REM
REM compiler GCC version 9.2.1 20190827 (Red Hat 9.2.1-1)
REM options -cpp -mtune=generic -march=x86-64 -g -O0 -fpre-include=/usr/include/finclude/math-vector-fortran.h
REM seed -213672001 -123049740 -633297037 1387670462 -1407936964 -1867165175 -374334458 1383831640 -1916030372 1688988055 -1424855218 285233374 678416732 215368348 2139416919 1209634754 -904733391 -2084342414 1633272304 1295827189 627810494 1490755743 -1802736819 -720267807 136888378 -933776336 1301210916 -1120190575 1738415631 -1304962445 -362014422 -2039898634 -2000138473
REM
CELL 1.54180   50.00000   50.00000   50.00000   90.00000   90.00000   90.00000
LATT -1
SFAC C  
C      1  0.4808750000000  0.4595990000000  0.5471840000000 1.0
C      1  0.4438300000000  0.5563230000000  0.4865540000000 1.0
C      1  0.5753040000000  0.4630170000000  0.4687470000000 1.0
C      1  0.5324190000000  0.4670940000000  0.4475520000000 1.0
C      1  0.5222720000000  0.5514390000000  0.5469490000000 1.0
C      1  0.4797810000000  0.5478120000000  0.4551530000000 1.0
C      1  0.5426080000000  0.5465980000000  0.5020190000000 1.0
C      1  0.5401110000000  0.4487310000000  0.4915460000000 1.0
C      1  0.4566780000000  0.4363970000000  0.5087370000000 1.0
C      1  0.4340260000000  0.4660530000000  0.5356750000000 1.0
C      1  0.4454990000000  0.5150510000000  0.4583210000000 1.0
C      1  0.5486250000000  0.5122190000000  0.5369280000000 1.0
C      1  0.5619450000000  0.4385150000000  0.4757470000000 1.0
C      1  0.4635530000000  0.5663520000000  0.4688270000000 1.0
C      1  0.4555910000000  0.4755320000000  0.5521990000000 1.0
C      1  0.4422390000000  0.4608100000000  0.5089660000000 1.0
C      1  0.5591160000000  0.5294560000000  0.5173180000000 1.0
C      1  0.4325930000000  0.5305830000000  0.4791100000000 1.0
C      1  0.5242380000000  0.5598090000000  0.5198030000000 1.0
C      1  0.4734240000000  0.4378740000000  0.5304380000000 1.0
C      1  0.5201260000000  0.4611540000000  0.4723720000000 1.0
C      1  0.5568390000000  0.4808790000000  0.4510510000000 1.0
C      1  0.4622480000000  0.5307400000000  0.4410240000000 1.0
C      1  0.5346790000000  0.5278640000000  0.5555010000000 1.0
C      1  0.5336580000000  0.4896800000000  0.5235330000000 1.0
C      1  0.5039210000000  0.5270880000000  0.5241850000000 1.0
C      1  0.4613600000000  0.4928440000000  0.4702410000000 1.0
C      1  0.4616640000000  0.5043400000000  0.5453310000000 1.0
C      1  0.5565030000000  0.5024820000000  0.4732930000000 1.0
C      1  0.4959600000000  0.5301880000000  0.4740950000000 1.0
C      1  0.5002760000000  0.4794720000000  0.5336080000000 1.0
C      1  0.5056220000000  0.4841900000000  0.4845420000000 1.0
C      1  0.4573090000000  0.5370530000000  0.5083330000000 1.0
C      1  0.4592240000000  0.4848240000000  0.5007350000000 1.0
C      1  0.5522270000000  0.4692430000000  0.5111130000000 1.0
C      1  0.5304450000000  0.5304510000000  0.4796280000000 1.0
C      1  0.4861750000000  0.5360400000000  0.5020610000000 1.0
C      1  0.4915780000000  0.5063980000000  0.5431960000000 1.0
C      1  0.4880040000000  0.4761410000000  0.5064090000000 1.0
C      1  0.4897190000000  0.5008810000000  0.4662600000000 1.0
C      1  0.5718360000000  0.4827880000000  0.4925250000000 1.0
C      1  0.4500250000000  0.5089840000000  0.5181820000000 1.0
C      1  0.5256690000000  0.5022270000000  0.4966440000000 1.0
END
