TITL C-3577077-324-183 -1.08152521052814e-06 125000 -219.075934167434 0 0 39 (D3h) n - 1
REM
REM in /home/bkarasulu/work/CARBON/AIRSS/Generating-Clusters/EDIP-Nigel-Params/with-SteepDescent/Higher-Symm/SD-CG/HFTN-CG
REM
REM
REM
REM
REM
REM ./C.cell (12c818d87b63d06a65506943cc24bca4)
REM
REM compiler GCC version 9.2.1 20190827 (Red Hat 9.2.1-1)
REM options -cpp -mtune=generic -march=x86-64 -g -O0 -fpre-include=/usr/include/finclude/math-vector-fortran.h
REM seed -1791911243 -1430924286 -520758498 -316529628 -1980284614 934552496 -1696027491 451358551 -1618494822 -1607606426 212960503 -2080034687 -1302762679 1175957960 341921637 -427335294 -753860590 556315278 307760269 -1994943201 -1554406282 -2145444098 -1365661233 387344459 -581259148 997122937 -1163671033 812420527 278585415 249801301 -223594564 1233623511 -1726731006
REM
CELL 1.54180   50.00000   50.00000   50.00000   90.00000   90.00000   90.00000
LATT -1
SFAC C  
C      1  0.5390190000000  0.4716140000000  0.4549120000000 1.0
C      1  0.5055920000000  0.5476860000000  0.4546660000000 1.0
C      1  0.4564270000000  0.4807000000000  0.4543040000000 1.0
C      1  0.5383270000000  0.4716140000000  0.5487980000000 1.0
C      1  0.5049000000000  0.5476860000000  0.5485520000000 1.0
C      1  0.4557350000000  0.4807000000000  0.5481900000000 1.0
C      1  0.5390190000000  0.5283860000000  0.4549120000000 1.0
C      1  0.5055920000000  0.4523140000000  0.4546660000000 1.0
C      1  0.4564270000000  0.5193000000000  0.4543040000000 1.0
C      1  0.5383270000000  0.5283860000000  0.5487980000000 1.0
C      1  0.5049000000000  0.4523140000000  0.5485520000000 1.0
C      1  0.4557350000000  0.5193000000000  0.5481900000000 1.0
C      1  0.4706480000000  0.5221700000000  0.4791550000000 1.0
C      1  0.4957220000000  0.4633530000000  0.4793400000000 1.0
C      1  0.5341210000000  0.5144770000000  0.4796230000000 1.0
C      1  0.4703210000000  0.5221700000000  0.5235500000000 1.0
C      1  0.4953950000000  0.4633530000000  0.5237350000000 1.0
C      1  0.5337940000000  0.5144770000000  0.5240180000000 1.0
C      1  0.4706480000000  0.4778300000000  0.4791550000000 1.0
C      1  0.4957220000000  0.5366470000000  0.4793400000000 1.0
C      1  0.5341210000000  0.4855230000000  0.4796230000000 1.0
C      1  0.4703210000000  0.4778300000000  0.5235510000000 1.0
C      1  0.4953950000000  0.5366470000000  0.5237350000000 1.0
C      1  0.5337940000000  0.4855230000000  0.5240180000000 1.0
C      1  0.4278050000000  0.5139130000000  0.5492600000000 1.0
C      1  0.5235170000000  0.4308270000000  0.5499660000000 1.0
C      1  0.5476130000000  0.5552610000000  0.5501430000000 1.0
C      1  0.4285150000000  0.5139120000000  0.4528220000000 1.0
C      1  0.5242270000000  0.4308270000000  0.4535270000000 1.0
C      1  0.5483230000000  0.5552600000000  0.4537040000000 1.0
C      1  0.4278050000000  0.4860880000000  0.5492610000000 1.0
C      1  0.5235160000000  0.5691730000000  0.5499650000000 1.0
C      1  0.5476130000000  0.4447400000000  0.5501430000000 1.0
C      1  0.4285150000000  0.4860870000000  0.4528220000000 1.0
C      1  0.5242270000000  0.5691730000000  0.4535260000000 1.0
C      1  0.5483230000000  0.4447390000000  0.4537040000000 1.0
C      1  0.5168080000000  0.4708870000000  0.5016940000000 1.0
C      1  0.5168080000000  0.5291130000000  0.5016940000000 1.0
C      1  0.4663840000000  0.5000000000000  0.5013230000000 1.0
END
