TITL C-3577084-3642-527 -7.43038665153467e-07 125000 -381.317337990216 0 0 62 (C1) n - 1
REM
REM in /home/bkarasulu/work/CARBON/AIRSS/Generating-Clusters/EDIP-Nigel-Params/with-SteepDescent/Higher-Symm/SD-CG/HFTN-CG
REM
REM
REM
REM
REM
REM ./C.cell (12c818d87b63d06a65506943cc24bca4)
REM
REM compiler GCC version 9.2.1 20190827 (Red Hat 9.2.1-1)
REM options -cpp -mtune=generic -march=x86-64 -g -O0 -fpre-include=/usr/include/finclude/math-vector-fortran.h
REM seed -1773590217 18917489 500856930 -252636809 -865033310 2005387680 562148165 -1603552751 -1806905076 -244344969 686171122 -1195484757 -783266388 -2038244588 1801766315 -1514862423 1748728283 -1278266647 1261684606 -284967567 -1533510461 1275715589 1195077679 -1102240219 1002709020 -1642414568 1937446537 -155963562 1928385565 662801740 -1915585393 -1494906772 -647848435
REM
CELL 1.54180   50.00000   50.00000   50.00000   90.00000   90.00000   90.00000
LATT -1
SFAC C  
C      1  0.4897010000000  0.4756580000000  0.4547450000000 1.0
C      1  0.4820560000000  0.5113950000000  0.5483040000000 1.0
C      1  0.5137240000000  0.5196380000000  0.4500290000000 1.0
C      1  0.5251460000000  0.4877460000000  0.5474710000000 1.0
C      1  0.5556640000000  0.5284680000000  0.4933310000000 1.0
C      1  0.5269400000000  0.4549330000000  0.5035250000000 1.0
C      1  0.4564500000000  0.4730240000000  0.4969400000000 1.0
C      1  0.4695740000000  0.5446720000000  0.5045350000000 1.0
C      1  0.5500990000000  0.4685990000000  0.4501260000000 1.0
C      1  0.4654210000000  0.4441840000000  0.5493680000000 1.0
C      1  0.4439560000000  0.5343190000000  0.4487760000000 1.0
C      1  0.5288670000000  0.5514470000000  0.5516390000000 1.0
C      1  0.5559630000000  0.5331940000000  0.5217330000000 1.0
C      1  0.5329820000000  0.4394730000000  0.4789010000000 1.0
C      1  0.4358430000000  0.4661380000000  0.5178380000000 1.0
C      1  0.4655930000000  0.5615560000000  0.4812590000000 1.0
C      1  0.4908600000000  0.4398400000000  0.5350790000000 1.0
C      1  0.4402530000000  0.5087280000000  0.4629760000000 1.0
C      1  0.5026990000000  0.5582690000000  0.5393260000000 1.0
C      1  0.5596780000000  0.4934150000000  0.4623720000000 1.0
C      1  0.4667000000000  0.4662700000000  0.5669690000000 1.0
C      1  0.4675760000000  0.5340000000000  0.4335190000000 1.0
C      1  0.5293450000000  0.5256220000000  0.5689720000000 1.0
C      1  0.5259890000000  0.4701020000000  0.4316630000000 1.0
C      1  0.4610980000000  0.4667830000000  0.4481900000000 1.0
C      1  0.4658240000000  0.5368440000000  0.5517440000000 1.0
C      1  0.5406640000000  0.5333960000000  0.4481990000000 1.0
C      1  0.5340370000000  0.4588330000000  0.5516060000000 1.0
C      1  0.5414130000000  0.5467580000000  0.4754280000000 1.0
C      1  0.5481910000000  0.4579800000000  0.5248370000000 1.0
C      1  0.4580190000000  0.4523470000000  0.4742490000000 1.0
C      1  0.4499290000000  0.5400810000000  0.5260280000000 1.0
C      1  0.4421920000000  0.4869380000000  0.4457200000000 1.0
C      1  0.4813760000000  0.5594480000000  0.5576770000000 1.0
C      1  0.5616530000000  0.5152000000000  0.4446560000000 1.0
C      1  0.5130370000000  0.4405790000000  0.5521200000000 1.0
C      1  0.4948260000000  0.5121450000000  0.5210110000000 1.0
C      1  0.5136890000000  0.5111130000000  0.4803820000000 1.0
C      1  0.5138050000000  0.4893860000000  0.5178000000000 1.0
C      1  0.4893220000000  0.4905390000000  0.4830200000000 1.0
C      1  0.4923810000000  0.5403420000000  0.4450630000000 1.0
C      1  0.5531400000000  0.5087570000000  0.5628780000000 1.0
C      1  0.5086800000000  0.4467890000000  0.4371880000000 1.0
C      1  0.4630500000000  0.4885900000000  0.5501170000000 1.0
C      1  0.4425480000000  0.4435430000000  0.5329390000000 1.0
C      1  0.4428050000000  0.5569340000000  0.4654310000000 1.0
C      1  0.5521250000000  0.5571380000000  0.5357630000000 1.0
C      1  0.5557370000000  0.4442110000000  0.4633960000000 1.0
C      1  0.4561780000000  0.5052310000000  0.4889520000000 1.0
C      1  0.4974580000000  0.5414300000000  0.5140180000000 1.0
C      1  0.5451980000000  0.5006730000000  0.4882130000000 1.0
C      1  0.4950090000000  0.4562860000000  0.5097100000000 1.0
C      1  0.5076300000000  0.4369340000000  0.4645900000000 1.0
C      1  0.4386740000000  0.4909090000000  0.5337770000000 1.0
C      1  0.4920240000000  0.5590810000000  0.4676100000000 1.0
C      1  0.5616660000000  0.5083310000000  0.5351960000000 1.0
C      1  0.5569650000000  0.4856660000000  0.5156900000000 1.0
C      1  0.4849030000000  0.4421720000000  0.4837440000000 1.0
C      1  0.4392250000000  0.5141270000000  0.5148140000000 1.0
C      1  0.5126080000000  0.5493320000000  0.4871540000000 1.0
C      1  0.5067060000000  0.4939930000000  0.4347740000000 1.0
C      1  0.5056240000000  0.5056210000000  0.5669170000000 1.0
END
