TITL C-3577084-3642-205 -1.19588601309233e-06 125000 -1160.40257698641 0 0 185 (C1) n - 1
REM
REM in /home/bkarasulu/work/CARBON/AIRSS/Generating-Clusters/EDIP-Nigel-Params/with-SteepDescent/Higher-Symm/SD-CG/HFTN-CG
REM
REM
REM
REM
REM
REM ./C.cell (12c818d87b63d06a65506943cc24bca4)
REM
REM compiler GCC version 9.2.1 20190827 (Red Hat 9.2.1-1)
REM options -cpp -mtune=generic -march=x86-64 -g -O0 -fpre-include=/usr/include/finclude/math-vector-fortran.h
REM seed -1573310469 1687298543 -983312103 561107691 -599059729 472897193 479779582 724202868 -140149219 465782097 788254154 -781295345 35593936 -1627575725 2118687595 143660057 1079995654 -1507350096 -1008680244 378614816 1380111662 -309862132 -1710173981 2105558366 -376384920 -1446248254 -589713821 2036199964 -1552901140 -258908457 481148827 1135446794 -1340142755
REM
CELL 1.54180   50.00000   50.00000   50.00000   90.00000   90.00000   90.00000
LATT -1
SFAC C  
C      1  0.4816380000000  0.5905360000000  0.4371580000000 1.0
C      1  0.4820510000000  0.5882300000000  0.5672600000000 1.0
C      1  0.4831100000000  0.4635010000000  0.6045060000000 1.0
C      1  0.4882120000000  0.3896410000000  0.5007170000000 1.0
C      1  0.4815450000000  0.4624790000000  0.3950260000000 1.0
C      1  0.5120280000000  0.5889310000000  0.4332350000000 1.0
C      1  0.5124970000000  0.5900190000000  0.5645420000000 1.0
C      1  0.5132190000000  0.4656120000000  0.6034400000000 1.0
C      1  0.5185420000000  0.3906410000000  0.4987790000000 1.0
C      1  0.5104970000000  0.4638350000000  0.3945730000000 1.0
C      1  0.4794720000000  0.5415130000000  0.5103230000000 1.0
C      1  0.4790620000000  0.5039090000000  0.5426210000000 1.0
C      1  0.4785870000000  0.4600770000000  0.5185000000000 1.0
C      1  0.4785330000000  0.4705170000000  0.4695720000000 1.0
C      1  0.4790670000000  0.5216260000000  0.4647870000000 1.0
C      1  0.5233500000000  0.5444560000000  0.5054930000000 1.0
C      1  0.5232300000000  0.5083170000000  0.5427880000000 1.0
C      1  0.5228710000000  0.4628810000000  0.5184980000000 1.0
C      1  0.5225650000000  0.4721770000000  0.4673910000000 1.0
C      1  0.5231350000000  0.5207130000000  0.4603040000000 1.0
C      1  0.6206520000000  0.4785550000000  0.4848000000000 1.0
C      1  0.6211710000000  0.5073580000000  0.4758490000000 1.0
C      1  0.6222550000000  0.5248370000000  0.5002390000000 1.0
C      1  0.6222230000000  0.5065380000000  0.5241340000000 1.0
C      1  0.6222450000000  0.4779280000000  0.5145690000000 1.0
C      1  0.3854920000000  0.4809070000000  0.4833900000000 1.0
C      1  0.3869940000000  0.5089790000000  0.4759830000000 1.0
C      1  0.3867980000000  0.5259050000000  0.4996340000000 1.0
C      1  0.3848060000000  0.5089300000000  0.5231520000000 1.0
C      1  0.3836160000000  0.4810510000000  0.5131250000000 1.0
C      1  0.4820310000000  0.4411790000000  0.5837210000000 1.0
C      1  0.4859610000000  0.4041620000000  0.4714970000000 1.0
C      1  0.4856080000000  0.5001450000000  0.4020190000000 1.0
C      1  0.4853430000000  0.5957790000000  0.4682220000000 1.0
C      1  0.4844110000000  0.5602040000000  0.5813840000000 1.0
C      1  0.5150260000000  0.4441350000000  0.5799260000000 1.0
C      1  0.5179270000000  0.4038350000000  0.4712310000000 1.0
C      1  0.5141720000000  0.4928280000000  0.3941060000000 1.0
C      1  0.5166320000000  0.5940880000000  0.4638520000000 1.0
C      1  0.5161890000000  0.5622920000000  0.5781130000000 1.0
C      1  0.4374580000000  0.5076010000000  0.4238800000000 1.0
C      1  0.4386720000000  0.5753540000000  0.4835810000000 1.0
C      1  0.4382430000000  0.5390920000000  0.5665240000000 1.0
C      1  0.4370880000000  0.4487960000000  0.5543610000000 1.0
C      1  0.4369410000000  0.4241390000000  0.4711140000000 1.0
C      1  0.5589470000000  0.5092110000000  0.4275390000000 1.0
C      1  0.5618100000000  0.5730480000000  0.4855770000000 1.0
C      1  0.5612030000000  0.5349410000000  0.5636990000000 1.0
C      1  0.5655870000000  0.4501090000000  0.5584100000000 1.0
C      1  0.5637160000000  0.4304900000000  0.4681710000000 1.0
C      1  0.4789350000000  0.5428800000000  0.3951350000000 1.0
C      1  0.4758970000000  0.6170570000000  0.5107770000000 1.0
C      1  0.4755140000000  0.5264500000000  0.6141660000000 1.0
C      1  0.4736430000000  0.4008420000000  0.5663370000000 1.0
C      1  0.4790720000000  0.4116210000000  0.4272540000000 1.0
C      1  0.5267980000000  0.5382150000000  0.3871100000000 1.0
C      1  0.5223740000000  0.6163060000000  0.5022060000000 1.0
C      1  0.5227160000000  0.5326560000000  0.6107700000000 1.0
C      1  0.5227950000000  0.4046970000000  0.5606530000000 1.0
C      1  0.5232920000000  0.4075350000000  0.4273210000000 1.0
C      1  0.5882810000000  0.5561560000000  0.5244330000000 1.0
C      1  0.5894180000000  0.4931270000000  0.5610770000000 1.0
C      1  0.5885930000000  0.4347910000000  0.5139040000000 1.0
C      1  0.5851660000000  0.4690990000000  0.4494780000000 1.0
C      1  0.5884930000000  0.5413140000000  0.4536820000000 1.0
C      1  0.4135240000000  0.5614170000000  0.5269840000000 1.0
C      1  0.4134810000000  0.4940610000000  0.5656040000000 1.0
C      1  0.4123990000000  0.4397140000000  0.5125860000000 1.0
C      1  0.4126520000000  0.4672740000000  0.4414080000000 1.0
C      1  0.4129500000000  0.5450120000000  0.4506230000000 1.0
C      1  0.4545470000000  0.5254220000000  0.5070810000000 1.0
C      1  0.4541150000000  0.5018330000000  0.5271010000000 1.0
C      1  0.4538330000000  0.4746430000000  0.5116010000000 1.0
C      1  0.4559910000000  0.4835590000000  0.4830890000000 1.0
C      1  0.4545670000000  0.5133480000000  0.4791800000000 1.0
C      1  0.5481490000000  0.5279490000000  0.5049880000000 1.0
C      1  0.5478960000000  0.5043700000000  0.5264720000000 1.0
C      1  0.5474620000000  0.4777210000000  0.5101720000000 1.0
C      1  0.5476130000000  0.4835260000000  0.4790110000000 1.0
C      1  0.5480850000000  0.5149510000000  0.4756890000000 1.0
C      1  0.4405050000000  0.6050420000000  0.4874840000000 1.0
C      1  0.4397010000000  0.5445220000000  0.5959780000000 1.0
C      1  0.4365280000000  0.4238620000000  0.5708270000000 1.0
C      1  0.4414050000000  0.4040500000000  0.4490270000000 1.0
C      1  0.4406620000000  0.5209640000000  0.3970860000000 1.0
C      1  0.5611080000000  0.6038920000000  0.4855740000000 1.0
C      1  0.5610860000000  0.5445910000000  0.5929880000000 1.0
C      1  0.5609520000000  0.4237420000000  0.5725060000000 1.0
C      1  0.5617050000000  0.4075010000000  0.4487610000000 1.0
C      1  0.5629710000000  0.5162630000000  0.3983480000000 1.0
C      1  0.5541160000000  0.5464150000000  0.3980690000000 1.0
C      1  0.5504350000000  0.6108850000000  0.5141420000000 1.0
C      1  0.5507600000000  0.5195210000000  0.6084290000000 1.0
C      1  0.5530490000000  0.4036220000000  0.5501600000000 1.0
C      1  0.5510570000000  0.4199750000000  0.4215240000000 1.0
C      1  0.4485510000000  0.5503120000000  0.4034640000000 1.0
C      1  0.4466730000000  0.6090040000000  0.5178690000000 1.0
C      1  0.4461270000000  0.5168330000000  0.6091800000000 1.0
C      1  0.4467630000000  0.4010640000000  0.5512580000000 1.0
C      1  0.4489600000000  0.4205550000000  0.4234890000000 1.0
C      1  0.6005630000000  0.5453350000000  0.5004450000000 1.0
C      1  0.6008560000000  0.5127980000000  0.5433020000000 1.0
C      1  0.6035200000000  0.4584880000000  0.5279110000000 1.0
C      1  0.5977530000000  0.4633790000000  0.4746350000000 1.0
C      1  0.5988470000000  0.5145080000000  0.4577210000000 1.0
C      1  0.3994820000000  0.5519780000000  0.5009050000000 1.0
C      1  0.3997180000000  0.5155040000000  0.5478530000000 1.0
C      1  0.4017930000000  0.4631670000000  0.5262290000000 1.0
C      1  0.4023480000000  0.4612780000000  0.4691580000000 1.0
C      1  0.3983310000000  0.5173470000000  0.4507540000000 1.0
C      1  0.5488280000000  0.5869260000000  0.5307000000000 1.0
C      1  0.5489130000000  0.4965720000000  0.5905760000000 1.0
C      1  0.5554700000000  0.4159380000000  0.5233470000000 1.0
C      1  0.5483530000000  0.4491470000000  0.4244990000000 1.0
C      1  0.5500880000000  0.5567710000000  0.4259420000000 1.0
C      1  0.4461130000000  0.5828250000000  0.5321140000000 1.0
C      1  0.4455910000000  0.4950470000000  0.5887880000000 1.0
C      1  0.4514360000000  0.4126090000000  0.5243290000000 1.0
C      1  0.4446220000000  0.4497460000000  0.4280430000000 1.0
C      1  0.4460520000000  0.5555340000000  0.4325530000000 1.0
C      1  0.4785020000000  0.4386910000000  0.4724070000000 1.0
C      1  0.4790840000000  0.5088710000000  0.4387980000000 1.0
C      1  0.4808870000000  0.5657970000000  0.4922860000000 1.0
C      1  0.4805610000000  0.5282550000000  0.5599540000000 1.0
C      1  0.4803070000000  0.4527220000000  0.5467640000000 1.0
C      1  0.5218170000000  0.4425710000000  0.4705290000000 1.0
C      1  0.5253060000000  0.5090820000000  0.4331520000000 1.0
C      1  0.5304100000000  0.5628270000000  0.4823220000000 1.0
C      1  0.5301400000000  0.5358860000000  0.5532910000000 1.0
C      1  0.5237820000000  0.4593550000000  0.5484690000000 1.0
C      1  0.5195520000000  0.5839760000000  0.5356840000000 1.0
C      1  0.5197410000000  0.4915250000000  0.5897070000000 1.0
C      1  0.5277880000000  0.4143340000000  0.5130660000000 1.0
C      1  0.5191750000000  0.4549670000000  0.4222210000000 1.0
C      1  0.5206020000000  0.5594490000000  0.4305910000000 1.0
C      1  0.4737700000000  0.5772680000000  0.5418100000000 1.0
C      1  0.4737040000000  0.4846520000000  0.5868360000000 1.0
C      1  0.4807450000000  0.4121510000000  0.5192100000000 1.0
C      1  0.4698750000000  0.4640260000000  0.4210910000000 1.0
C      1  0.4732110000000  0.5631820000000  0.4409090000000 1.0
C      1  0.5323550000000  0.4202400000000  0.5852350000000 1.0
C      1  0.5347840000000  0.3911290000000  0.4504080000000 1.0
C      1  0.5357650000000  0.5096200000000  0.3818100000000 1.0
C      1  0.5340230000000  0.6155870000000  0.4736440000000 1.0
C      1  0.5341610000000  0.5595620000000  0.6011850000000 1.0
C      1  0.4623880000000  0.4188780000000  0.5883050000000 1.0
C      1  0.4702640000000  0.3917450000000  0.4490220000000 1.0
C      1  0.4684680000000  0.5163590000000  0.3838850000000 1.0
C      1  0.4685080000000  0.6175980000000  0.4806630000000 1.0
C      1  0.4675200000000  0.5551320000000  0.6058730000000 1.0
C      1  0.5613810000000  0.5036940000000  0.5639280000000 1.0
C      1  0.5613110000000  0.4461550000000  0.5284470000000 1.0
C      1  0.5589180000000  0.4558800000000  0.4521340000000 1.0
C      1  0.5609550000000  0.5356150000000  0.4443440000000 1.0
C      1  0.5611910000000  0.5639160000000  0.5153050000000 1.0
C      1  0.4408640000000  0.5094110000000  0.5624560000000 1.0
C      1  0.4400270000000  0.4406780000000  0.5249030000000 1.0
C      1  0.4435960000000  0.4504060000000  0.4581810000000 1.0
C      1  0.4404440000000  0.5281440000000  0.4459940000000 1.0
C      1  0.4412980000000  0.5619340000000  0.5103820000000 1.0
C      1  0.4855910000000  0.4809830000000  0.5594600000000 1.0
C      1  0.4869440000000  0.4372100000000  0.5028450000000 1.0
C      1  0.4842620000000  0.4804510000000  0.4419310000000 1.0
C      1  0.4862220000000  0.5505060000000  0.4645750000000 1.0
C      1  0.4863110000000  0.5501410000000  0.5373960000000 1.0
C      1  0.5152200000000  0.4853750000000  0.5605010000000 1.0
C      1  0.5163540000000  0.4390570000000  0.5013340000000 1.0
C      1  0.5141700000000  0.4794300000000  0.4398080000000 1.0
C      1  0.5159320000000  0.5489110000000  0.4589730000000 1.0
C      1  0.5159830000000  0.5541410000000  0.5328510000000 1.0
C      1  0.5846230000000  0.4963030000000  0.4402020000000 1.0
C      1  0.5887940000000  0.5586870000000  0.4770660000000 1.0
C      1  0.5878980000000  0.5387300000000  0.5476120000000 1.0
C      1  0.5919860000000  0.4642030000000  0.5548380000000 1.0
C      1  0.5884890000000  0.4374440000000  0.4840500000000 1.0
C      1  0.4116280000000  0.4964590000000  0.4332610000000 1.0
C      1  0.4128000000000  0.5619520000000  0.4762520000000 1.0
C      1  0.4128880000000  0.5420330000000  0.5506200000000 1.0
C      1  0.4129990000000  0.4665340000000  0.5530900000000 1.0
C      1  0.4105300000000  0.4359180000000  0.4828660000000 1.0
C      1  0.4937490000000  0.4162360000000  0.5494830000000 1.0
C      1  0.5042780000000  0.4295810000000  0.4382940000000 1.0
C      1  0.4988320000000  0.5952840000000  0.5101020000000 1.0
C      1  0.4986810000000  0.5202280000000  0.5933850000000 1.0
C      1  0.5081230000000  0.5358490000000  0.4108240000000 1.0
END
