TITL C-3578197-9521-230 -1.57284231886566e-06 125000 -501.221865772252 0 0 81 (C1) n - 1
REM
REM in /home/bkarasulu/work/CARBON/AIRSS/Generating-Clusters/EDIP-Nigel-Params/with-SteepDescent/Higher-Symm/SD-CG/HFTN-CG
REM
REM
REM
REM
REM
REM ./C.cell (12c818d87b63d06a65506943cc24bca4)
REM
REM compiler GCC version 9.2.1 20190827 (Red Hat 9.2.1-1)
REM options -cpp -mtune=generic -march=x86-64 -g -O0 -fpre-include=/usr/include/finclude/math-vector-fortran.h
REM seed 2068510087 714456208 1203839675 1892333926 -1907174023 1572955758 485496227 1041388035 -1139128687 -1005803610 296440023 1072804793 -1901747562 375408468 -2070549850 705670231 1208531732 1245024348 85829736 -663700130 -1557305389 308180877 730882149 391008857 -1242126412 -1866041220 -596910937 -1052543272 -1319277856 1992762140 1595029091 -575939604 -865003707
REM
CELL 1.54180   50.00000   50.00000   50.00000   90.00000   90.00000   90.00000
LATT -1
SFAC C  
C      1  0.5556410000000  0.4898310000000  0.5503920000000 1.0
C      1  0.5104440000000  0.5536410000000  0.4526000000000 1.0
C      1  0.4485300000000  0.5120840000000  0.5434830000000 1.0
C      1  0.4881720000000  0.4503360000000  0.4524110000000 1.0
C      1  0.5877230000000  0.5023040000000  0.4762870000000 1.0
C      1  0.5015930000000  0.5757900000000  0.5091830000000 1.0
C      1  0.4152490000000  0.5065570000000  0.4834760000000 1.0
C      1  0.5042760000000  0.4097620000000  0.5283900000000 1.0
C      1  0.4483180000000  0.4281570000000  0.5093510000000 1.0
C      1  0.5674650000000  0.4527110000000  0.4875990000000 1.0
C      1  0.5507630000000  0.5619510000000  0.5123920000000 1.0
C      1  0.4303480000000  0.5535620000000  0.4848680000000 1.0
C      1  0.4298560000000  0.5533040000000  0.4567550000000 1.0
C      1  0.4558190000000  0.4315540000000  0.5360940000000 1.0
C      1  0.5696330000000  0.4528730000000  0.4594430000000 1.0
C      1  0.5481360000000  0.5701670000000  0.5391170000000 1.0
C      1  0.5842890000000  0.5206110000000  0.4984170000000 1.0
C      1  0.4788530000000  0.5611960000000  0.4948900000000 1.0
C      1  0.4177130000000  0.4830060000000  0.4998130000000 1.0
C      1  0.4992940000000  0.4221070000000  0.5033790000000 1.0
C      1  0.4877410000000  0.5099580000000  0.4469920000000 1.0
C      1  0.4942950000000  0.4878280000000  0.5569450000000 1.0
C      1  0.5122350000000  0.4906740000000  0.4430140000000 1.0
C      1  0.5052050000000  0.5154310000000  0.5589430000000 1.0
C      1  0.5027640000000  0.4721540000000  0.5115260000000 1.0
C      1  0.5383650000000  0.4955200000000  0.4879940000000 1.0
C      1  0.5100220000000  0.5259310000000  0.5117580000000 1.0
C      1  0.4624830000000  0.5168400000000  0.4919920000000 1.0
C      1  0.5693530000000  0.5025090000000  0.4532610000000 1.0
C      1  0.4976530000000  0.5693900000000  0.5382750000000 1.0
C      1  0.4270810000000  0.5033700000000  0.4561280000000 1.0
C      1  0.5040850000000  0.4313990000000  0.5466260000000 1.0
C      1  0.5351460000000  0.4748030000000  0.5675140000000 1.0
C      1  0.5242920000000  0.5324870000000  0.4357220000000 1.0
C      1  0.4625370000000  0.5239240000000  0.5669010000000 1.0
C      1  0.4711740000000  0.4703910000000  0.4367370000000 1.0
C      1  0.4326600000000  0.4484450000000  0.4927500000000 1.0
C      1  0.5451960000000  0.4398300000000  0.5034150000000 1.0
C      1  0.5713570000000  0.5498610000000  0.4921960000000 1.0
C      1  0.4497800000000  0.5699170000000  0.5011450000000 1.0
C      1  0.5673640000000  0.4710060000000  0.5307390000000 1.0
C      1  0.5308420000000  0.5636040000000  0.4705810000000 1.0
C      1  0.4332070000000  0.5319310000000  0.5273810000000 1.0
C      1  0.4674610000000  0.4368060000000  0.4673070000000 1.0
C      1  0.4806790000000  0.5342280000000  0.5110800000000 1.0
C      1  0.4473500000000  0.4830760000000  0.5024320000000 1.0
C      1  0.5153530000000  0.4467580000000  0.4966770000000 1.0
C      1  0.5550610000000  0.5180830000000  0.5075210000000 1.0
C      1  0.4825390000000  0.5144710000000  0.4166370000000 1.0
C      1  0.4840590000000  0.4825960000000  0.5842340000000 1.0
C      1  0.5126960000000  0.4828020000000  0.4140150000000 1.0
C      1  0.5117820000000  0.5156560000000  0.5879190000000 1.0
C      1  0.4420300000000  0.5287850000000  0.4496850000000 1.0
C      1  0.4778980000000  0.4455010000000  0.5466250000000 1.0
C      1  0.5573260000000  0.4750650000000  0.4475070000000 1.0
C      1  0.5239350000000  0.5577440000000  0.5474230000000 1.0
C      1  0.5248890000000  0.5593510000000  0.4990930000000 1.0
C      1  0.4335890000000  0.5267200000000  0.4973960000000 1.0
C      1  0.4717400000000  0.4232490000000  0.4925510000000 1.0
C      1  0.5706270000000  0.4787030000000  0.5014220000000 1.0
C      1  0.5215140000000  0.4879040000000  0.5914870000000 1.0
C      1  0.5111250000000  0.5211160000000  0.4112140000000 1.0
C      1  0.4745430000000  0.5099030000000  0.5899780000000 1.0
C      1  0.4819790000000  0.4841430000000  0.4114680000000 1.0
C      1  0.4830380000000  0.5532270000000  0.4656920000000 1.0
C      1  0.4564930000000  0.4869760000000  0.5295320000000 1.0
C      1  0.5147350000000  0.4532480000000  0.4670770000000 1.0
C      1  0.5504640000000  0.5164640000000  0.5376450000000 1.0
C      1  0.4465090000000  0.5592870000000  0.5294930000000 1.0
C      1  0.4408320000000  0.4479690000000  0.4641020000000 1.0
C      1  0.5513810000000  0.4459610000000  0.5319030000000 1.0
C      1  0.5569320000000  0.5508630000000  0.4655120000000 1.0
C      1  0.5523420000000  0.5276300000000  0.4478380000000 1.0
C      1  0.4734240000000  0.5482300000000  0.5394940000000 1.0
C      1  0.4425600000000  0.4718270000000  0.4464020000000 1.0
C      1  0.5291370000000  0.4485900000000  0.5514600000000 1.0
C      1  0.4822680000000  0.4728830000000  0.5349630000000 1.0
C      1  0.5311130000000  0.4780910000000  0.4614230000000 1.0
C      1  0.5229610000000  0.5287130000000  0.5397970000000 1.0
C      1  0.4688200000000  0.5269690000000  0.4630300000000 1.0
C      1  0.5132110000000  0.4975930000000  0.5019220000000 1.0
END
