TITL C-3578208-4450-534 2.70542433233416e-07 125000 -157.509813827944 0 0 29 (C2) n - 1
REM
REM in /home/bkarasulu/work/CARBON/AIRSS/Generating-Clusters/EDIP-Nigel-Params/with-SteepDescent/Higher-Symm/SD-CG/HFTN-CG
REM
REM
REM
REM
REM
REM ./C.cell (12c818d87b63d06a65506943cc24bca4)
REM
REM compiler GCC version 9.2.1 20190827 (Red Hat 9.2.1-1)
REM options -cpp -mtune=generic -march=x86-64 -g -O0 -fpre-include=/usr/include/finclude/math-vector-fortran.h
REM seed -335610039 -438284123 253481875 -1690198596 310225786 -1004158752 1426583750 1475040714 -48240497 1117233093 1635416107 -1759626658 5758761 -708965993 558571427 -305156257 1053776397 997116342 1177288252 -600005046 1487320298 1113276324 709236532 -1611083710 -390541432 1599795491 -959478060 -1320565228 407158676 545566783 -1173255093 1298705729 -593197746
REM
CELL 1.54180   50.00000   50.00000   50.00000   90.00000   90.00000   90.00000
LATT -1
SFAC C  
C      1  0.5400570000000  0.5091060000000  0.5143610000000 1.0
C      1  0.5400380000000  0.4908610000000  0.4834330000000 1.0
C      1  0.4866790000000  0.5461990000000  0.5576350000000 1.0
C      1  0.4865910000000  0.4538440000000  0.4401800000000 1.0
C      1  0.4553930000000  0.4620370000000  0.4745120000000 1.0
C      1  0.4554560000000  0.5380490000000  0.5233150000000 1.0
C      1  0.5283000000000  0.5350510000000  0.5183960000000 1.0
C      1  0.5282430000000  0.4649330000000  0.4794020000000 1.0
C      1  0.5029450000000  0.4554850000000  0.4851130000000 1.0
C      1  0.5030120000000  0.5445340000000  0.5126950000000 1.0
C      1  0.4686840000000  0.4584780000000  0.5235750000000 1.0
C      1  0.4687320000000  0.5415890000000  0.4742470000000 1.0
C      1  0.5149150000000  0.5534040000000  0.4641280000000 1.0
C      1  0.5148540000000  0.4465990000000  0.5336750000000 1.0
C      1  0.4780680000000  0.4852830000000  0.5204500000000 1.0
C      1  0.4780800000000  0.5147710000000  0.4773680000000 1.0
C      1  0.4439770000000  0.4831850000000  0.4876690000000 1.0
C      1  0.4440050000000  0.5169170000000  0.5101630000000 1.0
C      1  0.4815430000000  0.4578700000000  0.4658560000000 1.0
C      1  0.4816150000000  0.5421790000000  0.5319610000000 1.0
C      1  0.4966430000000  0.4577290000000  0.5141490000000 1.0
C      1  0.4966970000000  0.5422990000000  0.4836620000000 1.0
C      1  0.5630890000000  0.4965610000000  0.4660070000000 1.0
C      1  0.5631070000000  0.5033730000000  0.5317780000000 1.0
C      1  0.5388640000000  0.4919190000000  0.5410830000000 1.0
C      1  0.5388580000000  0.5080500000000  0.4567110000000 1.0
C      1  0.5330010000000  0.5346640000000  0.4589340000000 1.0
C      1  0.5329680000000  0.4653130000000  0.5388620000000 1.0
C      1  0.4631730000000  0.5000380000000  0.4989120000000 1.0
END
