TITL C-3578207-9274-148 -6.88294592730163e-07 125000 -596.615967617918 0 0 95 (C5) n - 1
REM
REM in /home/bkarasulu/work/CARBON/AIRSS/Generating-Clusters/EDIP-Nigel-Params/with-SteepDescent/Higher-Symm/SD-CG/HFTN-CG
REM
REM
REM
REM
REM
REM ./C.cell (12c818d87b63d06a65506943cc24bca4)
REM
REM compiler GCC version 9.2.1 20190827 (Red Hat 9.2.1-1)
REM options -cpp -mtune=generic -march=x86-64 -g -O0 -fpre-include=/usr/include/finclude/math-vector-fortran.h
REM seed 924274959 1339037455 -1601373393 -1973340526 1605753807 1576743767 -77996587 711926685 -1653580282 1766161888 1747553607 -1140044863 -1462478029 -1567844413 -982217581 399364836 -1232398291 -640387315 438416974 69368856 813176248 769653344 -511949294 -142956831 -1693303128 1801574773 -1152560758 1871407053 513055032 -545276545 999511069 -1436498045 -876809726
REM
CELL 1.54180   50.00000   50.00000   50.00000   90.00000   90.00000   90.00000
LATT -1
SFAC C  
C      1  0.5103190000000  0.4757830000000  0.4662020000000 1.0
C      1  0.4802690000000  0.4828610000000  0.4660550000000 1.0
C      1  0.4777140000000  0.5136280000000  0.4660450000000 1.0
C      1  0.5061860000000  0.5255650000000  0.4661860000000 1.0
C      1  0.5263370000000  0.5021750000000  0.4662830000000 1.0
C      1  0.5099890000000  0.4757780000000  0.5333490000000 1.0
C      1  0.4799390000000  0.4828560000000  0.5332020000000 1.0
C      1  0.4773840000000  0.5136230000000  0.5331910000000 1.0
C      1  0.5058560000000  0.5255600000000  0.5333320000000 1.0
C      1  0.5260070000000  0.5021710000000  0.5334290000000 1.0
C      1  0.5146940000000  0.5417810000000  0.5576780000000 1.0
C      1  0.5440830000000  0.4986620000000  0.5578190000000 1.0
C      1  0.5121580000000  0.4573870000000  0.5576590000000 1.0
C      1  0.4630370000000  0.4749960000000  0.5574190000000 1.0
C      1  0.4646050000000  0.5271540000000  0.5574300000000 1.0
C      1  0.5152630000000  0.5417890000000  0.4419300000000 1.0
C      1  0.5446520000000  0.4986700000000  0.4420720000000 1.0
C      1  0.5127260000000  0.4573950000000  0.4419120000000 1.0
C      1  0.4636060000000  0.4750040000000  0.4416720000000 1.0
C      1  0.4651740000000  0.5271620000000  0.4416830000000 1.0
C      1  0.4339910000000  0.5524820000000  0.4842870000000 1.0
C      1  0.5295660000000  0.5790680000000  0.4847580000000 1.0
C      1  0.5843840000000  0.4963860000000  0.4850220000000 1.0
C      1  0.5226890000000  0.4187000000000  0.4847130000000 1.0
C      1  0.4297420000000  0.4533690000000  0.4842590000000 1.0
C      1  0.4338430000000  0.5524800000000  0.5145260000000 1.0
C      1  0.5294170000000  0.5790660000000  0.5149980000000 1.0
C      1  0.5842350000000  0.4963840000000  0.5152610000000 1.0
C      1  0.5225400000000  0.4186980000000  0.5149520000000 1.0
C      1  0.4295930000000  0.4533670000000  0.5144980000000 1.0
C      1  0.4730500000000  0.4599080000000  0.4847400000000 1.0
C      1  0.4535920000000  0.5133120000000  0.4846480000000 1.0
C      1  0.4983690000000  0.5483210000000  0.4848700000000 1.0
C      1  0.5455010000000  0.5165530000000  0.4851000000000 1.0
C      1  0.5298530000000  0.4619110000000  0.4850190000000 1.0
C      1  0.4729040000000  0.4599060000000  0.5144440000000 1.0
C      1  0.4534460000000  0.5133100000000  0.5143520000000 1.0
C      1  0.4982230000000  0.5483190000000  0.5145740000000 1.0
C      1  0.5453550000000  0.5165510000000  0.5148040000000 1.0
C      1  0.5297070000000  0.4619090000000  0.5147230000000 1.0
C      1  0.4589070000000  0.5652260000000  0.4751320000000 1.0
C      1  0.5494160000000  0.5593540000000  0.4755760000000 1.0
C      1  0.5718000000000  0.4714590000000  0.4756800000000 1.0
C      1  0.4951250000000  0.4230090000000  0.4753000000000 1.0
C      1  0.4253530000000  0.4809610000000  0.4749610000000 1.0
C      1  0.4586670000000  0.5652230000000  0.5239270000000 1.0
C      1  0.5491760000000  0.5593500000000  0.5243710000000 1.0
C      1  0.5715600000000  0.4714550000000  0.5244750000000 1.0
C      1  0.4948850000000  0.4230050000000  0.5240950000000 1.0
C      1  0.4251130000000  0.4809570000000  0.5237560000000 1.0
C      1  0.4906510000000  0.4357830000000  0.5511370000000 1.0
C      1  0.4358670000000  0.4888040000000  0.5508720000000 1.0
C      1  0.4693620000000  0.5572920000000  0.5510410000000 1.0
C      1  0.5448490000000  0.5466000000000  0.5514110000000 1.0
C      1  0.5580060000000  0.4715030000000  0.5514710000000 1.0
C      1  0.4911570000000  0.4357900000000  0.4482190000000 1.0
C      1  0.4363720000000  0.4888110000000  0.4479540000000 1.0
C      1  0.4698680000000  0.5573000000000  0.4481230000000 1.0
C      1  0.5453550000000  0.5466070000000  0.4484930000000 1.0
C      1  0.5585120000000  0.4715100000000  0.4485530000000 1.0
C      1  0.4980480000000  0.5668670000000  0.4449500000000 1.0
C      1  0.5631730000000  0.5227780000000  0.4452670000000 1.0
C      1  0.5413670000000  0.4472160000000  0.4451540000000 1.0
C      1  0.4627660000000  0.4446050000000  0.4447680000000 1.0
C      1  0.4359930000000  0.5185530000000  0.4446420000000 1.0
C      1  0.4975100000000  0.5668590000000  0.5544930000000 1.0
C      1  0.5626340000000  0.5227710000000  0.5548090000000 1.0
C      1  0.5408290000000  0.4472080000000  0.5546970000000 1.0
C      1  0.4622270000000  0.4445970000000  0.5543100000000 1.0
C      1  0.4354540000000  0.5185450000000  0.5541840000000 1.0
C      1  0.5065920000000  0.4755740000000  0.5815720000000 1.0
C      1  0.4785350000000  0.4857960000000  0.5814350000000 1.0
C      1  0.4795860000000  0.5156390000000  0.5814430000000 1.0
C      1  0.5082930000000  0.5238620000000  0.5815840000000 1.0
C      1  0.5249840000000  0.4991000000000  0.5816650000000 1.0
C      1  0.5073960000000  0.4755860000000  0.4179480000000 1.0
C      1  0.4793390000000  0.4858080000000  0.4178100000000 1.0
C      1  0.4803900000000  0.5156510000000  0.4178180000000 1.0
C      1  0.5090970000000  0.5238730000000  0.4179590000000 1.0
C      1  0.5257880000000  0.4991120000000  0.4180400000000 1.0
C      1  0.5049780000000  0.5826740000000  0.4690050000000 1.0
C      1  0.5802670000000  0.5209580000000  0.4693700000000 1.0
C      1  0.5448380000000  0.4302820000000  0.4691900000000 1.0
C      1  0.4476530000000  0.4359570000000  0.4687130000000 1.0
C      1  0.4230190000000  0.5301400000000  0.4685980000000 1.0
C      1  0.5046760000000  0.5826690000000  0.5305090000000 1.0
C      1  0.5799650000000  0.5209540000000  0.5308750000000 1.0
C      1  0.5445360000000  0.4302780000000  0.5306940000000 1.0
C      1  0.4473510000000  0.4359530000000  0.5302170000000 1.0
C      1  0.4227160000000  0.5301360000000  0.5301030000000 1.0
C      1  0.4768230000000  0.4240000000000  0.4996080000000 1.0
C      1  0.5634210000000  0.5478620000000  0.5000420000000 1.0
C      1  0.5651170000000  0.4544720000000  0.5000440000000 1.0
C      1  0.4205590000000  0.4985570000000  0.4993370000000 1.0
C      1  0.4740790000000  0.5751080000000  0.4996050000000 1.0
END
