TITL C-3577080-309-382 -0.00735580960609389 125000 -683.839344783258 0 0 112 (Td) n - 1
REM
REM in /home/bkarasulu/work/CARBON/AIRSS/Generating-Clusters/EDIP-Nigel-Params/with-SteepDescent/Higher-Symm/SD-CG/HFTN-CG
REM
REM
REM
REM
REM
REM ./C.cell (12c818d87b63d06a65506943cc24bca4)
REM
REM compiler GCC version 9.2.1 20190827 (Red Hat 9.2.1-1)
REM options -cpp -mtune=generic -march=x86-64 -g -O0 -fpre-include=/usr/include/finclude/math-vector-fortran.h
REM seed 1306330266 -1944376435 -1765278711 1922598664 1174534273 -198173555 266712908 -1555758946 -1510921762 -1882380615 1260260683 -1240624455 -959649027 -21346443 2090276664 1267110066 648596251 -1219197304 -1199562511 -657909764 -815923029 1580992446 -978363702 979823724 -674200826 1216024742 -1717276746 675432325 2050133421 -2057851201 -1959838586 424171622 -1027015080
REM
CELL 1.54180   50.00000   50.00000   50.00000   90.00000   90.00000   90.00000
LATT -1
SFAC C  
C      1  0.5548320000000  0.5314700000000  0.4904170000000 1.0
C      1  0.5311980000000  0.4910260000000  0.5549590000000 1.0
C      1  0.4904860000000  0.5554360000000  0.5310360000000 1.0
C      1  0.4441160000000  0.4683110000000  0.4905570000000 1.0
C      1  0.5550400000000  0.4684350000000  0.5085940000000 1.0
C      1  0.4442030000000  0.5313810000000  0.5086180000000 1.0
C      1  0.4681280000000  0.5090850000000  0.5549110000000 1.0
C      1  0.5309500000000  0.5090440000000  0.4441660000000 1.0
C      1  0.4679150000000  0.4908630000000  0.4441510000000 1.0
C      1  0.5087140000000  0.4446740000000  0.5311140000000 1.0
C      1  0.4904880000000  0.4445990000000  0.4680810000000 1.0
C      1  0.5085020000000  0.5553960000000  0.4679560000000 1.0
C      1  0.5310110000000  0.5553830000000  0.4903830000000 1.0
C      1  0.4904980000000  0.5316670000000  0.5549790000000 1.0
C      1  0.5549290000000  0.4910150000000  0.5309660000000 1.0
C      1  0.4680610000000  0.4445430000000  0.4905890000000 1.0
C      1  0.4679780000000  0.5553390000000  0.5086090000000 1.0
C      1  0.5311410000000  0.4446200000000  0.5086050000000 1.0
C      1  0.5086780000000  0.4686310000000  0.5548900000000 1.0
C      1  0.5085360000000  0.5315820000000  0.4440560000000 1.0
C      1  0.4904780000000  0.4685120000000  0.4442600000000 1.0
C      1  0.4441350000000  0.5090290000000  0.5311800000000 1.0
C      1  0.4441840000000  0.4908510000000  0.4681440000000 1.0
C      1  0.5549430000000  0.5090770000000  0.4678960000000 1.0
C      1  0.5020990000000  0.5887350000000  0.5682760000000 1.0
C      1  0.5879620000000  0.5686990000000  0.5024770000000 1.0
C      1  0.5689100000000  0.5017600000000  0.5882790000000 1.0
C      1  0.4975620000000  0.4114100000000  0.5687020000000 1.0
C      1  0.5017040000000  0.4112870000000  0.4305540000000 1.0
C      1  0.4968260000000  0.5886040000000  0.4306540000000 1.0
C      1  0.4107770000000  0.4306590000000  0.5013310000000 1.0
C      1  0.5884520000000  0.4308270000000  0.4978890000000 1.0
C      1  0.4110010000000  0.5685230000000  0.4964900000000 1.0
C      1  0.4310260000000  0.4969330000000  0.5881060000000 1.0
C      1  0.5680750000000  0.4969020000000  0.4109920000000 1.0
C      1  0.4301820000000  0.5014640000000  0.4108110000000 1.0
C      1  0.5881020000000  0.5032280000000  0.5680680000000 1.0
C      1  0.5685360000000  0.5887170000000  0.5015360000000 1.0
C      1  0.5012020000000  0.5693370000000  0.5883210000000 1.0
C      1  0.4108150000000  0.4983630000000  0.5689120000000 1.0
C      1  0.4109880000000  0.5029320000000  0.4310190000000 1.0
C      1  0.5882830000000  0.4984070000000  0.4301840000000 1.0
C      1  0.4308220000000  0.4112640000000  0.5022650000000 1.0
C      1  0.4303880000000  0.5885800000000  0.4973940000000 1.0
C      1  0.5684440000000  0.4113910000000  0.4969910000000 1.0
C      1  0.4966200000000  0.4314650000000  0.5880900000000 1.0
C      1  0.4977600000000  0.5691710000000  0.4106450000000 1.0
C      1  0.5026080000000  0.4313080000000  0.4111290000000 1.0
C      1  0.5829490000000  0.4928090000000  0.5423790000000 1.0
C      1  0.4915820000000  0.5434280000000  0.5829020000000 1.0
C      1  0.5427220000000  0.5833170000000  0.4916480000000 1.0
C      1  0.4162390000000  0.5079680000000  0.5430070000000 1.0
C      1  0.5828410000000  0.5080480000000  0.4560720000000 1.0
C      1  0.4161610000000  0.4925690000000  0.4567280000000 1.0
C      1  0.5069830000000  0.4571600000000  0.5828920000000 1.0
C      1  0.4921950000000  0.4569930000000  0.4162800000000 1.0
C      1  0.5074300000000  0.5432900000000  0.4161120000000 1.0
C      1  0.4565820000000  0.4165330000000  0.4921050000000 1.0
C      1  0.5426740000000  0.4166290000000  0.5071410000000 1.0
C      1  0.4562130000000  0.5832480000000  0.5072930000000 1.0
C      1  0.4919490000000  0.5834490000000  0.5425160000000 1.0
C      1  0.5430230000000  0.4921070000000  0.5828540000000 1.0
C      1  0.5828120000000  0.5429950000000  0.4921130000000 1.0
C      1  0.5074510000000  0.4167620000000  0.5428770000000 1.0
C      1  0.5069860000000  0.5833840000000  0.4564240000000 1.0
C      1  0.4918050000000  0.4166680000000  0.4563680000000 1.0
C      1  0.4567150000000  0.5073430000000  0.5829340000000 1.0
C      1  0.4560880000000  0.4918710000000  0.4162530000000 1.0
C      1  0.5423660000000  0.5072730000000  0.4161460000000 1.0
C      1  0.4161950000000  0.4565510000000  0.4916620000000 1.0
C      1  0.4162000000000  0.5428480000000  0.5069010000000 1.0
C      1  0.5829840000000  0.4567260000000  0.5075100000000 1.0
C      1  0.5291850000000  0.4502400000000  0.5987970000000 1.0
C      1  0.4498190000000  0.5992130000000  0.5295990000000 1.0
C      1  0.5987690000000  0.5304520000000  0.4499590000000 1.0
C      1  0.4691600000000  0.5495600000000  0.5988080000000 1.0
C      1  0.5298400000000  0.5494370000000  0.4001940000000 1.0
C      1  0.4700070000000  0.4500010000000  0.4003870000000 1.0
C      1  0.5494360000000  0.4008250000000  0.5294660000000 1.0
C      1  0.4498510000000  0.4006740000000  0.4698090000000 1.0
C      1  0.5490850000000  0.5992540000000  0.4693120000000 1.0
C      1  0.4003160000000  0.4703330000000  0.4497550000000 1.0
C      1  0.5988360000000  0.4706150000000  0.5493920000000 1.0
C      1  0.4002680000000  0.5303510000000  0.5490790000000 1.0
C      1  0.4497010000000  0.5295660000000  0.5987800000000 1.0
C      1  0.5989030000000  0.4506220000000  0.5299320000000 1.0
C      1  0.5292810000000  0.5992310000000  0.4496630000000 1.0
C      1  0.5491370000000  0.4697340000000  0.5988250000000 1.0
C      1  0.5493380000000  0.5294800000000  0.4002590000000 1.0
C      1  0.4500170000000  0.4694570000000  0.4003240000000 1.0
C      1  0.4002950000000  0.5498090000000  0.5290900000000 1.0
C      1  0.4002880000000  0.4503750000000  0.4692520000000 1.0
C      1  0.5987050000000  0.5499460000000  0.4699120000000 1.0
C      1  0.4695000000000  0.4006890000000  0.4500040000000 1.0
C      1  0.4696240000000  0.5992650000000  0.5492480000000 1.0
C      1  0.5297870000000  0.4008380000000  0.5492710000000 1.0
C      1  0.5168020000000  0.5508520000000  0.5167860000000 1.0
C      1  0.4489970000000  0.5170810000000  0.4823910000000 1.0
C      1  0.5168830000000  0.4491790000000  0.4822900000000 1.0
C      1  0.5500660000000  0.5172100000000  0.5166700000000 1.0
C      1  0.4484790000000  0.4825310000000  0.5170040000000 1.0
C      1  0.4823110000000  0.4491770000000  0.5168960000000 1.0
C      1  0.5169730000000  0.5174970000000  0.5506160000000 1.0
C      1  0.4821960000000  0.5507870000000  0.4822140000000 1.0
C      1  0.5506500000000  0.4825980000000  0.4821210000000 1.0
C      1  0.4824250000000  0.4828820000000  0.5500970000000 1.0
C      1  0.4820890000000  0.5173690000000  0.4484450000000 1.0
C      1  0.5167040000000  0.4828220000000  0.4490280000000 1.0
C      1  0.5310910000000  0.4685000000000  0.4680890000000 1.0
C      1  0.4680650000000  0.4684970000000  0.5310620000000 1.0
C      1  0.4680310000000  0.5314400000000  0.4680050000000 1.0
C      1  0.5310040000000  0.5315580000000  0.5310300000000 1.0
END
