TITL C-3578199-7832-71 9.95518824673179e-07 125000 -608.219801371016 0 0 98 (C1) n - 1
REM
REM in /home/bkarasulu/work/CARBON/AIRSS/Generating-Clusters/EDIP-Nigel-Params/with-SteepDescent/Higher-Symm/SD-CG/HFTN-CG
REM
REM
REM
REM
REM
REM ./C.cell (12c818d87b63d06a65506943cc24bca4)
REM
REM compiler GCC version 9.2.1 20190827 (Red Hat 9.2.1-1)
REM options -cpp -mtune=generic -march=x86-64 -g -O0 -fpre-include=/usr/include/finclude/math-vector-fortran.h
REM seed -544882969 634443050 1485782035 -642931274 282965937 699915516 -1101308022 1181707565 1205470289 484531276 134922807 -785560727 -506984800 633692598 -1010762544 834011193 -958427714 -312895528 -1744421313 -644898758 861834130 -1389090790 -48142368 -1531249496 340274845 -457663168 72952259 -871150462 -1135091622 -295990547 -1033239164 -1457882890 -956177929
REM
CELL 1.54180   50.00000   50.00000   50.00000   90.00000   90.00000   90.00000
LATT -1
SFAC C  
C      1  0.5132010000000  0.5264980000000  0.4870310000000 1.0
C      1  0.5107280000000  0.4774060000000  0.5135240000000 1.0
C      1  0.5131540000000  0.4740720000000  0.4851460000000 1.0
C      1  0.5105050000000  0.5215840000000  0.5151150000000 1.0
C      1  0.4801350000000  0.4563610000000  0.5525910000000 1.0
C      1  0.4800600000000  0.5431290000000  0.4470920000000 1.0
C      1  0.4806910000000  0.5406420000000  0.5566940000000 1.0
C      1  0.4803100000000  0.4602320000000  0.4429640000000 1.0
C      1  0.5737160000000  0.4847370000000  0.5483460000000 1.0
C      1  0.5740430000000  0.5154340000000  0.4511300000000 1.0
C      1  0.5746930000000  0.5145700000000  0.5479650000000 1.0
C      1  0.5752530000000  0.4856110000000  0.4515500000000 1.0
C      1  0.5232500000000  0.4339890000000  0.4694310000000 1.0
C      1  0.5227570000000  0.5661700000000  0.5304590000000 1.0
C      1  0.5225130000000  0.5662360000000  0.4700810000000 1.0
C      1  0.5225200000000  0.4327230000000  0.5299170000000 1.0
C      1  0.5027980000000  0.5457760000000  0.4295540000000 1.0
C      1  0.5030580000000  0.4541210000000  0.5699160000000 1.0
C      1  0.5053290000000  0.4543060000000  0.4276190000000 1.0
C      1  0.5056070000000  0.5459420000000  0.5722570000000 1.0
C      1  0.5363420000000  0.5159290000000  0.4716500000000 1.0
C      1  0.5351850000000  0.4842680000000  0.5292610000000 1.0
C      1  0.5365290000000  0.4849350000000  0.4706390000000 1.0
C      1  0.5352150000000  0.5150820000000  0.5303170000000 1.0
C      1  0.4375440000000  0.5267630000000  0.5544490000000 1.0
C      1  0.4363250000000  0.4720690000000  0.4445160000000 1.0
C      1  0.4409590000000  0.4743440000000  0.5558660000000 1.0
C      1  0.4402020000000  0.5270900000000  0.4431930000000 1.0
C      1  0.4149510000000  0.5319950000000  0.5135080000000 1.0
C      1  0.4144760000000  0.4669160000000  0.4869240000000 1.0
C      1  0.4151650000000  0.4679910000000  0.5158530000000 1.0
C      1  0.4156720000000  0.5335620000000  0.4846400000000 1.0
C      1  0.5470430000000  0.5713740000000  0.4853170000000 1.0
C      1  0.5470480000000  0.4279650000000  0.5148000000000 1.0
C      1  0.5473590000000  0.4295950000000  0.4853810000000 1.0
C      1  0.5468290000000  0.5712670000000  0.5148350000000 1.0
C      1  0.5649600000000  0.5260780000000  0.5200110000000 1.0
C      1  0.5661350000000  0.4744590000000  0.4799400000000 1.0
C      1  0.5650440000000  0.4735760000000  0.5195830000000 1.0
C      1  0.5660250000000  0.5263040000000  0.4803300000000 1.0
C      1  0.4625310000000  0.5184210000000  0.5680180000000 1.0
C      1  0.4612500000000  0.4814990000000  0.4309090000000 1.0
C      1  0.4660380000000  0.4879540000000  0.5699650000000 1.0
C      1  0.4649750000000  0.5124620000000  0.4289650000000 1.0
C      1  0.5273260000000  0.4490940000000  0.5548050000000 1.0
C      1  0.5270870000000  0.5501590000000  0.4449750000000 1.0
C      1  0.5283810000000  0.5510020000000  0.5552470000000 1.0
C      1  0.5281540000000  0.4497440000000  0.4448460000000 1.0
C      1  0.4640820000000  0.5157950000000  0.4862260000000 1.0
C      1  0.4622530000000  0.4740080000000  0.5121830000000 1.0
C      1  0.4638640000000  0.4839670000000  0.4854150000000 1.0
C      1  0.4620720000000  0.5252370000000  0.5132350000000 1.0
C      1  0.5123950000000  0.4696500000000  0.4051730000000 1.0
C      1  0.5122620000000  0.5301730000000  0.5945420000000 1.0
C      1  0.5008490000000  0.5202950000000  0.4160510000000 1.0
C      1  0.5014600000000  0.4793840000000  0.5835680000000 1.0
C      1  0.4337790000000  0.4843520000000  0.4715210000000 1.0
C      1  0.4371940000000  0.5157190000000  0.5265350000000 1.0
C      1  0.4355530000000  0.5160440000000  0.4708980000000 1.0
C      1  0.4381280000000  0.4839790000000  0.5272180000000 1.0
C      1  0.4653930000000  0.5687190000000  0.4519960000000 1.0
C      1  0.4646070000000  0.4307720000000  0.5499680000000 1.0
C      1  0.4650600000000  0.4350550000000  0.4502050000000 1.0
C      1  0.4644840000000  0.5661690000000  0.5516560000000 1.0
C      1  0.5292720000000  0.4878150000000  0.5824340000000 1.0
C      1  0.5288940000000  0.5119070000000  0.4175460000000 1.0
C      1  0.5350310000000  0.5157390000000  0.5862040000000 1.0
C      1  0.5350620000000  0.4841890000000  0.4137240000000 1.0
C      1  0.4870600000000  0.4621420000000  0.5236530000000 1.0
C      1  0.4870970000000  0.5304400000000  0.4734540000000 1.0
C      1  0.4868000000000  0.5361280000000  0.5261820000000 1.0
C      1  0.4870060000000  0.4700110000000  0.4712030000000 1.0
C      1  0.4366540000000  0.5564440000000  0.5468950000000 1.0
C      1  0.4372190000000  0.4431710000000  0.4550030000000 1.0
C      1  0.4378970000000  0.4438380000000  0.5477230000000 1.0
C      1  0.4385320000000  0.5571000000000  0.4541520000000 1.0
C      1  0.5492300000000  0.4708970000000  0.4366180000000 1.0
C      1  0.5492320000000  0.5294230000000  0.5636550000000 1.0
C      1  0.5462120000000  0.5278190000000  0.4358340000000 1.0
C      1  0.5465560000000  0.4716490000000  0.5643290000000 1.0
C      1  0.4746540000000  0.5839550000000  0.4736160000000 1.0
C      1  0.4739370000000  0.4162410000000  0.5274580000000 1.0
C      1  0.4760940000000  0.4172350000000  0.4689050000000 1.0
C      1  0.4753430000000  0.5826440000000  0.5313440000000 1.0
C      1  0.4943210000000  0.4331520000000  0.5149230000000 1.0
C      1  0.4947210000000  0.5668330000000  0.4852020000000 1.0
C      1  0.4944610000000  0.5654100000000  0.5176910000000 1.0
C      1  0.4952890000000  0.4336400000000  0.4825510000000 1.0
C      1  0.4250590000000  0.4401960000000  0.4825730000000 1.0
C      1  0.4237910000000  0.5595160000000  0.5196470000000 1.0
C      1  0.4253390000000  0.5604190000000  0.4809720000000 1.0
C      1  0.4237330000000  0.4404740000000  0.5212610000000 1.0
C      1  0.5712020000000  0.5560580000000  0.5222270000000 1.0
C      1  0.5720060000000  0.4444840000000  0.4782130000000 1.0
C      1  0.5712320000000  0.4436190000000  0.5221930000000 1.0
C      1  0.5717200000000  0.5562870000000  0.4782350000000 1.0
C      1  0.5893300000000  0.4381780000000  0.5004020000000 1.0
C      1  0.5891220000000  0.5621930000000  0.5004630000000 1.0
END
