TITL C-3578205-846-490 -1.58583742038513e-07 125000 -1114.87881103244 0 0 181 (C1) n - 1
REM
REM in /home/bkarasulu/work/CARBON/AIRSS/Generating-Clusters/EDIP-Nigel-Params/with-SteepDescent/Higher-Symm/SD-CG/HFTN-CG
REM
REM
REM
REM
REM
REM ./C.cell (12c818d87b63d06a65506943cc24bca4)
REM
REM compiler GCC version 9.2.1 20190827 (Red Hat 9.2.1-1)
REM options -cpp -mtune=generic -march=x86-64 -g -O0 -fpre-include=/usr/include/finclude/math-vector-fortran.h
REM seed 2044460112 1042541304 1090178041 1838307379 -2070952805 -1238149757 -755539335 1360391707 -1465480777 670540183 -1784006833 462660077 354833064 830144628 -379454170 1734604834 -1681328650 2139680437 -795462835 1115861926 -1330797190 300750140 -1640175452 723708823 -1878839688 -1463905681 1414885455 1906637868 -1835967794 1299863755 67556567 1223488153 1012879918
REM
CELL 1.54180   50.00000   50.00000   50.00000   90.00000   90.00000   90.00000
LATT -1
SFAC C  
C      1  0.4515480000000  0.4481970000000  0.5970590000000 1.0
C      1  0.5493140000000  0.4523130000000  0.4148190000000 1.0
C      1  0.5515890000000  0.5442030000000  0.6014660000000 1.0
C      1  0.4489640000000  0.5475020000000  0.4068840000000 1.0
C      1  0.5991860000000  0.4518800000000  0.4544130000000 1.0
C      1  0.4046680000000  0.4506740000000  0.5503680000000 1.0
C      1  0.5942820000000  0.5441780000000  0.5553720000000 1.0
C      1  0.4007110000000  0.5468660000000  0.4487530000000 1.0
C      1  0.4908650000000  0.5738750000000  0.5529730000000 1.0
C      1  0.5056410000000  0.5838290000000  0.4422420000000 1.0
C      1  0.5053590000000  0.4294480000000  0.5445100000000 1.0
C      1  0.4761310000000  0.4185900000000  0.4435220000000 1.0
C      1  0.5552170000000  0.5947450000000  0.4801250000000 1.0
C      1  0.4429150000000  0.5730640000000  0.5037290000000 1.0
C      1  0.5486810000000  0.4314590000000  0.5062560000000 1.0
C      1  0.4434520000000  0.4253860000000  0.4934510000000 1.0
C      1  0.5026440000000  0.5780030000000  0.5269000000000 1.0
C      1  0.5016150000000  0.6022410000000  0.4627430000000 1.0
C      1  0.5020360000000  0.4038680000000  0.5314790000000 1.0
C      1  0.5004180000000  0.4153150000000  0.4560370000000 1.0
C      1  0.5344540000000  0.6023330000000  0.4980530000000 1.0
C      1  0.4686750000000  0.5780880000000  0.4929240000000 1.0
C      1  0.5401060000000  0.4043290000000  0.5044010000000 1.0
C      1  0.4686550000000  0.4117900000000  0.4946360000000 1.0
C      1  0.5696320000000  0.5254970000000  0.4133000000000 1.0
C      1  0.4368050000000  0.5262720000000  0.5852250000000 1.0
C      1  0.4277060000000  0.4731630000000  0.4121140000000 1.0
C      1  0.5645550000000  0.4700210000000  0.5880740000000 1.0
C      1  0.4143030000000  0.5245500000000  0.5683720000000 1.0
C      1  0.5894000000000  0.5269270000000  0.4336700000000 1.0
C      1  0.4108060000000  0.4742570000000  0.4346940000000 1.0
C      1  0.5873890000000  0.4705820000000  0.5712910000000 1.0
C      1  0.5807650000000  0.5736880000000  0.4462660000000 1.0
C      1  0.4176110000000  0.5594280000000  0.5412180000000 1.0
C      1  0.4091750000000  0.4404040000000  0.4632780000000 1.0
C      1  0.5810260000000  0.4350500000000  0.5454530000000 1.0
C      1  0.4511800000000  0.5721060000000  0.5785970000000 1.0
C      1  0.5351360000000  0.5527880000000  0.4189280000000 1.0
C      1  0.4385080000000  0.4305440000000  0.4188800000000 1.0
C      1  0.5390880000000  0.4286800000000  0.5821480000000 1.0
C      1  0.4798500000000  0.5529140000000  0.4060270000000 1.0
C      1  0.5211020000000  0.5461360000000  0.5978720000000 1.0
C      1  0.5193980000000  0.4532370000000  0.4118830000000 1.0
C      1  0.4825140000000  0.4462900000000  0.5928240000000 1.0
C      1  0.4024580000000  0.5490030000000  0.4807520000000 1.0
C      1  0.5888730000000  0.5437990000000  0.5251120000000 1.0
C      1  0.4037840000000  0.4503370000000  0.5187240000000 1.0
C      1  0.5963060000000  0.4511320000000  0.4869100000000 1.0
C      1  0.5031860000000  0.4514060000000  0.5229510000000 1.0
C      1  0.5089240000000  0.4529540000000  0.4772060000000 1.0
C      1  0.5031250000000  0.5517710000000  0.5124750000000 1.0
C      1  0.4893920000000  0.5498670000000  0.4655890000000 1.0
C      1  0.5254620000000  0.4526100000000  0.5026290000000 1.0
C      1  0.4799610000000  0.4480820000000  0.5028970000000 1.0
C      1  0.5269460000000  0.5499720000000  0.4964880000000 1.0
C      1  0.4803670000000  0.5507880000000  0.4931290000000 1.0
C      1  0.5030060000000  0.5133540000000  0.3799630000000 1.0
C      1  0.5004380000000  0.5104140000000  0.6263670000000 1.0
C      1  0.4957960000000  0.4842920000000  0.3790980000000 1.0
C      1  0.5031780000000  0.4808470000000  0.6255400000000 1.0
C      1  0.3765850000000  0.5154530000000  0.5051480000000 1.0
C      1  0.6245210000000  0.5168290000000  0.5006550000000 1.0
C      1  0.3762130000000  0.4865830000000  0.4994570000000 1.0
C      1  0.6243030000000  0.4881780000000  0.5063200000000 1.0
C      1  0.5170810000000  0.4834630000000  0.4439480000000 1.0
C      1  0.4776750000000  0.4843700000000  0.5488750000000 1.0
C      1  0.4843050000000  0.5165270000000  0.4304740000000 1.0
C      1  0.5275980000000  0.5168530000000  0.5405460000000 1.0
C      1  0.4517950000000  0.4857680000000  0.5196310000000 1.0
C      1  0.5609150000000  0.4832580000000  0.4867590000000 1.0
C      1  0.4440550000000  0.5156650000000  0.4834100000000 1.0
C      1  0.5501710000000  0.5184400000000  0.5202370000000 1.0
C      1  0.5929730000000  0.4943560000000  0.5549740000000 1.0
C      1  0.4096360000000  0.4973480000000  0.4528030000000 1.0
C      1  0.4106370000000  0.5019970000000  0.5500390000000 1.0
C      1  0.5943880000000  0.5043870000000  0.4523690000000 1.0
C      1  0.5478490000000  0.4937150000000  0.5941110000000 1.0
C      1  0.4469650000000  0.4949040000000  0.4075950000000 1.0
C      1  0.5523820000000  0.5018850000000  0.4100430000000 1.0
C      1  0.4538550000000  0.5029620000000  0.5910940000000 1.0
C      1  0.5599080000000  0.5472350000000  0.5274430000000 1.0
C      1  0.4418490000000  0.5357170000000  0.4623390000000 1.0
C      1  0.4441140000000  0.4597220000000  0.5336400000000 1.0
C      1  0.5584540000000  0.4617590000000  0.4661160000000 1.0
C      1  0.5399430000000  0.5364610000000  0.5592650000000 1.0
C      1  0.4678160000000  0.5418180000000  0.4463130000000 1.0
C      1  0.5302260000000  0.4571990000000  0.4548830000000 1.0
C      1  0.4621180000000  0.4604090000000  0.5568970000000 1.0
C      1  0.5272970000000  0.5076680000000  0.4276760000000 1.0
C      1  0.4806590000000  0.5061470000000  0.5731020000000 1.0
C      1  0.4730260000000  0.4889380000000  0.4244040000000 1.0
C      1  0.5206220000000  0.4886730000000  0.5809880000000 1.0
C      1  0.4264850000000  0.5085370000000  0.5233540000000 1.0
C      1  0.5778730000000  0.5097430000000  0.4783870000000 1.0
C      1  0.4260320000000  0.4904500000000  0.4785240000000 1.0
C      1  0.5763950000000  0.4912730000000  0.5285310000000 1.0
C      1  0.5454080000000  0.5012590000000  0.3822540000000 1.0
C      1  0.4574250000000  0.5052410000000  0.6192770000000 1.0
C      1  0.4527640000000  0.4947340000000  0.3796620000000 1.0
C      1  0.5453140000000  0.4942480000000  0.6228740000000 1.0
C      1  0.3822160000000  0.5011930000000  0.5464750000000 1.0
C      1  0.6224120000000  0.5048490000000  0.4580110000000 1.0
C      1  0.3815850000000  0.5000510000000  0.4578670000000 1.0
C      1  0.6210920000000  0.4939170000000  0.5499650000000 1.0
C      1  0.5506890000000  0.4740590000000  0.5342240000000 1.0
C      1  0.4480370000000  0.4697320000000  0.4717030000000 1.0
C      1  0.4545230000000  0.5291450000000  0.5294360000000 1.0
C      1  0.5527290000000  0.5239210000000  0.4714220000000 1.0
C      1  0.5257090000000  0.4880540000000  0.5499330000000 1.0
C      1  0.4696590000000  0.4785400000000  0.4526380000000 1.0
C      1  0.5332500000000  0.5300790000000  0.4484680000000 1.0
C      1  0.4783960000000  0.5277970000000  0.5496930000000 1.0
C      1  0.5576360000000  0.5218440000000  0.5815690000000 1.0
C      1  0.4361330000000  0.5219160000000  0.4157700000000 1.0
C      1  0.4401880000000  0.4752790000000  0.5855280000000 1.0
C      1  0.5654070000000  0.4764320000000  0.4187680000000 1.0
C      1  0.5854540000000  0.5195630000000  0.5692010000000 1.0
C      1  0.4208580000000  0.5244020000000  0.4423100000000 1.0
C      1  0.5852110000000  0.4767420000000  0.4417830000000 1.0
C      1  0.4202790000000  0.4749640000000  0.5608480000000 1.0
C      1  0.4314650000000  0.4483910000000  0.4000260000000 1.0
C      1  0.5549420000000  0.4452460000000  0.5959230000000 1.0
C      1  0.5588760000000  0.5497510000000  0.4044990000000 1.0
C      1  0.4437660000000  0.5515870000000  0.5942440000000 1.0
C      1  0.3961730000000  0.4516690000000  0.4424020000000 1.0
C      1  0.5981040000000  0.4462460000000  0.5628940000000 1.0
C      1  0.4023720000000  0.5485840000000  0.5606090000000 1.0
C      1  0.5964680000000  0.5526840000000  0.4409770000000 1.0
C      1  0.4347670000000  0.5678030000000  0.4205840000000 1.0
C      1  0.5664210000000  0.5662840000000  0.5920520000000 1.0
C      1  0.5597630000000  0.4290210000000  0.4287310000000 1.0
C      1  0.4371360000000  0.4297070000000  0.5807770000000 1.0
C      1  0.4172350000000  0.5706620000000  0.4419840000000 1.0
C      1  0.5828800000000  0.5652530000000  0.5704740000000 1.0
C      1  0.4214590000000  0.4277180000000  0.5577450000000 1.0
C      1  0.5823030000000  0.4291350000000  0.4461320000000 1.0
C      1  0.4498950000000  0.4265900000000  0.4437640000000 1.0
C      1  0.5334840000000  0.4308880000000  0.5552320000000 1.0
C      1  0.5323280000000  0.5730030000000  0.4393100000000 1.0
C      1  0.4615000000000  0.5740440000000  0.5528490000000 1.0
C      1  0.4374730000000  0.4400760000000  0.4678340000000 1.0
C      1  0.5546800000000  0.4418200000000  0.5367010000000 1.0
C      1  0.4443870000000  0.5594660000000  0.5312220000000 1.0
C      1  0.5558030000000  0.5825310000000  0.4541650000000 1.0
C      1  0.5023240000000  0.4771690000000  0.5367050000000 1.0
C      1  0.4959000000000  0.4826050000000  0.4670180000000 1.0
C      1  0.5014730000000  0.5282470000000  0.5312880000000 1.0
C      1  0.5052820000000  0.5257340000000  0.4616220000000 1.0
C      1  0.5398360000000  0.4777940000000  0.5066970000000 1.0
C      1  0.4639800000000  0.4718390000000  0.4962510000000 1.0
C      1  0.5346150000000  0.5218330000000  0.4942760000000 1.0
C      1  0.4678070000000  0.5225270000000  0.5007800000000 1.0
C      1  0.5295260000000  0.4749790000000  0.6340530000000 1.0
C      1  0.4710170000000  0.4804230000000  0.3660130000000 1.0
C      1  0.4748940000000  0.5174260000000  0.6359090000000 1.0
C      1  0.5281770000000  0.5162560000000  0.3676830000000 1.0
C      1  0.6363990000000  0.4824090000000  0.5310240000000 1.0
C      1  0.3665560000000  0.4831250000000  0.4730440000000 1.0
C      1  0.6344250000000  0.5222050000000  0.4748790000000 1.0
C      1  0.3682190000000  0.5193740000000  0.5318210000000 1.0
C      1  0.5480290000000  0.5671250000000  0.5065180000000 1.0
C      1  0.4300380000000  0.5626940000000  0.4767170000000 1.0
C      1  0.4309660000000  0.4332590000000  0.5207090000000 1.0
C      1  0.5687640000000  0.4370500000000  0.4820230000000 1.0
C      1  0.5187930000000  0.5557730000000  0.5702770000000 1.0
C      1  0.4830020000000  0.5725150000000  0.4280640000000 1.0
C      1  0.5235550000000  0.4297030000000  0.4423180000000 1.0
C      1  0.4812910000000  0.4360730000000  0.5635320000000 1.0
C      1  0.4977620000000  0.4728920000000  0.5969560000000 1.0
C      1  0.4966780000000  0.4725570000000  0.4063910000000 1.0
C      1  0.5059350000000  0.5196360000000  0.5984640000000 1.0
C      1  0.5014280000000  0.5279400000000  0.4070520000000 1.0
C      1  0.5956840000000  0.4779440000000  0.5035200000000 1.0
C      1  0.4039010000000  0.4767090000000  0.5038900000000 1.0
C      1  0.5957560000000  0.5222120000000  0.5043400000000 1.0
C      1  0.4032870000000  0.5250900000000  0.4982640000000 1.0
C      1  0.4870280000000  0.5960700000000  0.5086860000000 1.0
C      1  0.5129630000000  0.4015160000000  0.5059270000000 1.0
C      1  0.5072040000000  0.6075630000000  0.4897430000000 1.0
C      1  0.4959400000000  0.4117670000000  0.4850410000000 1.0
C      1  0.5001940000000  0.5077240000000  0.4867120000000 1.0
END
