TITL C-3577091-527-272 -2.15890104711763e-06 125000 -253.896038218674 0 0 43 (C1) n - 1
REM
REM in /home/bkarasulu/work/CARBON/AIRSS/Generating-Clusters/EDIP-Nigel-Params/with-SteepDescent/Higher-Symm/SD-CG/HFTN-CG
REM
REM
REM
REM
REM
REM ./C.cell (12c818d87b63d06a65506943cc24bca4)
REM
REM compiler GCC version 9.2.1 20190827 (Red Hat 9.2.1-1)
REM options -cpp -mtune=generic -march=x86-64 -g -O0 -fpre-include=/usr/include/finclude/math-vector-fortran.h
REM seed -48127512 -1925815968 1857588270 -1592188619 -1202337202 1807624117 62344178 701936957 -1589760411 -1929538337 -484483086 -1374900380 -866454563 -1481658434 201709056 420708636 808781047 -620950346 -151800049 1053074133 1554325409 774082477 512299353 1892981979 688386512 -1702923798 97324137 1781523809 -2115194628 2031652552 148011873 -1015016388 2058148690
REM
CELL 1.54180   50.00000   50.00000   50.00000   90.00000   90.00000   90.00000
LATT -1
SFAC C  
C      1  0.4760490000000  0.5128530000000  0.4713160000000 1.0
C      1  0.4852070000000  0.5024130000000  0.5768810000000 1.0
C      1  0.4656830000000  0.5458150000000  0.5114050000000 1.0
C      1  0.5222650000000  0.4641640000000  0.4715980000000 1.0
C      1  0.4891260000000  0.5327410000000  0.4529730000000 1.0
C      1  0.5301850000000  0.4947220000000  0.5273660000000 1.0
C      1  0.5278410000000  0.4519190000000  0.5442400000000 1.0
C      1  0.5251730000000  0.4922380000000  0.4785320000000 1.0
C      1  0.4618070000000  0.4784000000000  0.5445020000000 1.0
C      1  0.4839820000000  0.4745450000000  0.4418160000000 1.0
C      1  0.4836350000000  0.4615130000000  0.5382050000000 1.0
C      1  0.4930920000000  0.5542170000000  0.4734930000000 1.0
C      1  0.5423410000000  0.5286560000000  0.5570670000000 1.0
C      1  0.5529660000000  0.4972990000000  0.4916190000000 1.0
C      1  0.4739160000000  0.5028650000000  0.5508910000000 1.0
C      1  0.5752790000000  0.4786220000000  0.4920420000000 1.0
C      1  0.4944910000000  0.5102710000000  0.5300540000000 1.0
C      1  0.4360780000000  0.4968570000000  0.4917800000000 1.0
C      1  0.5080350000000  0.5375660000000  0.4941990000000 1.0
C      1  0.4477100000000  0.4515970000000  0.4667050000000 1.0
C      1  0.4651380000000  0.4912620000000  0.4556770000000 1.0
C      1  0.5544000000000  0.5242410000000  0.5050280000000 1.0
C      1  0.5370110000000  0.5297610000000  0.4594010000000 1.0
C      1  0.4679730000000  0.5628630000000  0.4872460000000 1.0
C      1  0.4346740000000  0.5389660000000  0.4697810000000 1.0
C      1  0.5531970000000  0.5319690000000  0.5320480000000 1.0
C      1  0.5373080000000  0.5390020000000  0.4864980000000 1.0
C      1  0.5296430000000  0.5032620000000  0.5556230000000 1.0
C      1  0.4454810000000  0.5637130000000  0.4703010000000 1.0
C      1  0.5096440000000  0.4880870000000  0.5724250000000 1.0
C      1  0.4740890000000  0.4471650000000  0.4530930000000 1.0
C      1  0.4923530000000  0.5384260000000  0.5204400000000 1.0
C      1  0.5122110000000  0.4872410000000  0.4421270000000 1.0
C      1  0.5632080000000  0.4628450000000  0.5106180000000 1.0
C      1  0.4821560000000  0.4409960000000  0.4810660000000 1.0
C      1  0.5147230000000  0.5185820000000  0.4450920000000 1.0
C      1  0.4431340000000  0.4798130000000  0.4699380000000 1.0
C      1  0.4996900000000  0.5057760000000  0.4914980000000 1.0
C      1  0.4508100000000  0.5219270000000  0.4866060000000 1.0
C      1  0.5049620000000  0.4601940000000  0.5595020000000 1.0
C      1  0.5449510000000  0.4695270000000  0.5308200000000 1.0
C      1  0.5050780000000  0.4541530000000  0.4917410000000 1.0
C      1  0.5033020000000  0.4709590000000  0.5167480000000 1.0
END
