TITL C-3577087-600-694 2.23063102869823e-06 125000 -649.152987945188 0 0 104 (C1) n - 1
REM
REM in /home/bkarasulu/work/CARBON/AIRSS/Generating-Clusters/EDIP-Nigel-Params/with-SteepDescent/Higher-Symm/SD-CG/HFTN-CG
REM
REM
REM
REM
REM
REM ./C.cell (12c818d87b63d06a65506943cc24bca4)
REM
REM compiler GCC version 9.2.1 20190827 (Red Hat 9.2.1-1)
REM options -cpp -mtune=generic -march=x86-64 -g -O0 -fpre-include=/usr/include/finclude/math-vector-fortran.h
REM seed -308757149 -1789847842 1935543987 626807003 -464646830 -1890869341 768718103 -251843171 102143717 1801210070 2130683136 -805878924 543957681 1539138802 -630697106 -2029248923 108616314 1637475697 -162451426 -1554165408 1337356860 1225055747 -273200096 -1467861814 -616985865 2050456063 1198729612 2052086679 -1425535284 2037127961 415912769 -1149343813 2085103885
REM
CELL 1.54180   50.00000   50.00000   50.00000   90.00000   90.00000   90.00000
LATT -1
SFAC C  
C      1  0.4986170000000  0.5217650000000  0.4541100000000 1.0
C      1  0.4852080000000  0.4890050000000  0.4535900000000 1.0
C      1  0.5215110000000  0.4928010000000  0.4541900000000 1.0
C      1  0.5019040000000  0.5819710000000  0.5416910000000 1.0
C      1  0.4295000000000  0.4608590000000  0.5422540000000 1.0
C      1  0.5703620000000  0.4587920000000  0.5415730000000 1.0
C      1  0.4820990000000  0.4797220000000  0.4105790000000 1.0
C      1  0.5285760000000  0.4950270000000  0.4107110000000 1.0
C      1  0.4921910000000  0.5272100000000  0.4109200000000 1.0
C      1  0.5023510000000  0.4633460000000  0.5245990000000 1.0
C      1  0.5321090000000  0.5213310000000  0.5247800000000 1.0
C      1  0.4675430000000  0.5171540000000  0.5250240000000 1.0
C      1  0.4467600000000  0.5153830000000  0.4227900000000 1.0
C      1  0.5150730000000  0.4465160000000  0.4229560000000 1.0
C      1  0.5410510000000  0.5401160000000  0.4227960000000 1.0
C      1  0.5561360000000  0.5353170000000  0.5365520000000 1.0
C      1  0.4432940000000  0.5309420000000  0.5365220000000 1.0
C      1  0.5029180000000  0.4354950000000  0.5363840000000 1.0
C      1  0.4857570000000  0.4232940000000  0.5118030000000 1.0
C      1  0.5751320000000  0.5263640000000  0.5119070000000 1.0
C      1  0.4414100000000  0.5517080000000  0.5120300000000 1.0
C      1  0.5373410000000  0.4921510000000  0.5246870000000 1.0
C      1  0.4898750000000  0.5366510000000  0.5245110000000 1.0
C      1  0.4747010000000  0.4726420000000  0.5265290000000 1.0
C      1  0.4571160000000  0.5021500000000  0.4985270000000 1.0
C      1  0.5207800000000  0.4612470000000  0.4978290000000 1.0
C      1  0.5250370000000  0.5383050000000  0.4980450000000 1.0
C      1  0.5579400000000  0.5613070000000  0.4800640000000 1.0
C      1  0.4202560000000  0.5185610000000  0.4810390000000 1.0
C      1  0.5246630000000  0.4211000000000  0.4800710000000 1.0
C      1  0.4622900000000  0.5726530000000  0.5135020000000 1.0
C      1  0.4571700000000  0.4311480000000  0.5140290000000 1.0
C      1  0.5824340000000  0.4976920000000  0.5135740000000 1.0
C      1  0.5209510000000  0.5229460000000  0.4079100000000 1.0
C      1  0.4716600000000  0.5067940000000  0.4078250000000 1.0
C      1  0.5102380000000  0.4724810000000  0.4080330000000 1.0
C      1  0.4533990000000  0.5388460000000  0.5654240000000 1.0
C      1  0.4910860000000  0.4404710000000  0.5653900000000 1.0
C      1  0.5575840000000  0.5224260000000  0.5653260000000 1.0
C      1  0.5214040000000  0.5654480000000  0.5128960000000 1.0
C      1  0.4349110000000  0.4854580000000  0.5131330000000 1.0
C      1  0.5461350000000  0.4505820000000  0.5127500000000 1.0
C      1  0.5270560000000  0.4902600000000  0.4860600000000 1.0
C      1  0.4970760000000  0.5285710000000  0.4860850000000 1.0
C      1  0.4800090000000  0.4849380000000  0.4850400000000 1.0
C      1  0.5085480000000  0.5235210000000  0.5434700000000 1.0
C      1  0.4772910000000  0.4958830000000  0.5441880000000 1.0
C      1  0.5163780000000  0.4823750000000  0.5433730000000 1.0
C      1  0.4571840000000  0.4903680000000  0.5671340000000 1.0
C      1  0.5311490000000  0.4680570000000  0.5665220000000 1.0
C      1  0.5135320000000  0.5433580000000  0.5666080000000 1.0
C      1  0.5473370000000  0.4899360000000  0.5803240000000 1.0
C      1  0.4865330000000  0.5463510000000  0.5805000000000 1.0
C      1  0.4680370000000  0.4653940000000  0.5809440000000 1.0
C      1  0.5361380000000  0.5324260000000  0.5831770000000 1.0
C      1  0.4553290000000  0.5154410000000  0.5835500000000 1.0
C      1  0.5104950000000  0.4539720000000  0.5831760000000 1.0
C      1  0.4535480000000  0.5432390000000  0.4342550000000 1.0
C      1  0.4873550000000  0.4383450000000  0.4339660000000 1.0
C      1  0.5620820000000  0.5201670000000  0.4339900000000 1.0
C      1  0.4923450000000  0.4732000000000  0.5953350000000 1.0
C      1  0.5285870000000  0.5069630000000  0.5951330000000 1.0
C      1  0.4812330000000  0.5215830000000  0.5953590000000 1.0
C      1  0.4974640000000  0.4263270000000  0.4844950000000 1.0
C      1  0.5667420000000  0.5350320000000  0.4846270000000 1.0
C      1  0.4385120000000  0.5395140000000  0.4850250000000 1.0
C      1  0.5596980000000  0.4728530000000  0.4435330000000 1.0
C      1  0.4955750000000  0.5650170000000  0.4439080000000 1.0
C      1  0.4458960000000  0.4623190000000  0.4425230000000 1.0
C      1  0.5660860000000  0.4440410000000  0.4915380000000 1.0
C      1  0.5171470000000  0.5857960000000  0.4914710000000 1.0
C      1  0.4195380000000  0.4712800000000  0.4917810000000 1.0
C      1  0.5671210000000  0.4868030000000  0.4671440000000 1.0
C      1  0.4795840000000  0.5648360000000  0.4673850000000 1.0
C      1  0.4532860000000  0.4462240000000  0.4651010000000 1.0
C      1  0.4235380000000  0.5069780000000  0.5349830000000 1.0
C      1  0.5334740000000  0.4303970000000  0.5348230000000 1.0
C      1  0.5452500000000  0.5644540000000  0.5351460000000 1.0
C      1  0.5429290000000  0.4483630000000  0.4456730000000 1.0
C      1  0.5251880000000  0.5632320000000  0.4457450000000 1.0
C      1  0.4341110000000  0.4895460000000  0.4460080000000 1.0
C      1  0.4819230000000  0.5638480000000  0.5323820000000 1.0
C      1  0.4553030000000  0.4522630000000  0.5335770000000 1.0
C      1  0.5648390000000  0.4852490000000  0.5324760000000 1.0
C      1  0.5539750000000  0.4934720000000  0.4241520000000 1.0
C      1  0.4807530000000  0.5495590000000  0.4247630000000 1.0
C      1  0.4686710000000  0.4590990000000  0.4251980000000 1.0
C      1  0.5792100000000  0.4710080000000  0.4873770000000 1.0
C      1  0.4872190000000  0.5834500000000  0.4874190000000 1.0
C      1  0.4356420000000  0.4460050000000  0.4874920000000 1.0
C      1  0.5238920000000  0.5697710000000  0.5559540000000 1.0
C      1  0.4292030000000  0.4861870000000  0.5561500000000 1.0
C      1  0.5487720000000  0.4459070000000  0.5557730000000 1.0
C      1  0.4795580000000  0.4331600000000  0.4621920000000 1.0
C      1  0.5696080000000  0.5155800000000  0.4627120000000 1.0
C      1  0.4537060000000  0.5518020000000  0.4630020000000 1.0
C      1  0.5489150000000  0.4314370000000  0.4699640000000 1.0
C      1  0.5367450000000  0.5770040000000  0.4699620000000 1.0
C      1  0.4169570000000  0.4925770000000  0.4705290000000 1.0
C      1  0.5300870000000  0.5344710000000  0.4597000000000 1.0
C      1  0.4570840000000  0.5080410000000  0.4598210000000 1.0
C      1  0.5154920000000  0.4585710000000  0.4599980000000 1.0
C      1  0.5013460000000  0.5010470000000  0.4959890000000 1.0
C      1  0.5006700000000  0.5005750000000  0.5901860000000 1.0
END
