TITL C-3578203-1966-808 -1.27007181783608e-06 125000 -793.405695336528 0 0 129 (C1) n - 1
REM
REM in /home/bkarasulu/work/CARBON/AIRSS/Generating-Clusters/EDIP-Nigel-Params/with-SteepDescent/Higher-Symm/SD-CG/HFTN-CG
REM
REM
REM
REM
REM
REM ./C.cell (12c818d87b63d06a65506943cc24bca4)
REM
REM compiler GCC version 9.2.1 20190827 (Red Hat 9.2.1-1)
REM options -cpp -mtune=generic -march=x86-64 -g -O0 -fpre-include=/usr/include/finclude/math-vector-fortran.h
REM seed 1867586469 -98089095 1154820363 -773896310 921273375 1798550154 -1947993275 -880876579 1532338563 -2144140923 769148250 97861871 -2101093981 -1116276784 -838854574 1117775041 520308535 1242914510 -330767251 396457957 1599642489 -718991937 -2058907876 1396929718 -1128037043 -705214790 -1664239717 -1484617919 -1220392932 1878400632 1260382264 2102462708 -678486259
REM
CELL 1.54180   50.00000   50.00000   50.00000   90.00000   90.00000   90.00000
LATT -1
SFAC C  
C      1  0.5501540000000  0.4268820000000  0.4692290000000 1.0
C      1  0.5281330000000  0.5809630000000  0.4802060000000 1.0
C      1  0.4231350000000  0.4854660000000  0.4756290000000 1.0
C      1  0.5598570000000  0.4485120000000  0.5329250000000 1.0
C      1  0.5177600000000  0.5776720000000  0.5358070000000 1.0
C      1  0.4288350000000  0.4795740000000  0.5314370000000 1.0
C      1  0.5115500000000  0.5056220000000  0.5235530000000 1.0
C      1  0.4917990000000  0.5328370000000  0.5266180000000 1.0
C      1  0.4898130000000  0.4791330000000  0.5226440000000 1.0
C      1  0.5320480000000  0.4811470000000  0.4692670000000 1.0
C      1  0.4956330000000  0.5393540000000  0.4786570000000 1.0
C      1  0.5035190000000  0.4771510000000  0.4803630000000 1.0
C      1  0.5595510000000  0.5215400000000  0.5246650000000 1.0
C      1  0.4464620000000  0.5568700000000  0.5254880000000 1.0
C      1  0.4821660000000  0.4276000000000  0.5238000000000 1.0
C      1  0.5763910000000  0.5075370000000  0.4753360000000 1.0
C      1  0.4531380000000  0.5647530000000  0.4760080000000 1.0
C      1  0.4778690000000  0.4313900000000  0.4726390000000 1.0
C      1  0.4901150000000  0.4174410000000  0.5506970000000 1.0
C      1  0.5806970000000  0.5325000000000  0.5581850000000 1.0
C      1  0.4330250000000  0.5521640000000  0.5526170000000 1.0
C      1  0.4697140000000  0.4119880000000  0.4409940000000 1.0
C      1  0.5800070000000  0.5161170000000  0.4472790000000 1.0
C      1  0.4437190000000  0.5636950000000  0.4469980000000 1.0
C      1  0.4555670000000  0.4413480000000  0.5264830000000 1.0
C      1  0.5699590000000  0.4951550000000  0.5316750000000 1.0
C      1  0.4696960000000  0.5757320000000  0.5314270000000 1.0
C      1  0.4515850000000  0.4461470000000  0.4721120000000 1.0
C      1  0.5835810000000  0.4775350000000  0.4720270000000 1.0
C      1  0.4780340000000  0.5832240000000  0.4736780000000 1.0
C      1  0.4831420000000  0.5094510000000  0.5750020000000 1.0
C      1  0.5047390000000  0.4730310000000  0.5673830000000 1.0
C      1  0.5151830000000  0.5147300000000  0.5743110000000 1.0
C      1  0.4783520000000  0.5065930000000  0.4478670000000 1.0
C      1  0.4936490000000  0.4817510000000  0.4339330000000 1.0
C      1  0.5117470000000  0.5146980000000  0.4299900000000 1.0
C      1  0.5197400000000  0.4182790000000  0.5498160000000 1.0
C      1  0.5599220000000  0.5516170000000  0.5526120000000 1.0
C      1  0.4237770000000  0.5241170000000  0.5501950000000 1.0
C      1  0.4985360000000  0.4107210000000  0.4402540000000 1.0
C      1  0.5656530000000  0.5410270000000  0.4451050000000 1.0
C      1  0.4273850000000  0.5397530000000  0.4429670000000 1.0
C      1  0.5359070000000  0.5156320000000  0.5068540000000 1.0
C      1  0.4635560000000  0.5327500000000  0.5147030000000 1.0
C      1  0.4998060000000  0.4509680000000  0.5159340000000 1.0
C      1  0.5455050000000  0.5056630000000  0.4808790000000 1.0
C      1  0.4665970000000  0.5377230000000  0.4856340000000 1.0
C      1  0.5011790000000  0.4490580000000  0.4871750000000 1.0
C      1  0.4434100000000  0.5214130000000  0.4271070000000 1.0
C      1  0.5069820000000  0.4357510000000  0.4279180000000 1.0
C      1  0.5481660000000  0.5376640000000  0.4222310000000 1.0
C      1  0.4391100000000  0.5133600000000  0.5730660000000 1.0
C      1  0.5227210000000  0.4341160000000  0.5754970000000 1.0
C      1  0.5437080000000  0.5478370000000  0.5776580000000 1.0
C      1  0.5254420000000  0.4964260000000  0.5530710000000 1.0
C      1  0.4886550000000  0.5367260000000  0.5559110000000 1.0
C      1  0.4796500000000  0.4776180000000  0.5514050000000 1.0
C      1  0.5265740000000  0.4844360000000  0.4377510000000 1.0
C      1  0.4973150000000  0.5370720000000  0.4489180000000 1.0
C      1  0.4767930000000  0.4896540000000  0.4738530000000 1.0
C      1  0.5341960000000  0.4908090000000  0.3990250000000 1.0
C      1  0.4858160000000  0.5292650000000  0.3977320000000 1.0
C      1  0.4814390000000  0.4736400000000  0.4075740000000 1.0
C      1  0.5307010000000  0.5046670000000  0.5993610000000 1.0
C      1  0.4779180000000  0.5268500000000  0.6003070000000 1.0
C      1  0.4906450000000  0.4711070000000  0.5957320000000 1.0
C      1  0.5514330000000  0.5095240000000  0.4116070000000 1.0
C      1  0.4668080000000  0.5361110000000  0.4171210000000 1.0
C      1  0.4840010000000  0.4447170000000  0.4114250000000 1.0
C      1  0.5532240000000  0.5242000000000  0.5938580000000 1.0
C      1  0.4503190000000  0.5340080000000  0.5911470000000 1.0
C      1  0.4964710000000  0.4410000000000  0.5895820000000 1.0
C      1  0.5725620000000  0.5109760000000  0.5756350000000 1.0
C      1  0.4505570000000  0.5593780000000  0.5755540000000 1.0
C      1  0.4748350000000  0.4313180000000  0.5717750000000 1.0
C      1  0.5689300000000  0.4953860000000  0.4305390000000 1.0
C      1  0.4673780000000  0.5628190000000  0.4300830000000 1.0
C      1  0.4586870000000  0.4337940000000  0.4248630000000 1.0
C      1  0.5667320000000  0.4356170000000  0.4908900000000 1.0
C      1  0.5281430000000  0.6054900000000  0.4955770000000 1.0
C      1  0.4032650000000  0.4694710000000  0.4894650000000 1.0
C      1  0.5633940000000  0.4247160000000  0.5175110000000 1.0
C      1  0.5266490000000  0.6005440000000  0.5222750000000 1.0
C      1  0.4063060000000  0.4727720000000  0.5162260000000 1.0
C      1  0.4329430000000  0.4673600000000  0.5592080000000 1.0
C      1  0.5614130000000  0.4606690000000  0.5601330000000 1.0
C      1  0.5058800000000  0.5770170000000  0.5634710000000 1.0
C      1  0.4269130000000  0.4769770000000  0.4434020000000 1.0
C      1  0.5501350000000  0.4481220000000  0.4472240000000 1.0
C      1  0.5164430000000  0.5707820000000  0.4443660000000 1.0
C      1  0.5165770000000  0.5580430000000  0.5826970000000 1.0
C      1  0.4402040000000  0.4855400000000  0.5811470000000 1.0
C      1  0.5427920000000  0.4548350000000  0.5812510000000 1.0
C      1  0.5252570000000  0.5553690000000  0.4197770000000 1.0
C      1  0.4360400000000  0.4940150000000  0.4208560000000 1.0
C      1  0.5343960000000  0.4437710000000  0.4229490000000 1.0
C      1  0.5378210000000  0.4771110000000  0.5982760000000 1.0
C      1  0.4973830000000  0.5475160000000  0.6008030000000 1.0
C      1  0.4629460000000  0.4770900000000  0.5959270000000 1.0
C      1  0.5374010000000  0.4635020000000  0.4028870000000 1.0
C      1  0.5068440000000  0.5460590000000  0.4009980000000 1.0
C      1  0.4547140000000  0.4814740000000  0.4040460000000 1.0
C      1  0.4178960000000  0.5535790000000  0.5112380000000 1.0
C      1  0.4929650000000  0.4020530000000  0.5093870000000 1.0
C      1  0.5803790000000  0.5416560000000  0.5147190000000 1.0
C      1  0.4187710000000  0.5612170000000  0.4834930000000 1.0
C      1  0.4827010000000  0.4007040000000  0.4818120000000 1.0
C      1  0.5875730000000  0.5357430000000  0.4865410000000 1.0
C      1  0.5632960000000  0.4715400000000  0.5167340000000 1.0
C      1  0.4963180000000  0.5652600000000  0.5190390000000 1.0
C      1  0.4529060000000  0.4702190000000  0.5149490000000 1.0
C      1  0.5618750000000  0.4651260000000  0.4880460000000 1.0
C      1  0.5002930000000  0.5679370000000  0.4882150000000 1.0
C      1  0.4513720000000  0.4736500000000  0.4843950000000 1.0
C      1  0.5710540000000  0.5546910000000  0.4709310000000 1.0
C      1  0.4131520000000  0.5363560000000  0.4685450000000 1.0
C      1  0.5078170000000  0.3992700000000  0.4661730000000 1.0
C      1  0.5627560000000  0.5655240000000  0.5173310000000 1.0
C      1  0.4156470000000  0.5236430000000  0.5147630000000 1.0
C      1  0.5226250000000  0.4078590000000  0.5130290000000 1.0
C      1  0.5722190000000  0.4688060000000  0.4451680000000 1.0
C      1  0.4877740000000  0.5798110000000  0.4450100000000 1.0
C      1  0.4441980000000  0.4523090000000  0.4446090000000 1.0
C      1  0.5581710000000  0.4905970000000  0.5578130000000 1.0
C      1  0.4771760000000  0.5659390000000  0.5603070000000 1.0
C      1  0.4598200000000  0.4531810000000  0.5553960000000 1.0
C      1  0.4191390000000  0.5139650000000  0.4862770000000 1.0
C      1  0.5271350000000  0.4134970000000  0.4831390000000 1.0
C      1  0.5520460000000  0.5657520000000  0.4898750000000 1.0
END
