TITL C-3577079-311-255 -1.4568339936505e-07 125000 -378.270639926043 0 0 63 (C1) n - 1
REM
REM in /home/bkarasulu/work/CARBON/AIRSS/Generating-Clusters/EDIP-Nigel-Params/with-SteepDescent/Higher-Symm/SD-CG/HFTN-CG
REM
REM
REM
REM
REM
REM ./C.cell (12c818d87b63d06a65506943cc24bca4)
REM
REM compiler GCC version 9.2.1 20190827 (Red Hat 9.2.1-1)
REM options -cpp -mtune=generic -march=x86-64 -g -O0 -fpre-include=/usr/include/finclude/math-vector-fortran.h
REM seed -1570273971 -110236303 -851042526 2060660747 -2088637003 -1580112862 -374979687 -1044841252 -1082689078 -104897034 1501254740 -363223950 -1686831315 1213127543 -1024180487 2028425509 -412781997 -1255931380 -1237282825 -18113617 -1397020963 835253166 1012116123 1208313339 -317642541 1597875809 -560301727 -1646003332 -1454776210 -197886844 973370451 -2075334179 251300930
REM
CELL 1.54180   50.00000   50.00000   50.00000   90.00000   90.00000   90.00000
LATT -1
SFAC C  
C      1  0.5307840000000  0.4653300000000  0.5599510000000 1.0
C      1  0.5309480000000  0.5120000000000  0.5684950000000 1.0
C      1  0.5312260000000  0.5535020000000  0.5447250000000 1.0
C      1  0.5314730000000  0.5701720000000  0.4999390000000 1.0
C      1  0.5316330000000  0.5539400000000  0.4540480000000 1.0
C      1  0.5314950000000  0.5120120000000  0.4305500000000 1.0
C      1  0.5290080000000  0.4661220000000  0.4418790000000 1.0
C      1  0.5315820000000  0.4332000000000  0.4759260000000 1.0
C      1  0.5311890000000  0.4335130000000  0.5241400000000 1.0
C      1  0.4871380000000  0.4790150000000  0.5337890000000 1.0
C      1  0.4999580000000  0.5047940000000  0.5312790000000 1.0
C      1  0.4869160000000  0.5271640000000  0.5201690000000 1.0
C      1  0.4967390000000  0.5430640000000  0.4987780000000 1.0
C      1  0.4970300000000  0.5334910000000  0.4721070000000 1.0
C      1  0.4874310000000  0.5075680000000  0.4657220000000 1.0
C      1  0.5017870000000  0.4838990000000  0.4722980000000 1.0
C      1  0.4876190000000  0.4658290000000  0.4891450000000 1.0
C      1  0.4969750000000  0.4597530000000  0.5150530000000 1.0
C      1  0.4863410000000  0.5746980000000  0.5278800000000 1.0
C      1  0.4858260000000  0.5761110000000  0.4717820000000 1.0
C      1  0.4865240000000  0.5390550000000  0.4295290000000 1.0
C      1  0.4869710000000  0.4865400000000  0.4218730000000 1.0
C      1  0.4869970000000  0.4384870000000  0.4493350000000 1.0
C      1  0.4867160000000  0.4195290000000  0.4992950000000 1.0
C      1  0.4859670000000  0.4387270000000  0.5522380000000 1.0
C      1  0.4864350000000  0.4862100000000  0.5773630000000 1.0
C      1  0.4869750000000  0.5395820000000  0.5674420000000 1.0
C      1  0.4490850000000  0.4754820000000  0.5414220000000 1.0
C      1  0.4536200000000  0.5070110000000  0.5414020000000 1.0
C      1  0.4438510000000  0.5321040000000  0.5260240000000 1.0
C      1  0.4524870000000  0.5456990000000  0.4994150000000 1.0
C      1  0.4528440000000  0.5349630000000  0.4701730000000 1.0
C      1  0.4441430000000  0.5077730000000  0.4586400000000 1.0
C      1  0.4534560000000  0.4789780000000  0.4640110000000 1.0
C      1  0.4443390000000  0.4595770000000  0.4861330000000 1.0
C      1  0.4530500000000  0.4570660000000  0.5156520000000 1.0
C      1  0.5174300000000  0.4860770000000  0.4218770000000 1.0
C      1  0.5174700000000  0.4387460000000  0.4490550000000 1.0
C      1  0.5176010000000  0.4197630000000  0.4998230000000 1.0
C      1  0.5164260000000  0.4408130000000  0.5501670000000 1.0
C      1  0.5169630000000  0.4859860000000  0.5769950000000 1.0
C      1  0.5175220000000  0.5397930000000  0.5683090000000 1.0
C      1  0.5173720000000  0.5743030000000  0.5271650000000 1.0
C      1  0.5167410000000  0.5732450000000  0.4729980000000 1.0
C      1  0.5175830000000  0.5393500000000  0.4304850000000 1.0
C      1  0.4724420000000  0.5541900000000  0.4533670000000 1.0
C      1  0.4757180000000  0.5110440000000  0.4375470000000 1.0
C      1  0.4778600000000  0.4683780000000  0.4456860000000 1.0
C      1  0.4756930000000  0.4396860000000  0.4783880000000 1.0
C      1  0.4734790000000  0.4338130000000  0.5240480000000 1.0
C      1  0.4704410000000  0.4629200000000  0.5645430000000 1.0
C      1  0.4769810000000  0.5108040000000  0.5621520000000 1.0
C      1  0.4755950000000  0.5480700000000  0.5396000000000 1.0
C      1  0.4722880000000  0.5711350000000  0.4999080000000 1.0
C      1  0.5481760000000  0.5447980000000  0.4998010000000 1.0
C      1  0.5481270000000  0.5345750000000  0.4706180000000 1.0
C      1  0.5479340000000  0.5079940000000  0.4556650000000 1.0
C      1  0.5450630000000  0.4786920000000  0.4636220000000 1.0
C      1  0.5480080000000  0.4570470000000  0.4848920000000 1.0
C      1  0.5480220000000  0.4571200000000  0.5153430000000 1.0
C      1  0.5472780000000  0.4777130000000  0.5381210000000 1.0
C      1  0.5477620000000  0.5077830000000  0.5437570000000 1.0
C      1  0.5474680000000  0.5342060000000  0.5284680000000 1.0
END
