TITL C-3577085-527-366 -1.38523166666676e-06 125000 -1130.99112816927 0 0 179 (C1) n - 1
REM
REM in /home/bkarasulu/work/CARBON/AIRSS/Generating-Clusters/EDIP-Nigel-Params/with-SteepDescent/Higher-Symm/SD-CG/HFTN-CG
REM
REM
REM
REM
REM
REM ./C.cell (12c818d87b63d06a65506943cc24bca4)
REM
REM compiler GCC version 9.2.1 20190827 (Red Hat 9.2.1-1)
REM options -cpp -mtune=generic -march=x86-64 -g -O0 -fpre-include=/usr/include/finclude/math-vector-fortran.h
REM seed 1607639710 784093962 754193391 -484288987 1896778986 -1292178120 640744906 431766951 31467897 1379401796 -237906313 -1712014440 1696755915 684457756 -1663731526 1546284183 -1487205968 1702535328 387098983 -1028100287 332330228 867907637 2121280236 933383376 -655610607 1550870857 1634987513 1745813061 -1879331481 -1841967594 -540404154 -1073319673 -2018007832
REM
CELL 1.54180   50.00000   50.00000   50.00000   90.00000   90.00000   90.00000
LATT -1
SFAC C  
C      1  0.5868450000000  0.5464740000000  0.5426590000000 1.0
C      1  0.5622070000000  0.5536470000000  0.4310460000000 1.0
C      1  0.4516760000000  0.5516980000000  0.4111510000000 1.0
C      1  0.4094350000000  0.5497630000000  0.5158540000000 1.0
C      1  0.4880010000000  0.5493080000000  0.6024100000000 1.0
C      1  0.5908060000000  0.4488170000000  0.4579150000000 1.0
C      1  0.5645060000000  0.4512330000000  0.5681070000000 1.0
C      1  0.4496690000000  0.4472530000000  0.5875720000000 1.0
C      1  0.4078640000000  0.4548790000000  0.4830920000000 1.0
C      1  0.4893460000000  0.4476150000000  0.4094750000000 1.0
C      1  0.5800930000000  0.4222040000000  0.4655600000000 1.0
C      1  0.4957080000000  0.4199950000000  0.4178240000000 1.0
C      1  0.4145450000000  0.4254660000000  0.4849250000000 1.0
C      1  0.4514030000000  0.4208330000000  0.5745890000000 1.0
C      1  0.5570500000000  0.4226190000000  0.5618310000000 1.0
C      1  0.5787130000000  0.5757830000000  0.5411270000000 1.0
C      1  0.4938140000000  0.5745180000000  0.5885380000000 1.0
C      1  0.4182830000000  0.5783490000000  0.5154130000000 1.0
C      1  0.4541350000000  0.5787840000000  0.4229520000000 1.0
C      1  0.5489070000000  0.5794850000000  0.4312430000000 1.0
C      1  0.4601930000000  0.4522240000000  0.4746440000000 1.0
C      1  0.4591420000000  0.4569550000000  0.5334890000000 1.0
C      1  0.5148570000000  0.4574580000000  0.5484050000000 1.0
C      1  0.5502570000000  0.4585340000000  0.4977990000000 1.0
C      1  0.5158820000000  0.4539730000000  0.4534260000000 1.0
C      1  0.4588820000000  0.5503730000000  0.5276290000000 1.0
C      1  0.4595910000000  0.5442070000000  0.4652220000000 1.0
C      1  0.5170140000000  0.5457160000000  0.4485340000000 1.0
C      1  0.5549960000000  0.5457870000000  0.5006800000000 1.0
C      1  0.5198250000000  0.5357710000000  0.5633860000000 1.0
C      1  0.5052130000000  0.5305500000000  0.4743250000000 1.0
C      1  0.4757840000000  0.5254930000000  0.4824170000000 1.0
C      1  0.4744990000000  0.5282860000000  0.5143180000000 1.0
C      1  0.5017250000000  0.5331860000000  0.5225860000000 1.0
C      1  0.5209710000000  0.5281380000000  0.4994660000000 1.0
C      1  0.5071850000000  0.4763790000000  0.5260070000000 1.0
C      1  0.4771110000000  0.4777120000000  0.5179740000000 1.0
C      1  0.4782040000000  0.4749070000000  0.4860320000000 1.0
C      1  0.5073390000000  0.4724250000000  0.4774480000000 1.0
C      1  0.5256890000000  0.4773580000000  0.5012790000000 1.0
C      1  0.5096720000000  0.4653510000000  0.4198410000000 1.0
C      1  0.4309690000000  0.4653570000000  0.4680590000000 1.0
C      1  0.4473340000000  0.4667090000000  0.5652570000000 1.0
C      1  0.5384100000000  0.4660840000000  0.5695600000000 1.0
C      1  0.5779900000000  0.4672410000000  0.4783290000000 1.0
C      1  0.5085280000000  0.5305320000000  0.5928580000000 1.0
C      1  0.4296300000000  0.5366710000000  0.5331720000000 1.0
C      1  0.4495550000000  0.5336740000000  0.4351160000000 1.0
C      1  0.5415470000000  0.5335530000000  0.4284730000000 1.0
C      1  0.5777950000000  0.5340120000000  0.5171370000000 1.0
C      1  0.5216360000000  0.5849080000000  0.5049760000000 1.0
C      1  0.5110870000000  0.6054320000000  0.4562080000000 1.0
C      1  0.4631750000000  0.6144530000000  0.4657680000000 1.0
C      1  0.4774980000000  0.5981430000000  0.5276520000000 1.0
C      1  0.5075020000000  0.5919270000000  0.5322870000000 1.0
C      1  0.5300230000000  0.3946410000000  0.4959820000000 1.0
C      1  0.5063930000000  0.3923380000000  0.5170160000000 1.0
C      1  0.4640940000000  0.4001970000000  0.5299210000000 1.0
C      1  0.4706310000000  0.4048760000000  0.4848080000000 1.0
C      1  0.5190310000000  0.3982690000000  0.4667420000000 1.0
C      1  0.4326710000000  0.5060830000000  0.5279730000000 1.0
C      1  0.5001050000000  0.4991880000000  0.5940120000000 1.0
C      1  0.5706440000000  0.5043850000000  0.5192600000000 1.0
C      1  0.5516510000000  0.5000530000000  0.4264640000000 1.0
C      1  0.4573720000000  0.5051230000000  0.4263600000000 1.0
C      1  0.4342120000000  0.4956670000000  0.4717180000000 1.0
C      1  0.5025660000000  0.4991780000000  0.4092710000000 1.0
C      1  0.5772490000000  0.4957730000000  0.4673030000000 1.0
C      1  0.5438700000000  0.4960740000000  0.5682130000000 1.0
C      1  0.4537560000000  0.4948690000000  0.5758720000000 1.0
C      1  0.4349500000000  0.4042770000000  0.5281900000000 1.0
C      1  0.5096510000000  0.4084440000000  0.5524700000000 1.0
C      1  0.5570400000000  0.4054490000000  0.5099050000000 1.0
C      1  0.5382250000000  0.4037040000000  0.4454600000000 1.0
C      1  0.4522750000000  0.3970780000000  0.4635680000000 1.0
C      1  0.4395030000000  0.5997080000000  0.4690120000000 1.0
C      1  0.5022670000000  0.5976380000000  0.4292610000000 1.0
C      1  0.5569880000000  0.5992640000000  0.5007180000000 1.0
C      1  0.5287230000000  0.5900720000000  0.5564900000000 1.0
C      1  0.4637840000000  0.5915780000000  0.5514510000000 1.0
C      1  0.5271960000000  0.5802010000000  0.4618510000000 1.0
C      1  0.4802810000000  0.5652180000000  0.4624540000000 1.0
C      1  0.4659950000000  0.5770860000000  0.5087490000000 1.0
C      1  0.5043160000000  0.5550110000000  0.5443400000000 1.0
C      1  0.5384460000000  0.5633500000000  0.5183560000000 1.0
C      1  0.5205340000000  0.4308940000000  0.5332780000000 1.0
C      1  0.4762560000000  0.4302930000000  0.5329840000000 1.0
C      1  0.4618830000000  0.4302380000000  0.4964610000000 1.0
C      1  0.5024350000000  0.4240770000000  0.4616740000000 1.0
C      1  0.5366660000000  0.4345250000000  0.4853630000000 1.0
C      1  0.4816650000000  0.4228420000000  0.5637040000000 1.0
C      1  0.5508780000000  0.4258540000000  0.5323540000000 1.0
C      1  0.5515590000000  0.4273890000000  0.4582180000000 1.0
C      1  0.4791680000000  0.4161300000000  0.4431080000000 1.0
C      1  0.4339490000000  0.4264760000000  0.5074970000000 1.0
C      1  0.4824300000000  0.5751450000000  0.4341500000000 1.0
C      1  0.5539180000000  0.5861770000000  0.4747940000000 1.0
C      1  0.5490570000000  0.5704650000000  0.5456090000000 1.0
C      1  0.4805350000000  0.5682500000000  0.5620910000000 1.0
C      1  0.4383850000000  0.5798470000000  0.4931410000000 1.0
C      1  0.5921350000000  0.4414570000000  0.5123270000000 1.0
C      1  0.5443270000000  0.4384580000000  0.4110890000000 1.0
C      1  0.4324040000000  0.4330840000000  0.4367900000000 1.0
C      1  0.4127120000000  0.4438520000000  0.5462300000000 1.0
C      1  0.5169330000000  0.4343150000000  0.5945460000000 1.0
C      1  0.5957790000000  0.5674770000000  0.4921120000000 1.0
C      1  0.5453610000000  0.5577040000000  0.5936810000000 1.0
C      1  0.4334060000000  0.5623580000000  0.5690260000000 1.0
C      1  0.4161700000000  0.5588300000000  0.4533280000000 1.0
C      1  0.5153000000000  0.5601400000000  0.4003990000000 1.0
C      1  0.4200590000000  0.4602330000000  0.4407930000000 1.0
C      1  0.4182190000000  0.4672570000000  0.5634710000000 1.0
C      1  0.5328530000000  0.4590760000000  0.5978400000000 1.0
C      1  0.6010530000000  0.4664410000000  0.4971210000000 1.0
C      1  0.5306310000000  0.4615930000000  0.3994220000000 1.0
C      1  0.4172440000000  0.5391990000000  0.5608720000000 1.0
C      1  0.4200570000000  0.5336380000000  0.4364270000000 1.0
C      1  0.5346960000000  0.5375710000000  0.3999120000000 1.0
C      1  0.6026020000000  0.5390070000000  0.5018150000000 1.0
C      1  0.5341360000000  0.5337210000000  0.6083050000000 1.0
C      1  0.4741980000000  0.4578290000000  0.5995590000000 1.0
C      1  0.5768270000000  0.4680300000000  0.5474080000000 1.0
C      1  0.5790810000000  0.4616430000000  0.4342340000000 1.0
C      1  0.4659130000000  0.4574600000000  0.4202760000000 1.0
C      1  0.4104010000000  0.4720320000000  0.5068480000000 1.0
C      1  0.4761600000000  0.5393870000000  0.4000320000000 1.0
C      1  0.5762490000000  0.5481150000000  0.4537560000000 1.0
C      1  0.5731510000000  0.5291500000000  0.5620180000000 1.0
C      1  0.4632510000000  0.5385920000000  0.5955310000000 1.0
C      1  0.4133250000000  0.5330780000000  0.4920590000000 1.0
C      1  0.4958540000000  0.5509240000000  0.4208220000000 1.0
C      1  0.4325100000000  0.5531300000000  0.4778340000000 1.0
C      1  0.4597990000000  0.5471680000000  0.5680410000000 1.0
C      1  0.5481910000000  0.5470080000000  0.5656200000000 1.0
C      1  0.5697220000000  0.5614000000000  0.4782600000000 1.0
C      1  0.4941880000000  0.4462930000000  0.5794080000000 1.0
C      1  0.4286930000000  0.4521650000000  0.5225070000000 1.0
C      1  0.4607940000000  0.4402430000000  0.4429280000000 1.0
C      1  0.5510860000000  0.4503020000000  0.4372960000000 1.0
C      1  0.5661830000000  0.4507250000000  0.5236410000000 1.0
C      1  0.4274760000000  0.4131160000000  0.4591080000000 1.0
C      1  0.4269160000000  0.4175420000000  0.5543970000000 1.0
C      1  0.5303490000000  0.4138730000000  0.5752300000000 1.0
C      1  0.5821920000000  0.4170580000000  0.4957170000000 1.0
C      1  0.5265350000000  0.4148640000000  0.4192980000000 1.0
C      1  0.4357660000000  0.5826350000000  0.5474690000000 1.0
C      1  0.4313570000000  0.5840520000000  0.4441310000000 1.0
C      1  0.5256130000000  0.5852290000000  0.4135680000000 1.0
C      1  0.5826580000000  0.5879020000000  0.5129370000000 1.0
C      1  0.5233240000000  0.5805170000000  0.5849270000000 1.0
C      1  0.4258350000000  0.4850940000000  0.4262430000000 1.0
C      1  0.4155900000000  0.4950850000000  0.5527050000000 1.0
C      1  0.5239280000000  0.4854160000000  0.6082320000000 1.0
C      1  0.5975880000000  0.4949180000000  0.5067960000000 1.0
C      1  0.5445140000000  0.4883630000000  0.3985120000000 1.0
C      1  0.4213810000000  0.5138720000000  0.5743530000000 1.0
C      1  0.4177260000000  0.5051200000000  0.4466570000000 1.0
C      1  0.5251190000000  0.5104210000000  0.3913370000000 1.0
C      1  0.6040550000000  0.5146230000000  0.4856140000000 1.0
C      1  0.5450480000000  0.5062040000000  0.6009910000000 1.0
C      1  0.5316910000000  0.4952250000000  0.4486130000000 1.0
C      1  0.4770740000000  0.4963810000000  0.4459420000000 1.0
C      1  0.4642810000000  0.5036200000000  0.5283730000000 1.0
C      1  0.4979750000000  0.4952400000000  0.5645690000000 1.0
C      1  0.5404100000000  0.5037310000000  0.4991060000000 1.0
C      1  0.5213180000000  0.5080890000000  0.5532070000000 1.0
C      1  0.4724070000000  0.5066180000000  0.5564830000000 1.0
C      1  0.4662240000000  0.4988960000000  0.4724880000000 1.0
C      1  0.5050010000000  0.5045490000000  0.4388830000000 1.0
C      1  0.5492200000000  0.5043500000000  0.4712260000000 1.0
C      1  0.4722060000000  0.4879870000000  0.6003070000000 1.0
C      1  0.5787680000000  0.4912530000000  0.4372690000000 1.0
C      1  0.5702160000000  0.4989250000000  0.5508640000000 1.0
C      1  0.4746840000000  0.5096230000000  0.4017370000000 1.0
C      1  0.4193860000000  0.5020720000000  0.4991650000000 1.0
C      1  0.4898490000000  0.5799460000000  0.4871870000000 1.0
C      1  0.5053180000000  0.4271410000000  0.5010150000000 1.0
C      1  0.4783080000000  0.3873290000000  0.5072490000000 1.0
C      1  0.4885980000000  0.6077040000000  0.4756110000000 1.0
END
