TITL C-3577076-40-600 -0.0798681760607035 125000 -115.285086379334 0 0 21 (C1) n - 1
REM
REM in /home/bkarasulu/work/CARBON/AIRSS/Generating-Clusters/EDIP-Nigel-Params/with-SteepDescent/Higher-Symm/SD-CG/HFTN-CG
REM
REM
REM
REM
REM
REM ./C.cell (12c818d87b63d06a65506943cc24bca4)
REM
REM compiler GCC version 9.2.1 20190827 (Red Hat 9.2.1-1)
REM options -cpp -mtune=generic -march=x86-64 -g -O0 -fpre-include=/usr/include/finclude/math-vector-fortran.h
REM seed -290286615 1487104954 801364507 835975898 1228387223 -2016351123 -642357341 -1729570899 -454641934 -1344166436 1094731797 2110568105 1236981825 -1167101779 1259226809 -107791118 955849278 1964029208 233561358 1657619011 -1739084211 -2047453935 392600495 -1487976815 -1644345055 -1026480044 461765130 -1589587097 148227242 -465647752 2125604889 1749095276 -366809521
REM
CELL 1.54180   50.00000   50.00000   50.00000   90.00000   90.00000   90.00000
LATT -1
SFAC C  
C      1  0.5408250000000  0.4820020000000  0.4545220000000 1.0
C      1  0.5631310000000  0.5413830000000  0.4940370000000 1.0
C      1  0.5045900000000  0.5513800000000  0.4686020000000 1.0
C      1  0.4580930000000  0.4359200000000  0.5841400000000 1.0
C      1  0.4425520000000  0.4422610000000  0.5384830000000 1.0
C      1  0.5123980000000  0.5361970000000  0.4466740000000 1.0
C      1  0.4809980000000  0.4921940000000  0.4973120000000 1.0
C      1  0.4404010000000  0.4464250000000  0.5675280000000 1.0
C      1  0.5472760000000  0.5513280000000  0.5133330000000 1.0
C      1  0.5204480000000  0.5505990000000  0.5137980000000 1.0
C      1  0.4421690000000  0.4746350000000  0.5593630000000 1.0
C      1  0.4636800000000  0.4805190000000  0.5150940000000 1.0
C      1  0.4430630000000  0.4705050000000  0.5302420000000 1.0
C      1  0.4867150000000  0.5190160000000  0.4996110000000 1.0
C      1  0.4985670000000  0.4757370000000  0.4820420000000 1.0
C      1  0.5558490000000  0.5274140000000  0.4709770000000 1.0
C      1  0.5509190000000  0.4992970000000  0.4737000000000 1.0
C      1  0.5010800000000  0.5423700000000  0.4955540000000 1.0
C      1  0.4929780000000  0.4500940000000  0.4788240000000 1.0
C      1  0.5153920000000  0.4887600000000  0.4632500000000 1.0
C      1  0.5388770000000  0.5419640000000  0.4529140000000 1.0
END
