TITL C-3578199-7832-774 1.46854520709188e-07 125000 -1040.843953046 0 0 165 (C1) n - 1
REM
REM in /home/bkarasulu/work/CARBON/AIRSS/Generating-Clusters/EDIP-Nigel-Params/with-SteepDescent/Higher-Symm/SD-CG/HFTN-CG
REM
REM
REM
REM
REM
REM ./C.cell (12c818d87b63d06a65506943cc24bca4)
REM
REM compiler GCC version 9.2.1 20190827 (Red Hat 9.2.1-1)
REM options -cpp -mtune=generic -march=x86-64 -g -O0 -fpre-include=/usr/include/finclude/math-vector-fortran.h
REM seed -1037842702 1975705919 -1052945200 1263700240 -841201490 167376293 -788487694 1737867613 -413038391 2044166623 -146452744 -1513568374 1946088680 824066198 -197527388 -42625104 -909557060 1901608779 269767627 -1031194791 -2027696138 -2068170772 -1551753500 -1701881886 -1511357448 570026566 46076033 -1777094617 456546382 -1873368948 1681923779 -1866776105 453131295
REM
CELL 1.54180   50.00000   50.00000   50.00000   90.00000   90.00000   90.00000
LATT -1
SFAC C  
C      1  0.5362420000000  0.4064310000000  0.4391390000000 1.0
C      1  0.4927460000000  0.5837000000000  0.4900120000000 1.0
C      1  0.6066460000000  0.5140930000000  0.4608280000000 1.0
C      1  0.5147990000000  0.4373980000000  0.5139860000000 1.0
C      1  0.4624000000000  0.4268060000000  0.4439310000000 1.0
C      1  0.4527180000000  0.5011820000000  0.3940690000000 1.0
C      1  0.5000890000000  0.4348560000000  0.4146620000000 1.0
C      1  0.4243760000000  0.4594190000000  0.4324230000000 1.0
C      1  0.4502600000000  0.5928630000000  0.5011210000000 1.0
C      1  0.5523680000000  0.5218970000000  0.4519920000000 1.0
C      1  0.5461230000000  0.5782500000000  0.4880840000000 1.0
C      1  0.5122270000000  0.5250380000000  0.5570830000000 1.0
C      1  0.4943120000000  0.4892770000000  0.4786840000000 1.0
C      1  0.5182390000000  0.5355700000000  0.4821840000000 1.0
C      1  0.5097690000000  0.4553620000000  0.5897270000000 1.0
C      1  0.5359690000000  0.4580800000000  0.5242700000000 1.0
C      1  0.5296380000000  0.5070360000000  0.3949770000000 1.0
C      1  0.4833570000000  0.4044980000000  0.5321510000000 1.0
C      1  0.4449150000000  0.4412200000000  0.4276710000000 1.0
C      1  0.5073010000000  0.5621060000000  0.5882020000000 1.0
C      1  0.4924410000000  0.4675950000000  0.5480130000000 1.0
C      1  0.4301480000000  0.4888460000000  0.4390440000000 1.0
C      1  0.4398650000000  0.5102010000000  0.4184590000000 1.0
C      1  0.4862010000000  0.4139730000000  0.4304360000000 1.0
C      1  0.5506060000000  0.4411310000000  0.5500380000000 1.0
C      1  0.4618450000000  0.4377800000000  0.5592010000000 1.0
C      1  0.5816460000000  0.4374630000000  0.5505680000000 1.0
C      1  0.5710540000000  0.5755540000000  0.4697670000000 1.0
C      1  0.4776450000000  0.6056370000000  0.5079570000000 1.0
C      1  0.5089370000000  0.5662060000000  0.5321370000000 1.0
C      1  0.4407390000000  0.5424060000000  0.5085770000000 1.0
C      1  0.5651240000000  0.5680680000000  0.4418590000000 1.0
C      1  0.4442580000000  0.5159170000000  0.4804790000000 1.0
C      1  0.4574350000000  0.5667600000000  0.5165030000000 1.0
C      1  0.5826320000000  0.4667580000000  0.4589040000000 1.0
C      1  0.4594620000000  0.5141240000000  0.5543330000000 1.0
C      1  0.4690180000000  0.5354470000000  0.4757020000000 1.0
C      1  0.5955090000000  0.4921120000000  0.4468380000000 1.0
C      1  0.5379350000000  0.4635320000000  0.5850060000000 1.0
C      1  0.4453900000000  0.5139390000000  0.5247340000000 1.0
C      1  0.5539720000000  0.5931030000000  0.5127570000000 1.0
C      1  0.5016460000000  0.5390390000000  0.4121300000000 1.0
C      1  0.4893250000000  0.3997840000000  0.5035180000000 1.0
C      1  0.5323370000000  0.4690610000000  0.4324280000000 1.0
C      1  0.4366770000000  0.4675270000000  0.5900790000000 1.0
C      1  0.5060430000000  0.4196890000000  0.5472950000000 1.0
C      1  0.5637060000000  0.5355470000000  0.4758410000000 1.0
C      1  0.5878750000000  0.5569650000000  0.5196840000000 1.0
C      1  0.5342520000000  0.6046740000000  0.5283990000000 1.0
C      1  0.4515850000000  0.4204260000000  0.4703690000000 1.0
C      1  0.4698640000000  0.4193690000000  0.4927250000000 1.0
C      1  0.4281180000000  0.5716300000000  0.4612790000000 1.0
C      1  0.4924420000000  0.4497460000000  0.4965010000000 1.0
C      1  0.4377250000000  0.5143600000000  0.5786350000000 1.0
C      1  0.5164660000000  0.5341570000000  0.5948850000000 1.0
C      1  0.4665400000000  0.5921680000000  0.5564680000000 1.0
C      1  0.5435660000000  0.3984850000000  0.5004840000000 1.0
C      1  0.5076800000000  0.4013070000000  0.4473670000000 1.0
C      1  0.4591650000000  0.5528560000000  0.5966600000000 1.0
C      1  0.5832440000000  0.5330890000000  0.5389300000000 1.0
C      1  0.4668370000000  0.4804750000000  0.5897480000000 1.0
C      1  0.4737720000000  0.5247260000000  0.4489600000000 1.0
C      1  0.4893170000000  0.5609720000000  0.5106360000000 1.0
C      1  0.4770460000000  0.4673700000000  0.3807550000000 1.0
C      1  0.5962980000000  0.5053250000000  0.5456080000000 1.0
C      1  0.5037590000000  0.4480450000000  0.4662150000000 1.0
C      1  0.5852110000000  0.5125200000000  0.4994720000000 1.0
C      1  0.4003460000000  0.4593370000000  0.5423860000000 1.0
C      1  0.5161930000000  0.5041580000000  0.5951640000000 1.0
C      1  0.4938220000000  0.4431290000000  0.5645890000000 1.0
C      1  0.5492420000000  0.4696180000000  0.4963020000000 1.0
C      1  0.5640520000000  0.5117180000000  0.5800890000000 1.0
C      1  0.5704020000000  0.4439590000000  0.4432300000000 1.0
C      1  0.5614630000000  0.4080870000000  0.4808980000000 1.0
C      1  0.4543130000000  0.4833310000000  0.5134420000000 1.0
C      1  0.4849770000000  0.4831640000000  0.5072090000000 1.0
C      1  0.4278920000000  0.5464370000000  0.4495500000000 1.0
C      1  0.3960280000000  0.4760830000000  0.4673920000000 1.0
C      1  0.4058000000000  0.5000620000000  0.4518050000000 1.0
C      1  0.5516520000000  0.5639060000000  0.5698630000000 1.0
C      1  0.5789180000000  0.4643070000000  0.4880720000000 1.0
C      1  0.5242000000000  0.5166580000000  0.4600970000000 1.0
C      1  0.5265810000000  0.5794890000000  0.5736500000000 1.0
C      1  0.4792660000000  0.5629240000000  0.5764640000000 1.0
C      1  0.5478490000000  0.5381230000000  0.5231290000000 1.0
C      1  0.4477450000000  0.4703730000000  0.5419640000000 1.0
C      1  0.4481260000000  0.4746290000000  0.3811460000000 1.0
C      1  0.4924350000000  0.5340280000000  0.4964850000000 1.0
C      1  0.4515400000000  0.5360750000000  0.4313240000000 1.0
C      1  0.4693390000000  0.4844530000000  0.5585950000000 1.0
C      1  0.4326920000000  0.5442800000000  0.5841060000000 1.0
C      1  0.5563940000000  0.4570700000000  0.4206300000000 1.0
C      1  0.5483020000000  0.3989950000000  0.5276870000000 1.0
C      1  0.5570030000000  0.4195200000000  0.4551990000000 1.0
C      1  0.5667670000000  0.5254010000000  0.4251330000000 1.0
C      1  0.5147830000000  0.5056890000000  0.5329960000000 1.0
C      1  0.4374690000000  0.4733090000000  0.4896690000000 1.0
C      1  0.5013110000000  0.5166790000000  0.3906220000000 1.0
C      1  0.5485850000000  0.5000940000000  0.4947480000000 1.0
C      1  0.4284340000000  0.5559530000000  0.5571420000000 1.0
C      1  0.4758960000000  0.4816930000000  0.4584420000000 1.0
C      1  0.5928010000000  0.4714940000000  0.5810120000000 1.0
C      1  0.5422190000000  0.4928860000000  0.5902010000000 1.0
C      1  0.5470030000000  0.5305140000000  0.4019990000000 1.0
C      1  0.4864530000000  0.5758040000000  0.4412280000000 1.0
C      1  0.5166540000000  0.4774210000000  0.5378360000000 1.0
C      1  0.4279510000000  0.4204660000000  0.5304370000000 1.0
C      1  0.4094480000000  0.4510270000000  0.4565770000000 1.0
C      1  0.5424530000000  0.5480000000000  0.4938910000000 1.0
C      1  0.4857860000000  0.4439050000000  0.3924580000000 1.0
C      1  0.4859200000000  0.6050630000000  0.5384000000000 1.0
C      1  0.4275570000000  0.4370230000000  0.4782400000000 1.0
C      1  0.5956330000000  0.5548760000000  0.4910240000000 1.0
C      1  0.5569700000000  0.4428030000000  0.5884300000000 1.0
C      1  0.5285530000000  0.5522650000000  0.4103180000000 1.0
C      1  0.4000000000000  0.5292440000000  0.4922940000000 1.0
C      1  0.4734830000000  0.5732190000000  0.4682620000000 1.0
C      1  0.5841830000000  0.5001500000000  0.4210630000000 1.0
C      1  0.5136320000000  0.5922670000000  0.5438380000000 1.0
C      1  0.5989550000000  0.4551520000000  0.5379700000000 1.0
C      1  0.5824830000000  0.5499700000000  0.4284850000000 1.0
C      1  0.5238860000000  0.4866040000000  0.4718020000000 1.0
C      1  0.5722060000000  0.4775750000000  0.4094330000000 1.0
C      1  0.5888160000000  0.4980110000000  0.5728330000000 1.0
C      1  0.5199950000000  0.5881810000000  0.4758520000000 1.0
C      1  0.3979530000000  0.4546840000000  0.5127920000000 1.0
C      1  0.4913780000000  0.5113090000000  0.5166270000000 1.0
C      1  0.4199960000000  0.4890340000000  0.5776850000000 1.0
C      1  0.5950270000000  0.4850180000000  0.5016650000000 1.0
C      1  0.5837440000000  0.4450300000000  0.5788350000000 1.0
C      1  0.4738680000000  0.5280650000000  0.6024960000000 1.0
C      1  0.4362510000000  0.4420720000000  0.5741530000000 1.0
C      1  0.5154250000000  0.5802030000000  0.4479690000000 1.0
C      1  0.5170630000000  0.4112590000000  0.4969780000000 1.0
C      1  0.5365000000000  0.4150680000000  0.5471370000000 1.0
C      1  0.4503970000000  0.5718040000000  0.5444230000000 1.0
C      1  0.6058520000000  0.5277360000000  0.4851550000000 1.0
C      1  0.5652420000000  0.5379340000000  0.5639990000000 1.0
C      1  0.4143460000000  0.4351780000000  0.5537170000000 1.0
C      1  0.4173800000000  0.5241870000000  0.4677150000000 1.0
C      1  0.5160050000000  0.4215070000000  0.4687860000000 1.0
C      1  0.5368280000000  0.5665120000000  0.4341390000000 1.0
C      1  0.4481870000000  0.5874150000000  0.4718710000000 1.0
C      1  0.4007550000000  0.5042270000000  0.5082280000000 1.0
C      1  0.4770220000000  0.5568550000000  0.4191650000000 1.0
C      1  0.4143250000000  0.4311270000000  0.5052820000000 1.0
C      1  0.4832380000000  0.4935660000000  0.3996460000000 1.0
C      1  0.4825860000000  0.5329260000000  0.5646450000000 1.0
C      1  0.4114810000000  0.5493310000000  0.5110390000000 1.0
C      1  0.4564350000000  0.5062120000000  0.6000950000000 1.0
C      1  0.5059770000000  0.4562710000000  0.4359250000000 1.0
C      1  0.4581900000000  0.4208610000000  0.5353800000000 1.0
C      1  0.5960500000000  0.4812620000000  0.5293090000000 1.0
C      1  0.5402240000000  0.5108410000000  0.5203500000000 1.0
C      1  0.5749150000000  0.5806640000000  0.5257250000000 1.0
C      1  0.4880490000000  0.4811590000000  0.4307850000000 1.0
C      1  0.4479370000000  0.4888620000000  0.4649440000000 1.0
C      1  0.4968420000000  0.4805930000000  0.5982390000000 1.0
C      1  0.5277250000000  0.5479090000000  0.5440140000000 1.0
C      1  0.4194810000000  0.4818620000000  0.5491390000000 1.0
C      1  0.5235290000000  0.4946500000000  0.4215050000000 1.0
C      1  0.4160840000000  0.5093720000000  0.5328630000000 1.0
C      1  0.4070000000000  0.4779330000000  0.4951490000000 1.0
C      1  0.5015500000000  0.5218980000000  0.4379630000000 1.0
C      1  0.4094550000000  0.5400060000000  0.5397910000000 1.0
END
