TITL C-3577088-510-600 9.432884248301e-07 125000 -1164.85298202783 0 0 186 (C1) n - 1
REM
REM in /home/bkarasulu/work/CARBON/AIRSS/Generating-Clusters/EDIP-Nigel-Params/with-SteepDescent/Higher-Symm/SD-CG/HFTN-CG
REM
REM
REM
REM
REM
REM ./C.cell (12c818d87b63d06a65506943cc24bca4)
REM
REM compiler GCC version 9.2.1 20190827 (Red Hat 9.2.1-1)
REM options -cpp -mtune=generic -march=x86-64 -g -O0 -fpre-include=/usr/include/finclude/math-vector-fortran.h
REM seed -695637510 -1776043379 -348238708 1286637989 104906098 2042570515 1590705687 -652320490 -2133990655 1605735393 -1077666841 361606910 -1145900364 1885695188 1224095317 1425926951 -1305509249 1101811497 176359175 1469709446 -846907257 1139935338 -692352252 -851345165 -1503200601 2116350914 -790238124 -1248198763 1770951547 -1244062093 413147703 -1454799855 -1636824452
REM
CELL 1.54180   50.00000   50.00000   50.00000   90.00000   90.00000   90.00000
LATT -1
SFAC C  
C      1  0.5252210000000  0.4871620000000  0.5713630000000 1.0
C      1  0.4586830000000  0.5843450000000  0.4259870000000 1.0
C      1  0.4430710000000  0.5397420000000  0.5311000000000 1.0
C      1  0.4031070000000  0.5713450000000  0.4672330000000 1.0
C      1  0.3894200000000  0.4646590000000  0.5250490000000 1.0
C      1  0.4871210000000  0.6139090000000  0.5141970000000 1.0
C      1  0.4324740000000  0.4312510000000  0.5715540000000 1.0
C      1  0.5961630000000  0.4521370000000  0.4820540000000 1.0
C      1  0.4467120000000  0.5168860000000  0.4878370000000 1.0
C      1  0.4631890000000  0.5337600000000  0.4732130000000 1.0
C      1  0.4025450000000  0.5010730000000  0.4360650000000 1.0
C      1  0.5571570000000  0.5186480000000  0.4715930000000 1.0
C      1  0.5558940000000  0.4340160000000  0.5557470000000 1.0
C      1  0.5297500000000  0.5217450000000  0.4011790000000 1.0
C      1  0.4917180000000  0.5240080000000  0.4718670000000 1.0
C      1  0.4443140000000  0.4415680000000  0.4294500000000 1.0
C      1  0.5651770000000  0.4029970000000  0.5171250000000 1.0
C      1  0.4155270000000  0.4531850000000  0.4681380000000 1.0
C      1  0.4466390000000  0.4090670000000  0.4655960000000 1.0
C      1  0.6066960000000  0.4906000000000  0.5463260000000 1.0
C      1  0.5571400000000  0.4638270000000  0.5134610000000 1.0
C      1  0.5340870000000  0.5102760000000  0.6213540000000 1.0
C      1  0.6058180000000  0.5206000000000  0.5487890000000 1.0
C      1  0.5075810000000  0.5418300000000  0.5958720000000 1.0
C      1  0.4827920000000  0.5156060000000  0.3916550000000 1.0
C      1  0.4478370000000  0.4109420000000  0.5261930000000 1.0
C      1  0.5623920000000  0.4873610000000  0.4143660000000 1.0
C      1  0.5004330000000  0.5762680000000  0.5430340000000 1.0
C      1  0.5855470000000  0.5329750000000  0.5670190000000 1.0
C      1  0.4511510000000  0.6036540000000  0.4904140000000 1.0
C      1  0.4857570000000  0.4828160000000  0.5465420000000 1.0
C      1  0.6210760000000  0.4859550000000  0.4967240000000 1.0
C      1  0.5530250000000  0.5287100000000  0.6056680000000 1.0
C      1  0.4773500000000  0.4815290000000  0.4461120000000 1.0
C      1  0.3900920000000  0.5157340000000  0.5085300000000 1.0
C      1  0.5795590000000  0.4504330000000  0.5479930000000 1.0
C      1  0.5119890000000  0.5481850000000  0.4786070000000 1.0
C      1  0.5426280000000  0.5950720000000  0.5316130000000 1.0
C      1  0.5092290000000  0.5972350000000  0.4627710000000 1.0
C      1  0.4577170000000  0.6110290000000  0.5188070000000 1.0
C      1  0.4863430000000  0.5441020000000  0.5740950000000 1.0
C      1  0.5315770000000  0.4788690000000  0.4756560000000 1.0
C      1  0.4988660000000  0.4077000000000  0.4227370000000 1.0
C      1  0.5473870000000  0.4127540000000  0.5360590000000 1.0
C      1  0.5933100000000  0.4930430000000  0.4513530000000 1.0
C      1  0.5388940000000  0.5992150000000  0.4710210000000 1.0
C      1  0.4568820000000  0.4589280000000  0.4075300000000 1.0
C      1  0.5104880000000  0.5890810000000  0.4330000000000 1.0
C      1  0.5030530000000  0.4920330000000  0.5917810000000 1.0
C      1  0.4694430000000  0.4736920000000  0.5229950000000 1.0
C      1  0.5285060000000  0.5837140000000  0.5527840000000 1.0
C      1  0.4087660000000  0.5570790000000  0.5333440000000 1.0
C      1  0.4977280000000  0.3991660000000  0.5222480000000 1.0
C      1  0.4835460000000  0.4374040000000  0.5789910000000 1.0
C      1  0.4890810000000  0.5424540000000  0.4041720000000 1.0
C      1  0.4295270000000  0.4883110000000  0.5853240000000 1.0
C      1  0.4978340000000  0.5747980000000  0.4815310000000 1.0
C      1  0.5458640000000  0.4528580000000  0.4861260000000 1.0
C      1  0.3933320000000  0.5470460000000  0.4536940000000 1.0
C      1  0.5417230000000  0.4403820000000  0.4222100000000 1.0
C      1  0.4222440000000  0.4562260000000  0.4402930000000 1.0
C      1  0.3993800000000  0.4747460000000  0.5524940000000 1.0
C      1  0.5222840000000  0.3974120000000  0.5397180000000 1.0
C      1  0.5027920000000  0.5307870000000  0.5244850000000 1.0
C      1  0.3865880000000  0.4905380000000  0.4562870000000 1.0
C      1  0.5657690000000  0.5146360000000  0.5822370000000 1.0
C      1  0.5661690000000  0.4259700000000  0.4483430000000 1.0
C      1  0.4748770000000  0.5673220000000  0.4460650000000 1.0
C      1  0.3988510000000  0.5068600000000  0.5559130000000 1.0
C      1  0.5361650000000  0.4787270000000  0.6185970000000 1.0
C      1  0.5396140000000  0.4463770000000  0.5804180000000 1.0
C      1  0.4307600000000  0.5379830000000  0.4172900000000 1.0
C      1  0.4745810000000  0.4065740000000  0.5380670000000 1.0
C      1  0.4533280000000  0.5873960000000  0.5384050000000 1.0
C      1  0.3941800000000  0.5280280000000  0.5357170000000 1.0
C      1  0.5231120000000  0.4335270000000  0.4912800000000 1.0
C      1  0.4418000000000  0.4837740000000  0.5270470000000 1.0
C      1  0.4394890000000  0.5595850000000  0.5737390000000 1.0
C      1  0.6136630000000  0.4729380000000  0.5221400000000 1.0
C      1  0.4681050000000  0.5681020000000  0.5788240000000 1.0
C      1  0.5220920000000  0.4199570000000  0.4096580000000 1.0
C      1  0.4753570000000  0.4833360000000  0.4938530000000 1.0
C      1  0.5763780000000  0.4855250000000  0.5862710000000 1.0
C      1  0.3988290000000  0.4830830000000  0.5029900000000 1.0
C      1  0.4479030000000  0.4902750000000  0.4818070000000 1.0
C      1  0.4919890000000  0.5835760000000  0.5122230000000 1.0
C      1  0.5068270000000  0.4419570000000  0.5171690000000 1.0
C      1  0.6206070000000  0.5373340000000  0.5320020000000 1.0
C      1  0.4266990000000  0.4838970000000  0.4316700000000 1.0
C      1  0.5824710000000  0.5644300000000  0.4755440000000 1.0
C      1  0.4209300000000  0.5128520000000  0.5733670000000 1.0
C      1  0.4549650000000  0.5231200000000  0.4308630000000 1.0
C      1  0.5654460000000  0.5201700000000  0.5208470000000 1.0
C      1  0.5394240000000  0.5145840000000  0.4470360000000 1.0
C      1  0.5431470000000  0.5081430000000  0.5629970000000 1.0
C      1  0.5131010000000  0.4727750000000  0.5485070000000 1.0
C      1  0.5123090000000  0.4050760000000  0.5655020000000 1.0
C      1  0.4762850000000  0.5873910000000  0.5582840000000 1.0
C      1  0.5360260000000  0.5505000000000  0.5928640000000 1.0
C      1  0.5920280000000  0.5657370000000  0.5049040000000 1.0
C      1  0.5518350000000  0.5154550000000  0.4202750000000 1.0
C      1  0.4281300000000  0.5646790000000  0.4510710000000 1.0
C      1  0.5843250000000  0.5353030000000  0.4694530000000 1.0
C      1  0.6151960000000  0.5473360000000  0.5063660000000 1.0
C      1  0.5156960000000  0.4751300000000  0.3971100000000 1.0
C      1  0.5937160000000  0.5278540000000  0.4424420000000 1.0
C      1  0.4125350000000  0.5671810000000  0.4962120000000 1.0
C      1  0.5181940000000  0.5484920000000  0.4038080000000 1.0
C      1  0.5278170000000  0.4748880000000  0.5211900000000 1.0
C      1  0.4046040000000  0.4377450000000  0.5296300000000 1.0
C      1  0.6041210000000  0.5258570000000  0.4894500000000 1.0
C      1  0.4794490000000  0.5406840000000  0.4323670000000 1.0
C      1  0.4539050000000  0.5105470000000  0.4017410000000 1.0
C      1  0.4830520000000  0.4701590000000  0.4169710000000 1.0
C      1  0.5149740000000  0.4397300000000  0.5493500000000 1.0
C      1  0.5721120000000  0.5572470000000  0.5558470000000 1.0
C      1  0.5937040000000  0.4501870000000  0.5208880000000 1.0
C      1  0.4283850000000  0.4789780000000  0.5022080000000 1.0
C      1  0.5228480000000  0.4902290000000  0.4487730000000 1.0
C      1  0.4440240000000  0.5744480000000  0.4936840000000 1.0
C      1  0.4534780000000  0.5609960000000  0.4677290000000 1.0
C      1  0.4423370000000  0.5315250000000  0.5629620000000 1.0
C      1  0.5228510000000  0.5395230000000  0.5053560000000 1.0
C      1  0.4980490000000  0.4462990000000  0.4252760000000 1.0
C      1  0.5806720000000  0.4797730000000  0.5561790000000 1.0
C      1  0.4069730000000  0.5298120000000  0.4345320000000 1.0
C      1  0.5549400000000  0.4672980000000  0.5976070000000 1.0
C      1  0.5070830000000  0.5162590000000  0.6098570000000 1.0
C      1  0.5095620000000  0.4441250000000  0.5927110000000 1.0
C      1  0.5777990000000  0.4832380000000  0.4972170000000 1.0
C      1  0.5429750000000  0.5186540000000  0.4996330000000 1.0
C      1  0.4958230000000  0.4113370000000  0.4519270000000 1.0
C      1  0.4064150000000  0.4372030000000  0.5595230000000 1.0
C      1  0.4743130000000  0.6108090000000  0.4725520000000 1.0
C      1  0.4817490000000  0.4631150000000  0.4716200000000 1.0
C      1  0.5279650000000  0.5662020000000  0.4252580000000 1.0
C      1  0.4370470000000  0.5679070000000  0.4138620000000 1.0
C      1  0.5558540000000  0.5632000000000  0.4340160000000 1.0
C      1  0.4984050000000  0.5476500000000  0.5469910000000 1.0
C      1  0.4913910000000  0.6266350000000  0.4886990000000 1.0
C      1  0.3934710000000  0.4718340000000  0.4759460000000 1.0
C      1  0.4461160000000  0.4146520000000  0.4378340000000 1.0
C      1  0.4566250000000  0.4469480000000  0.5876790000000 1.0
C      1  0.4499110000000  0.4955740000000  0.4487670000000 1.0
C      1  0.4965500000000  0.5036590000000  0.4495170000000 1.0
C      1  0.4270180000000  0.5754550000000  0.5516600000000 1.0
C      1  0.5644280000000  0.5813230000000  0.4567700000000 1.0
C      1  0.5647230000000  0.3910890000000  0.4931620000000 1.0
C      1  0.4846150000000  0.4121430000000  0.5653570000000 1.0
C      1  0.4318960000000  0.4704920000000  0.5507690000000 1.0
C      1  0.5409200000000  0.5734250000000  0.4863760000000 1.0
C      1  0.4309960000000  0.4307290000000  0.4829510000000 1.0
C      1  0.4510490000000  0.4423270000000  0.5490500000000 1.0
C      1  0.5197100000000  0.4263900000000  0.4610440000000 1.0
C      1  0.4753250000000  0.4438220000000  0.5161900000000 1.0
C      1  0.5430210000000  0.4088280000000  0.4535540000000 1.0
C      1  0.5447220000000  0.3873360000000  0.4740870000000 1.0
C      1  0.5424520000000  0.4666470000000  0.4063890000000 1.0
C      1  0.5697950000000  0.4462190000000  0.4686700000000 1.0
C      1  0.5445930000000  0.5623680000000  0.5665590000000 1.0
C      1  0.5075490000000  0.4679300000000  0.6103290000000 1.0
C      1  0.4682970000000  0.5212350000000  0.5725990000000 1.0
C      1  0.4398550000000  0.4833450000000  0.4041600000000 1.0
C      1  0.4553130000000  0.4768900000000  0.5872800000000 1.0
C      1  0.4077170000000  0.5365820000000  0.4942700000000 1.0
C      1  0.4284730000000  0.4284850000000  0.5135290000000 1.0
C      1  0.5080050000000  0.5023710000000  0.3996220000000 1.0
C      1  0.4770510000000  0.4928230000000  0.5742660000000 1.0
C      1  0.4697120000000  0.4391620000000  0.4864540000000 1.0
C      1  0.5188260000000  0.3815160000000  0.4837760000000 1.0
C      1  0.4949490000000  0.5062640000000  0.4961970000000 1.0
C      1  0.4945210000000  0.3908030000000  0.4946050000000 1.0
C      1  0.4768930000000  0.4086930000000  0.4751720000000 1.0
C      1  0.5714930000000  0.5382030000000  0.4249760000000 1.0
C      1  0.5233110000000  0.4949580000000  0.4990070000000 1.0
C      1  0.4294530000000  0.5215040000000  0.5105980000000 1.0
C      1  0.5215350000000  0.4518150000000  0.4427210000000 1.0
C      1  0.4591950000000  0.5647520000000  0.5186330000000 1.0
C      1  0.4857290000000  0.5925380000000  0.4178850000000 1.0
C      1  0.5589880000000  0.4978300000000  0.5413400000000 1.0
C      1  0.5913950000000  0.5079520000000  0.5093410000000 1.0
C      1  0.5860790000000  0.4794190000000  0.4270840000000 1.0
C      1  0.5493900000000  0.5734100000000  0.5152160000000 1.0
C      1  0.6120770000000  0.4753130000000  0.4707130000000 1.0
C      1  0.5686910000000  0.4907650000000  0.4698540000000 1.0
C      1  0.5707730000000  0.5544960000000  0.5251310000000 1.0
END
