TITL C-3577082-504-127 -6.01884482026902e-06 125000 -877.493633835155 0 0 140 (C1) n - 1
REM
REM in /home/bkarasulu/work/CARBON/AIRSS/Generating-Clusters/EDIP-Nigel-Params/with-SteepDescent/Higher-Symm/SD-CG/HFTN-CG
REM
REM
REM
REM
REM
REM ./C.cell (12c818d87b63d06a65506943cc24bca4)
REM
REM compiler GCC version 9.2.1 20190827 (Red Hat 9.2.1-1)
REM options -cpp -mtune=generic -march=x86-64 -g -O0 -fpre-include=/usr/include/finclude/math-vector-fortran.h
REM seed -1636051163 -1204461956 -670952134 -1998015126 -291567515 -1547392659 412111403 -2001455848 56333558 -1018055623 1697079409 1034056187 762585996 -2122141020 -181511602 -1534989493 1249349817 4568360 -2072274008 1585273831 -668121363 -708691398 397288256 -774171611 -451416231 -503520173 -1464949160 1797701215 318916766 182677599 787424270 -322097682 -160336195
REM
CELL 1.54180   50.00000   50.00000   50.00000   90.00000   90.00000   90.00000
LATT -1
SFAC C  
C      1  0.5276770000000  0.4851660000000  0.5162100000000 1.0
C      1  0.4729540000000  0.4829850000000  0.5176240000000 1.0
C      1  0.4990050000000  0.5323540000000  0.5222370000000 1.0
C      1  0.4757490000000  0.4281260000000  0.4372510000000 1.0
C      1  0.4449450000000  0.5539810000000  0.4249510000000 1.0
C      1  0.5710810000000  0.5221480000000  0.4358340000000 1.0
C      1  0.4133560000000  0.4591220000000  0.4489580000000 1.0
C      1  0.5114420000000  0.5931090000000  0.4495280000000 1.0
C      1  0.5748870000000  0.4445280000000  0.4498970000000 1.0
C      1  0.5277000000000  0.5377040000000  0.5229170000000 1.0
C      1  0.5190720000000  0.4571880000000  0.5183430000000 1.0
C      1  0.4536220000000  0.5050470000000  0.5230100000000 1.0
C      1  0.4943300000000  0.4071940000000  0.5434810000000 1.0
C      1  0.4228040000000  0.5503210000000  0.5416250000000 1.0
C      1  0.5836960000000  0.5401730000000  0.5428810000000 1.0
C      1  0.4921750000000  0.5245160000000  0.4951090000000 1.0
C      1  0.5251280000000  0.4966070000000  0.4881580000000 1.0
C      1  0.4841930000000  0.4814760000000  0.4899050000000 1.0
C      1  0.5472370000000  0.4861840000000  0.5860760000000 1.0
C      1  0.4661000000000  0.4652100000000  0.5877730000000 1.0
C      1  0.4876030000000  0.5463700000000  0.5871490000000 1.0
C      1  0.5696030000000  0.5036810000000  0.5775060000000 1.0
C      1  0.4702610000000  0.4374680000000  0.5784280000000 1.0
C      1  0.4620370000000  0.5571380000000  0.5772890000000 1.0
C      1  0.4149400000000  0.4974440000000  0.4908060000000 1.0
C      1  0.5429990000000  0.5725330000000  0.4924870000000 1.0
C      1  0.5407330000000  0.4292820000000  0.4925700000000 1.0
C      1  0.4664510000000  0.6004050000000  0.5133490000000 1.0
C      1  0.6036320000000  0.4795390000000  0.5130140000000 1.0
C      1  0.4293890000000  0.4197420000000  0.5156460000000 1.0
C      1  0.5890840000000  0.4928200000000  0.5580340000000 1.0
C      1  0.4507030000000  0.4268740000000  0.5591970000000 1.0
C      1  0.4609590000000  0.5790090000000  0.5579170000000 1.0
C      1  0.5033040000000  0.5481710000000  0.4565610000000 1.0
C      1  0.5509670000000  0.4751350000000  0.4512620000000 1.0
C      1  0.4530770000000  0.4886920000000  0.4525420000000 1.0
C      1  0.5602730000000  0.5344600000000  0.5609880000000 1.0
C      1  0.5012030000000  0.4304110000000  0.5609110000000 1.0
C      1  0.4374970000000  0.5330390000000  0.5619110000000 1.0
C      1  0.4463700000000  0.4154440000000  0.4723890000000 1.0
C      1  0.4593830000000  0.5777840000000  0.4728080000000 1.0
C      1  0.5930530000000  0.4980030000000  0.4724610000000 1.0
C      1  0.4484380000000  0.4243590000000  0.4451920000000 1.0
C      1  0.4633210000000  0.5744850000000  0.4417140000000 1.0
C      1  0.5877140000000  0.4986120000000  0.4429000000000 1.0
C      1  0.4517700000000  0.5363360000000  0.4046330000000 1.0
C      1  0.5499770000000  0.5209920000000  0.4167010000000 1.0
C      1  0.4810120000000  0.4522220000000  0.4212190000000 1.0
C      1  0.5072780000000  0.4080710000000  0.5176680000000 1.0
C      1  0.4168940000000  0.5387180000000  0.5154160000000 1.0
C      1  0.5772820000000  0.5514070000000  0.5170940000000 1.0
C      1  0.4631030000000  0.5206170000000  0.4910320000000 1.0
C      1  0.5357700000000  0.5288730000000  0.4920420000000 1.0
C      1  0.5060280000000  0.4568570000000  0.4883860000000 1.0
C      1  0.5132260000000  0.5774920000000  0.4959010000000 1.0
C      1  0.5612930000000  0.4514570000000  0.4960390000000 1.0
C      1  0.4278590000000  0.4710530000000  0.4939410000000 1.0
C      1  0.5056310000000  0.4760670000000  0.5624250000000 1.0
C      1  0.4771800000000  0.5059850000000  0.5655110000000 1.0
C      1  0.5174260000000  0.5154700000000  0.5639090000000 1.0
C      1  0.5348300000000  0.4690650000000  0.5649770000000 1.0
C      1  0.4559790000000  0.4848270000000  0.5676420000000 1.0
C      1  0.5097230000000  0.5443860000000  0.5669640000000 1.0
C      1  0.5186990000000  0.4467460000000  0.4512890000000 1.0
C      1  0.4616740000000  0.5183710000000  0.4595390000000 1.0
C      1  0.5344080000000  0.5472640000000  0.4576030000000 1.0
C      1  0.5215690000000  0.4764810000000  0.4133280000000 1.0
C      1  0.4783960000000  0.5010380000000  0.4089150000000 1.0
C      1  0.4956550000000  0.5230500000000  0.4174560000000 1.0
C      1  0.4913190000000  0.5217210000000  0.4473940000000 1.0
C      1  0.5283840000000  0.4892480000000  0.4379390000000 1.0
C      1  0.4771710000000  0.4812440000000  0.4322420000000 1.0
C      1  0.5233400000000  0.5230140000000  0.4102260000000 1.0
C      1  0.5100530000000  0.4524530000000  0.4225530000000 1.0
C      1  0.4544890000000  0.5103590000000  0.3979310000000 1.0
C      1  0.4809160000000  0.5813090000000  0.5329670000000 1.0
C      1  0.5787070000000  0.4786180000000  0.5317230000000 1.0
C      1  0.4423250000000  0.4427060000000  0.5322130000000 1.0
C      1  0.4745170000000  0.5516770000000  0.5255170000000 1.0
C      1  0.5551900000000  0.4976590000000  0.5223260000000 1.0
C      1  0.4700620000000  0.4523600000000  0.5209970000000 1.0
C      1  0.4252100000000  0.4659860000000  0.5244110000000 1.0
C      1  0.5102350000000  0.5834990000000  0.5260400000000 1.0
C      1  0.5685110000000  0.4510810000000  0.5258870000000 1.0
C      1  0.4569990000000  0.4719500000000  0.4780580000000 1.0
C      1  0.4942360000000  0.5536690000000  0.4842320000000 1.0
C      1  0.5535140000000  0.4809100000000  0.4808830000000 1.0
C      1  0.4138130000000  0.5532700000000  0.4898880000000 1.0
C      1  0.5932860000000  0.5487290000000  0.4922270000000 1.0
C      1  0.4953790000000  0.3980610000000  0.4929420000000 1.0
C      1  0.4092960000000  0.5081020000000  0.4645720000000 1.0
C      1  0.5588580000000  0.5815640000000  0.4700400000000 1.0
C      1  0.5390550000000  0.4118110000000  0.4695760000000 1.0
C      1  0.4950340000000  0.4721130000000  0.5909990000000 1.0
C      1  0.4799490000000  0.5179450000000  0.5931140000000 1.0
C      1  0.5274020000000  0.5077420000000  0.5914180000000 1.0
C      1  0.5408130000000  0.5183400000000  0.5429190000000 1.0
C      1  0.4971250000000  0.4541020000000  0.5408980000000 1.0
C      1  0.4625510000000  0.5245290000000  0.5457730000000 1.0
C      1  0.4117470000000  0.4512990000000  0.4786440000000 1.0
C      1  0.5041870000000  0.6003420000000  0.4787440000000 1.0
C      1  0.5850770000000  0.4473810000000  0.4786310000000 1.0
C      1  0.4297800000000  0.5009060000000  0.5646870000000 1.0
C      1  0.5373970000000  0.5580180000000  0.5656390000000 1.0
C      1  0.5323130000000  0.4389300000000  0.5649610000000 1.0
C      1  0.4353120000000  0.5773010000000  0.5416530000000 1.0
C      1  0.6015400000000  0.5165150000000  0.5426600000000 1.0
C      1  0.4645160000000  0.4042160000000  0.5440140000000 1.0
C      1  0.4382480000000  0.5913730000000  0.5152880000000 1.0
C      1  0.6121680000000  0.5076560000000  0.5154590000000 1.0
C      1  0.4507780000000  0.3995200000000  0.5178260000000 1.0
C      1  0.4653010000000  0.4014580000000  0.4917630000000 1.0
C      1  0.4311160000000  0.5782910000000  0.4886870000000 1.0
C      1  0.6069450000000  0.5216030000000  0.4887450000000 1.0
C      1  0.5459840000000  0.4314760000000  0.4485970000000 1.0
C      1  0.4228390000000  0.4882790000000  0.4450150000000 1.0
C      1  0.5396780000000  0.5827890000000  0.4475150000000 1.0
C      1  0.5452800000000  0.4357130000000  0.5374840000000 1.0
C      1  0.4269000000000  0.4943130000000  0.5343360000000 1.0
C      1  0.5332150000000  0.5657340000000  0.5356240000000 1.0
C      1  0.4156050000000  0.5381730000000  0.4634470000000 1.0
C      1  0.5812090000000  0.5607090000000  0.4664930000000 1.0
C      1  0.5102000000000  0.4016340000000  0.4668340000000 1.0
C      1  0.5765230000000  0.4729950000000  0.4326710000000 1.0
C      1  0.4278860000000  0.4398730000000  0.4341430000000 1.0
C      1  0.4933800000000  0.5707660000000  0.4390960000000 1.0
C      1  0.4781080000000  0.4388710000000  0.4918740000000 1.0
C      1  0.4564740000000  0.5497920000000  0.4998890000000 1.0
C      1  0.5641170000000  0.5156360000000  0.4950690000000 1.0
C      1  0.4102100000000  0.5110780000000  0.5158640000000 1.0
C      1  0.5567240000000  0.5711020000000  0.5177330000000 1.0
C      1  0.5346130000000  0.4162550000000  0.5173020000000 1.0
C      1  0.4745250000000  0.6012950000000  0.4840990000000 1.0
C      1  0.6017850000000  0.4718380000000  0.4839990000000 1.0
C      1  0.4222250000000  0.4236420000000  0.4863510000000 1.0
C      1  0.4962240000000  0.4270660000000  0.4592810000000 1.0
C      1  0.4435890000000  0.5425260000000  0.4526040000000 1.0
C      1  0.5642590000000  0.5364170000000  0.4609960000000 1.0
C      1  0.5011850000000  0.4990720000000  0.6041200000000 1.0
C      1  0.5042940000000  0.4940430000000  0.4550460000000 1.0
END
