TITL C-3577085-527-720 0.00032274909977538 125000 -933.767177480349 0 0 153 (C1) n - 1
REM
REM in /home/bkarasulu/work/CARBON/AIRSS/Generating-Clusters/EDIP-Nigel-Params/with-SteepDescent/Higher-Symm/SD-CG/HFTN-CG
REM
REM
REM
REM
REM
REM ./C.cell (12c818d87b63d06a65506943cc24bca4)
REM
REM compiler GCC version 9.2.1 20190827 (Red Hat 9.2.1-1)
REM options -cpp -mtune=generic -march=x86-64 -g -O0 -fpre-include=/usr/include/finclude/math-vector-fortran.h
REM seed 1714384764 884812523 7028231 -20796771 -1123446023 -1884714623 1033402296 -60938394 576194012 -532496500 1338395463 282309322 715796350 -1100102994 1154337428 -2048123714 153039359 573187132 897317082 1630216350 -211629113 1657475429 1382493568 -659338124 -1891509256 -319935565 2107121234 -1524991061 -1059778959 1666567637 766023736 -1799780109 -685686514
REM
CELL 1.54180   50.00000   50.00000   50.00000   90.00000   90.00000   90.00000
LATT -1
SFAC C  
C      1  0.4801110000000  0.5007880000000  0.4211580000000 1.0
C      1  0.4839480000000  0.4975610000000  0.5792820000000 1.0
C      1  0.5231020000000  0.5003780000000  0.5738590000000 1.0
C      1  0.5194520000000  0.4979450000000  0.4205120000000 1.0
C      1  0.4791540000000  0.4158320000000  0.5013160000000 1.0
C      1  0.4824790000000  0.5830240000000  0.4969530000000 1.0
C      1  0.5187410000000  0.5844370000000  0.4986380000000 1.0
C      1  0.5178270000000  0.4150590000000  0.4973850000000 1.0
C      1  0.4882780000000  0.5998100000000  0.5889050000000 1.0
C      1  0.4983460000000  0.3885160000000  0.4067350000000 1.0
C      1  0.5121290000000  0.5936560000000  0.4076440000000 1.0
C      1  0.5127730000000  0.3897450000000  0.5768920000000 1.0
C      1  0.4885270000000  0.5828460000000  0.6095750000000 1.0
C      1  0.4987510000000  0.4101130000000  0.3908280000000 1.0
C      1  0.5098160000000  0.4084080000000  0.5971310000000 1.0
C      1  0.5145030000000  0.5719170000000  0.3906550000000 1.0
C      1  0.4280340000000  0.5066120000000  0.4833360000000 1.0
C      1  0.4265870000000  0.5072760000000  0.5279190000000 1.0
C      1  0.5722290000000  0.4995220000000  0.5349210000000 1.0
C      1  0.5601950000000  0.5196020000000  0.4781190000000 1.0
C      1  0.4260050000000  0.4839970000000  0.5066790000000 1.0
C      1  0.4326310000000  0.5283840000000  0.5064770000000 1.0
C      1  0.5769270000000  0.5433230000000  0.5065760000000 1.0
C      1  0.5678660000000  0.4757610000000  0.5176600000000 1.0
C      1  0.5779360000000  0.4689170000000  0.4544410000000 1.0
C      1  0.5849440000000  0.5409770000000  0.5544870000000 1.0
C      1  0.4231540000000  0.4682130000000  0.5476540000000 1.0
C      1  0.4224330000000  0.5311490000000  0.4532860000000 1.0
C      1  0.5775400000000  0.4469020000000  0.4725920000000 1.0
C      1  0.5820950000000  0.5580910000000  0.5315560000000 1.0
C      1  0.4207870000000  0.5546320000000  0.4703180000000 1.0
C      1  0.4209000000000  0.4466940000000  0.5290490000000 1.0
C      1  0.5607620000000  0.4047690000000  0.4918090000000 1.0
C      1  0.5590430000000  0.5983660000000  0.5116550000000 1.0
C      1  0.4369640000000  0.4042640000000  0.5095240000000 1.0
C      1  0.4400710000000  0.5954330000000  0.4907120000000 1.0
C      1  0.5629760000000  0.4916210000000  0.4128850000000 1.0
C      1  0.5650600000000  0.5126280000000  0.5912620000000 1.0
C      1  0.4359140000000  0.5106370000000  0.4089330000000 1.0
C      1  0.4378720000000  0.4906200000000  0.5906700000000 1.0
C      1  0.5197630000000  0.4290280000000  0.4703380000000 1.0
C      1  0.5242440000000  0.5645230000000  0.5213710000000 1.0
C      1  0.4777020000000  0.4293180000000  0.5284510000000 1.0
C      1  0.4797280000000  0.5688510000000  0.4699230000000 1.0
C      1  0.5208150000000  0.4710300000000  0.4336770000000 1.0
C      1  0.5279030000000  0.5262100000000  0.5606250000000 1.0
C      1  0.4788280000000  0.5276890000000  0.4336580000000 1.0
C      1  0.4805030000000  0.4692270000000  0.5677240000000 1.0
C      1  0.4607180000000  0.4754990000000  0.5434170000000 1.0
C      1  0.4600710000000  0.5201770000000  0.4574040000000 1.0
C      1  0.5403060000000  0.4760170000000  0.4582300000000 1.0
C      1  0.5532850000000  0.5253350000000  0.5380680000000 1.0
C      1  0.4582330000000  0.5456380000000  0.4742810000000 1.0
C      1  0.4582410000000  0.4541150000000  0.5224560000000 1.0
C      1  0.5396190000000  0.4532660000000  0.4775270000000 1.0
C      1  0.5390850000000  0.5361900000000  0.5116770000000 1.0
C      1  0.5357280000000  0.3924300000000  0.4961060000000 1.0
C      1  0.5335340000000  0.6087380000000  0.5052110000000 1.0
C      1  0.4620290000000  0.3928300000000  0.5036840000000 1.0
C      1  0.4655570000000  0.6065770000000  0.4951630000000 1.0
C      1  0.5388270000000  0.4970120000000  0.3991720000000 1.0
C      1  0.5398290000000  0.5012950000000  0.5971050000000 1.0
C      1  0.4614020000000  0.5027710000000  0.3994590000000 1.0
C      1  0.4638750000000  0.4972180000000  0.5999830000000 1.0
C      1  0.5798860000000  0.4298080000000  0.5334990000000 1.0
C      1  0.5748190000000  0.5813360000000  0.4686980000000 1.0
C      1  0.4253370000000  0.4225900000000  0.4638190000000 1.0
C      1  0.4321220000000  0.5778410000000  0.5375550000000 1.0
C      1  0.5805170000000  0.5346600000000  0.4354090000000 1.0
C      1  0.5724380000000  0.4717120000000  0.5751840000000 1.0
C      1  0.4256200000000  0.4670300000000  0.4262730000000 1.0
C      1  0.4340650000000  0.5350800000000  0.5761980000000 1.0
C      1  0.4994860000000  0.5523000000000  0.5294860000000 1.0
C      1  0.4943550000000  0.4420920000000  0.4634810000000 1.0
C      1  0.5049770000000  0.5555990000000  0.4648310000000 1.0
C      1  0.5044400000000  0.4387210000000  0.5372250000000 1.0
C      1  0.5020620000000  0.5316800000000  0.5479230000000 1.0
C      1  0.4951400000000  0.4637700000000  0.4457830000000 1.0
C      1  0.5055250000000  0.4599470000000  0.5559250000000 1.0
C      1  0.5048710000000  0.5369090000000  0.4439260000000 1.0
C      1  0.5338730000000  0.5041890000000  0.4709180000000 1.0
C      1  0.5254280000000  0.4867460000000  0.5201550000000 1.0
C      1  0.4702500000000  0.5016680000000  0.5319170000000 1.0
C      1  0.4692020000000  0.4925510000000  0.4806210000000 1.0
C      1  0.5280670000000  0.4620090000000  0.5039000000000 1.0
C      1  0.5179020000000  0.5109830000000  0.5024660000000 1.0
C      1  0.4629620000000  0.5364390000000  0.5024460000000 1.0
C      1  0.4636230000000  0.4642690000000  0.4941870000000 1.0
C      1  0.4850440000000  0.3896900000000  0.5751160000000 1.0
C      1  0.4926760000000  0.5958530000000  0.4269590000000 1.0
C      1  0.5116880000000  0.3929450000000  0.4295800000000 1.0
C      1  0.5014380000000  0.6014190000000  0.5658630000000 1.0
C      1  0.4867180000000  0.5710800000000  0.3906060000000 1.0
C      1  0.4903520000000  0.4278390000000  0.5973020000000 1.0
C      1  0.5111590000000  0.4328680000000  0.3971210000000 1.0
C      1  0.5057690000000  0.5626750000000  0.6062070000000 1.0
C      1  0.4493560000000  0.5578070000000  0.4220730000000 1.0
C      1  0.4478200000000  0.4411340000000  0.5790170000000 1.0
C      1  0.5476130000000  0.5600730000000  0.5792270000000 1.0
C      1  0.5528230000000  0.4420160000000  0.4220830000000 1.0
C      1  0.4477280000000  0.4189080000000  0.5582380000000 1.0
C      1  0.4486730000000  0.5815270000000  0.4408400000000 1.0
C      1  0.5450200000000  0.5792120000000  0.5566970000000 1.0
C      1  0.5524060000000  0.4181690000000  0.4421280000000 1.0
C      1  0.5272550000000  0.5709590000000  0.4731410000000 1.0
C      1  0.5273420000000  0.4364150000000  0.5189510000000 1.0
C      1  0.4738250000000  0.5603170000000  0.5184630000000 1.0
C      1  0.4700220000000  0.4386620000000  0.4792370000000 1.0
C      1  0.5278690000000  0.4782140000000  0.5526960000000 1.0
C      1  0.5270600000000  0.5189450000000  0.4421920000000 1.0
C      1  0.4773280000000  0.5183440000000  0.5557420000000 1.0
C      1  0.4714170000000  0.4802970000000  0.4439440000000 1.0
C      1  0.5846450000000  0.4931840000000  0.5863480000000 1.0
C      1  0.5786260000000  0.5133160000000  0.4196160000000 1.0
C      1  0.4184000000000  0.4897150000000  0.4142260000000 1.0
C      1  0.4219770000000  0.5129580000000  0.5854360000000 1.0
C      1  0.5771260000000  0.5964640000000  0.4906790000000 1.0
C      1  0.5752050000000  0.4118200000000  0.5143170000000 1.0
C      1  0.4214890000000  0.4103570000000  0.4872930000000 1.0
C      1  0.4261840000000  0.5890100000000  0.5139130000000 1.0
C      1  0.5264040000000  0.4068270000000  0.4488110000000 1.0
C      1  0.5205170000000  0.5912440000000  0.5492140000000 1.0
C      1  0.4706460000000  0.4022910000000  0.5541650000000 1.0
C      1  0.4750920000000  0.5912870000000  0.4480850000000 1.0
C      1  0.5274680000000  0.4507550000000  0.4109370000000 1.0
C      1  0.5241770000000  0.5492030000000  0.5910470000000 1.0
C      1  0.4716310000000  0.5519750000000  0.4051370000000 1.0
C      1  0.4733170000000  0.4488280000000  0.5904880000000 1.0
C      1  0.4326040000000  0.5802300000000  0.4660130000000 1.0
C      1  0.4320670000000  0.4210110000000  0.5335400000000 1.0
C      1  0.5632950000000  0.5800270000000  0.5343530000000 1.0
C      1  0.5672750000000  0.4208700000000  0.4676510000000 1.0
C      1  0.4318850000000  0.4656670000000  0.5748540000000 1.0
C      1  0.4325870000000  0.5345130000000  0.4261060000000 1.0
C      1  0.5674120000000  0.5388480000000  0.5769840000000 1.0
C      1  0.5695130000000  0.4662250000000  0.4271070000000 1.0
C      1  0.5990340000000  0.5065240000000  0.5244750000000 1.0
C      1  0.5871700000000  0.5037110000000  0.4805510000000 1.0
C      1  0.3966180000000  0.5091380000000  0.4815740000000 1.0
C      1  0.3963720000000  0.5109650000000  0.5255170000000 1.0
C      1  0.5977260000000  0.5231200000000  0.5008050000000 1.0
C      1  0.5891170000000  0.4798100000000  0.4983610000000 1.0
C      1  0.3948000000000  0.4870040000000  0.5045970000000 1.0
C      1  0.3936530000000  0.5306870000000  0.5027160000000 1.0
C      1  0.5521370000000  0.4609650000000  0.5591680000000 1.0
C      1  0.5579800000000  0.5370810000000  0.4528060000000 1.0
C      1  0.4478490000000  0.4610490000000  0.4413760000000 1.0
C      1  0.4558760000000  0.5400830000000  0.5599180000000 1.0
C      1  0.5534460000000  0.5648080000000  0.4623730000000 1.0
C      1  0.5592960000000  0.4498190000000  0.5324190000000 1.0
C      1  0.4480030000000  0.4375310000000  0.4586290000000 1.0
C      1  0.4549660000000  0.5627560000000  0.5414900000000 1.0
C      1  0.4815250000000  0.5104500000000  0.5039780000000 1.0
END
