TITL C-3578208-4450-443 -2.74974908957772e-06 125000 -766.922168541696 0 0 123 (C1) n - 1
REM
REM in /home/bkarasulu/work/CARBON/AIRSS/Generating-Clusters/EDIP-Nigel-Params/with-SteepDescent/Higher-Symm/SD-CG/HFTN-CG
REM
REM
REM
REM
REM
REM ./C.cell (12c818d87b63d06a65506943cc24bca4)
REM
REM compiler GCC version 9.2.1 20190827 (Red Hat 9.2.1-1)
REM options -cpp -mtune=generic -march=x86-64 -g -O0 -fpre-include=/usr/include/finclude/math-vector-fortran.h
REM seed 2052334640 -515218837 376843073 -1406370591 567772333 -405611157 1579812736 -1120998077 -1069581670 -748630830 1087753311 -118764816 1632409598 1135200195 -1028529004 -1754151832 737750787 1069785738 -538816629 1576861668 -868377106 691445357 1556125703 219786535 -1561878336 2059538355 -972441667 -230543822 2135148724 -780656652 1876256988 852030311 -66333963
REM
CELL 1.54180   50.00000   50.00000   50.00000   90.00000   90.00000   90.00000
LATT -1
SFAC C  
C      1  0.4052050000000  0.5204530000000  0.5078750000000 1.0
C      1  0.4254870000000  0.5190300000000  0.5546220000000 1.0
C      1  0.4687830000000  0.5210420000000  0.5796380000000 1.0
C      1  0.5198760000000  0.5225740000000  0.5850450000000 1.0
C      1  0.5676600000000  0.5221880000000  0.5647650000000 1.0
C      1  0.5965090000000  0.5224200000000  0.5222970000000 1.0
C      1  0.5849730000000  0.5209170000000  0.4712610000000 1.0
C      1  0.5533700000000  0.5154950000000  0.4310580000000 1.0
C      1  0.5057730000000  0.5147210000000  0.4133880000000 1.0
C      1  0.4539920000000  0.5224340000000  0.4213180000000 1.0
C      1  0.4182760000000  0.5237430000000  0.4594270000000 1.0
C      1  0.5575400000000  0.4304260000000  0.4736330000000 1.0
C      1  0.5295030000000  0.4351010000000  0.4651230000000 1.0
C      1  0.4618190000000  0.4350630000000  0.4368290000000 1.0
C      1  0.4355080000000  0.4410390000000  0.4451010000000 1.0
C      1  0.4250190000000  0.4310540000000  0.4689620000000 1.0
C      1  0.4450420000000  0.4339440000000  0.5293280000000 1.0
C      1  0.4574120000000  0.4327490000000  0.5551080000000 1.0
C      1  0.4858520000000  0.4316590000000  0.5590170000000 1.0
C      1  0.5441910000000  0.4338440000000  0.5484160000000 1.0
C      1  0.5666490000000  0.4348810000000  0.5308190000000 1.0
C      1  0.5637690000000  0.4429980000000  0.5011330000000 1.0
C      1  0.5386960000000  0.5110590000000  0.4706960000000 1.0
C      1  0.5096150000000  0.5049410000000  0.4697510000000 1.0
C      1  0.4932820000000  0.5187200000000  0.4499750000000 1.0
C      1  0.4675310000000  0.5007320000000  0.4565610000000 1.0
C      1  0.4515590000000  0.5082900000000  0.4827100000000 1.0
C      1  0.4456440000000  0.5066950000000  0.5174330000000 1.0
C      1  0.4691690000000  0.5081290000000  0.5387750000000 1.0
C      1  0.4947390000000  0.4995050000000  0.5270820000000 1.0
C      1  0.5163530000000  0.5100720000000  0.5429360000000 1.0
C      1  0.5428140000000  0.4983580000000  0.5388320000000 1.0
C      1  0.5541240000000  0.5129100000000  0.5148480000000 1.0
C      1  0.5314860000000  0.4696010000000  0.4219670000000 1.0
C      1  0.4761980000000  0.4750730000000  0.4093750000000 1.0
C      1  0.4257740000000  0.4824960000000  0.4326320000000 1.0
C      1  0.4070830000000  0.4788660000000  0.4806140000000 1.0
C      1  0.4144410000000  0.4761960000000  0.5306920000000 1.0
C      1  0.4451550000000  0.4778110000000  0.5721510000000 1.0
C      1  0.4954500000000  0.4773550000000  0.5811340000000 1.0
C      1  0.5455790000000  0.4775040000000  0.5775240000000 1.0
C      1  0.5885410000000  0.4787640000000  0.5467870000000 1.0
C      1  0.5967360000000  0.4792040000000  0.4965030000000 1.0
C      1  0.5740630000000  0.4744580000000  0.4510090000000 1.0
C      1  0.4454620000000  0.4501790000000  0.5728350000000 1.0
C      1  0.4969050000000  0.4485450000000  0.5794400000000 1.0
C      1  0.5438740000000  0.4502010000000  0.5710390000000 1.0
C      1  0.5857600000000  0.4512360000000  0.5430740000000 1.0
C      1  0.5901630000000  0.4524180000000  0.4955820000000 1.0
C      1  0.5733380000000  0.4467940000000  0.4565270000000 1.0
C      1  0.5282820000000  0.4424180000000  0.4356420000000 1.0
C      1  0.4754670000000  0.4469840000000  0.4152420000000 1.0
C      1  0.4191070000000  0.4557900000000  0.4282670000000 1.0
C      1  0.4139530000000  0.4518290000000  0.4824830000000 1.0
C      1  0.4215240000000  0.4490870000000  0.5263240000000 1.0
C      1  0.4495860000000  0.5816250000000  0.4697680000000 1.0
C      1  0.4326000000000  0.5811380000000  0.4947860000000 1.0
C      1  0.4430180000000  0.5734470000000  0.5233930000000 1.0
C      1  0.4527030000000  0.5805070000000  0.5516870000000 1.0
C      1  0.4816140000000  0.5781680000000  0.5596640000000 1.0
C      1  0.5416900000000  0.5758120000000  0.5457190000000 1.0
C      1  0.5684950000000  0.5818760000000  0.5352560000000 1.0
C      1  0.5679680000000  0.5785450000000  0.5069090000000 1.0
C      1  0.5353990000000  0.5750450000000  0.4525560000000 1.0
C      1  0.5231120000000  0.5742710000000  0.4252790000000 1.0
C      1  0.4946890000000  0.5678880000000  0.4293430000000 1.0
C      1  0.5886940000000  0.4916580000000  0.4709960000000 1.0
C      1  0.5517880000000  0.4866440000000  0.4365250000000 1.0
C      1  0.5050510000000  0.4851370000000  0.4107950000000 1.0
C      1  0.4522590000000  0.4923530000000  0.4220080000000 1.0
C      1  0.4177460000000  0.4947730000000  0.4581550000000 1.0
C      1  0.4059070000000  0.4914130000000  0.5068160000000 1.0
C      1  0.4266150000000  0.4903230000000  0.5535800000000 1.0
C      1  0.4697550000000  0.4919000000000  0.5793020000000 1.0
C      1  0.5206460000000  0.4922560000000  0.5833090000000 1.0
C      1  0.5696150000000  0.4923750000000  0.5665910000000 1.0
C      1  0.5931450000000  0.4933250000000  0.5218400000000 1.0
C      1  0.4796020000000  0.5312880000000  0.4096240000000 1.0
C      1  0.4360560000000  0.5385600000000  0.4405660000000 1.0
C      1  0.4070350000000  0.5366090000000  0.4834530000000 1.0
C      1  0.4134650000000  0.5331410000000  0.5325240000000 1.0
C      1  0.4428010000000  0.5338220000000  0.5731440000000 1.0
C      1  0.4916520000000  0.5360280000000  0.5919010000000 1.0
C      1  0.5463330000000  0.5369130000000  0.5797590000000 1.0
C      1  0.5877370000000  0.5361260000000  0.5477060000000 1.0
C      1  0.5929400000000  0.5357300000000  0.4955920000000 1.0
C      1  0.5698890000000  0.5332120000000  0.4490290000000 1.0
C      1  0.5332670000000  0.5271380000000  0.4130700000000 1.0
C      1  0.5399660000000  0.5411450000000  0.4795050000000 1.0
C      1  0.5165690000000  0.5596030000000  0.4712230000000 1.0
C      1  0.4931040000000  0.5504860000000  0.4542280000000 1.0
C      1  0.4659360000000  0.5547010000000  0.4671820000000 1.0
C      1  0.4613600000000  0.5361900000000  0.4887260000000 1.0
C      1  0.4814350000000  0.5404410000000  0.5070860000000 1.0
C      1  0.4676190000000  0.5377300000000  0.5315630000000 1.0
C      1  0.4873920000000  0.5490980000000  0.5511760000000 1.0
C      1  0.5162400000000  0.5396230000000  0.5485430000000 1.0
C      1  0.5301120000000  0.5560320000000  0.5270390000000 1.0
C      1  0.5508590000000  0.5439360000000  0.5080750000000 1.0
C      1  0.5087030000000  0.4581110000000  0.5436970000000 1.0
C      1  0.5375280000000  0.4682910000000  0.5319770000000 1.0
C      1  0.5439740000000  0.4666070000000  0.5016640000000 1.0
C      1  0.5555980000000  0.4946460000000  0.4915280000000 1.0
C      1  0.5175290000000  0.4778440000000  0.4615870000000 1.0
C      1  0.4958960000000  0.4611200000000  0.4456040000000 1.0
C      1  0.4682890000000  0.4683730000000  0.4555460000000 1.0
C      1  0.4683090000000  0.4617880000000  0.4840920000000 1.0
C      1  0.4461550000000  0.4741290000000  0.5001180000000 1.0
C      1  0.4585430000000  0.4698040000000  0.5308980000000 1.0
C      1  0.4896440000000  0.4705630000000  0.5249150000000 1.0
C      1  0.5874800000000  0.5627940000000  0.4961250000000 1.0
C      1  0.5615890000000  0.5608040000000  0.4537430000000 1.0
C      1  0.5352620000000  0.5546700000000  0.4091710000000 1.0
C      1  0.4819680000000  0.5588590000000  0.4061310000000 1.0
C      1  0.4370770000000  0.5679240000000  0.4451680000000 1.0
C      1  0.4110360000000  0.5642500000000  0.4873140000000 1.0
C      1  0.4190060000000  0.5602870000000  0.5312900000000 1.0
C      1  0.4416320000000  0.5618300000000  0.5700630000000 1.0
C      1  0.4873650000000  0.5652880000000  0.5866630000000 1.0
C      1  0.5426610000000  0.5634690000000  0.5713010000000 1.0
C      1  0.5866580000000  0.5640800000000  0.5471470000000 1.0
C      1  0.4935020000000  0.4589260000000  0.4979440000000 1.0
C      1  0.5204100000000  0.4584330000000  0.4838730000000 1.0
END
