TITL C-3577083-591-386 -1.83605400348065e-06 125000 -977.746665181917 0 0 159 (C1) n - 1
REM
REM in /home/bkarasulu/work/CARBON/AIRSS/Generating-Clusters/EDIP-Nigel-Params/with-SteepDescent/Higher-Symm/SD-CG/HFTN-CG
REM
REM
REM
REM
REM
REM ./C.cell (12c818d87b63d06a65506943cc24bca4)
REM
REM compiler GCC version 9.2.1 20190827 (Red Hat 9.2.1-1)
REM options -cpp -mtune=generic -march=x86-64 -g -O0 -fpre-include=/usr/include/finclude/math-vector-fortran.h
REM seed 429456427 -711998573 698825935 1866627650 1003434536 -1796579399 -856935542 823732671 -97742816 1015464009 -1906894345 306660989 1102870905 1316637195 -17303360 -1119012739 -271424151 1917603356 -1588705522 170271254 1666451240 612914899 -1909711004 1502626367 1823894580 1232817844 -628612065 1042190710 -1439397960 -1114047136 -1592130421 -751672944 -1057785192
REM
CELL 1.54180   50.00000   50.00000   50.00000   90.00000   90.00000   90.00000
LATT -1
SFAC C  
C      1  0.4843830000000  0.4760430000000  0.5488170000000 1.0
C      1  0.5143490000000  0.5252640000000  0.5495960000000 1.0
C      1  0.5143280000000  0.4748720000000  0.5490830000000 1.0
C      1  0.4844600000000  0.5243270000000  0.5493700000000 1.0
C      1  0.4219320000000  0.4808630000000  0.5392030000000 1.0
C      1  0.5779150000000  0.5194340000000  0.5388940000000 1.0
C      1  0.5777870000000  0.4807450000000  0.5388580000000 1.0
C      1  0.4218360000000  0.5194430000000  0.5392910000000 1.0
C      1  0.5532550000000  0.5433120000000  0.5730910000000 1.0
C      1  0.4466420000000  0.4568970000000  0.5733890000000 1.0
C      1  0.4466270000000  0.5435090000000  0.5733870000000 1.0
C      1  0.5532920000000  0.4569550000000  0.5730940000000 1.0
C      1  0.4707880000000  0.4181150000000  0.5480900000000 1.0
C      1  0.5296510000000  0.5827270000000  0.5480200000000 1.0
C      1  0.5296490000000  0.4174480000000  0.5480930000000 1.0
C      1  0.4707230000000  0.5822750000000  0.5480530000000 1.0
C      1  0.5327960000000  0.3993740000000  0.4485440000000 1.0
C      1  0.4676240000000  0.6007810000000  0.4485660000000 1.0
C      1  0.4675870000000  0.3994570000000  0.4484820000000 1.0
C      1  0.5327850000000  0.6008330000000  0.4486350000000 1.0
C      1  0.5148770000000  0.5153760000000  0.4982520000000 1.0
C      1  0.4858130000000  0.4802750000000  0.4997130000000 1.0
C      1  0.4859030000000  0.5203480000000  0.4999680000000 1.0
C      1  0.5149080000000  0.4850130000000  0.4981170000000 1.0
C      1  0.5690370000000  0.5183980000000  0.4433080000000 1.0
C      1  0.4307960000000  0.4814290000000  0.4442330000000 1.0
C      1  0.4314030000000  0.5182840000000  0.4445860000000 1.0
C      1  0.5696540000000  0.4815030000000  0.4431250000000 1.0
C      1  0.5316900000000  0.5188450000000  0.5734590000000 1.0
C      1  0.4671780000000  0.4816450000000  0.5727130000000 1.0
C      1  0.4674750000000  0.5187700000000  0.5736700000000 1.0
C      1  0.5320130000000  0.4814260000000  0.5724380000000 1.0
C      1  0.3966230000000  0.4856340000000  0.5223120000000 1.0
C      1  0.6030970000000  0.5149110000000  0.5218480000000 1.0
C      1  0.6029290000000  0.4857240000000  0.5218460000000 1.0
C      1  0.3965300000000  0.5149300000000  0.5223410000000 1.0
C      1  0.5566850000000  0.4715220000000  0.5204690000000 1.0
C      1  0.4431570000000  0.5275940000000  0.5206950000000 1.0
C      1  0.4431560000000  0.4727830000000  0.5205010000000 1.0
C      1  0.5566890000000  0.5286310000000  0.5205980000000 1.0
C      1  0.4303310000000  0.5745360000000  0.4686730000000 1.0
C      1  0.5702220000000  0.4252650000000  0.4687920000000 1.0
C      1  0.5701900000000  0.5747660000000  0.4687680000000 1.0
C      1  0.4302890000000  0.4255720000000  0.4686580000000 1.0
C      1  0.5153190000000  0.5174540000000  0.6003070000000 1.0
C      1  0.4841130000000  0.4862490000000  0.5984560000000 1.0
C      1  0.4842180000000  0.5174030000000  0.6003700000000 1.0
C      1  0.5155180000000  0.4863080000000  0.5983600000000 1.0
C      1  0.5297890000000  0.5174110000000  0.5250110000000 1.0
C      1  0.4699220000000  0.4850510000000  0.5242960000000 1.0
C      1  0.4699430000000  0.5154290000000  0.5245830000000 1.0
C      1  0.5297860000000  0.4827580000000  0.5247800000000 1.0
C      1  0.4474750000000  0.5150310000000  0.4704270000000 1.0
C      1  0.5531270000000  0.4855280000000  0.4687360000000 1.0
C      1  0.5527920000000  0.5148450000000  0.4688580000000 1.0
C      1  0.4471340000000  0.4854310000000  0.4700870000000 1.0
C      1  0.5285850000000  0.4476220000000  0.4255760000000 1.0
C      1  0.4716180000000  0.5531880000000  0.4255590000000 1.0
C      1  0.4721690000000  0.4476400000000  0.4254910000000 1.0
C      1  0.5289870000000  0.5531960000000  0.4255510000000 1.0
C      1  0.4022200000000  0.4745590000000  0.4469690000000 1.0
C      1  0.5973520000000  0.5262070000000  0.4465480000000 1.0
C      1  0.5981640000000  0.4746060000000  0.4464450000000 1.0
C      1  0.4030520000000  0.5261840000000  0.4471420000000 1.0
C      1  0.4866230000000  0.5658710000000  0.5899380000000 1.0
C      1  0.5136490000000  0.4347120000000  0.5898380000000 1.0
C      1  0.5136630000000  0.5660490000000  0.5898260000000 1.0
C      1  0.4866860000000  0.4349920000000  0.5899480000000 1.0
C      1  0.4755250000000  0.5249730000000  0.4196190000000 1.0
C      1  0.5256870000000  0.4766870000000  0.4206520000000 1.0
C      1  0.5248290000000  0.5251060000000  0.4189990000000 1.0
C      1  0.4748220000000  0.4767860000000  0.4213040000000 1.0
C      1  0.4035780000000  0.5727130000000  0.4766620000000 1.0
C      1  0.5969960000000  0.4278120000000  0.4764820000000 1.0
C      1  0.5969230000000  0.5730560000000  0.4768140000000 1.0
C      1  0.4035020000000  0.4280490000000  0.4763680000000 1.0
C      1  0.4428220000000  0.5850250000000  0.4437110000000 1.0
C      1  0.5575430000000  0.4152690000000  0.4437210000000 1.0
C      1  0.5576240000000  0.5851150000000  0.4437810000000 1.0
C      1  0.4428940000000  0.4154040000000  0.4436190000000 1.0
C      1  0.4463960000000  0.5657130000000  0.4228730000000 1.0
C      1  0.5537570000000  0.4349480000000  0.4232910000000 1.0
C      1  0.5541710000000  0.5657920000000  0.4229240000000 1.0
C      1  0.4469220000000  0.4350870000000  0.4232480000000 1.0
C      1  0.5145000000000  0.3960900000000  0.4712510000000 1.0
C      1  0.4858140000000  0.6041630000000  0.4712860000000 1.0
C      1  0.4857960000000  0.3960860000000  0.4712300000000 1.0
C      1  0.5145100000000  0.6041320000000  0.4713100000000 1.0
C      1  0.4221430000000  0.4564140000000  0.5560760000000 1.0
C      1  0.5782220000000  0.5435680000000  0.5563010000000 1.0
C      1  0.5782050000000  0.4565680000000  0.5561970000000 1.0
C      1  0.4220390000000  0.5438520000000  0.5562150000000 1.0
C      1  0.5144400000000  0.5646110000000  0.5295110000000 1.0
C      1  0.4862040000000  0.4361280000000  0.5298070000000 1.0
C      1  0.4861280000000  0.5640550000000  0.5299270000000 1.0
C      1  0.5144860000000  0.4353490000000  0.5293830000000 1.0
C      1  0.4756830000000  0.5583230000000  0.4776890000000 1.0
C      1  0.5250060000000  0.4420470000000  0.4776620000000 1.0
C      1  0.5249490000000  0.5581770000000  0.4777440000000 1.0
C      1  0.4756150000000  0.4419220000000  0.4775310000000 1.0
C      1  0.4848400000000  0.5665520000000  0.4485960000000 1.0
C      1  0.5157700000000  0.4336830000000  0.4485070000000 1.0
C      1  0.5157970000000  0.5664940000000  0.4486490000000 1.0
C      1  0.4849260000000  0.4336210000000  0.4484000000000 1.0
C      1  0.4499750000000  0.5716460000000  0.4901000000000 1.0
C      1  0.5505990000000  0.4281450000000  0.4902050000000 1.0
C      1  0.5505600000000  0.5719930000000  0.4901980000000 1.0
C      1  0.4499460000000  0.4285810000000  0.4900470000000 1.0
C      1  0.4112050000000  0.5634010000000  0.5249240000000 1.0
C      1  0.5897020000000  0.4373100000000  0.5248440000000 1.0
C      1  0.5895280000000  0.5631490000000  0.5251220000000 1.0
C      1  0.4111240000000  0.4371080000000  0.5246620000000 1.0
C      1  0.4546910000000  0.4031170000000  0.5049350000000 1.0
C      1  0.5456990000000  0.5976880000000  0.5048640000000 1.0
C      1  0.5456990000000  0.4024940000000  0.5049090000000 1.0
C      1  0.4546860000000  0.5971910000000  0.5048890000000 1.0
C      1  0.4806110000000  0.6074750000000  0.4993860000000 1.0
C      1  0.5196400000000  0.3926150000000  0.4993470000000 1.0
C      1  0.5196590000000  0.6076490000000  0.4993910000000 1.0
C      1  0.4806000000000  0.3928100000000  0.4993440000000 1.0
C      1  0.3922310000000  0.4859490000000  0.4707880000000 1.0
C      1  0.6076670000000  0.5149520000000  0.4703600000000 1.0
C      1  0.6078690000000  0.4859860000000  0.4703940000000 1.0
C      1  0.3924370000000  0.5149010000000  0.4707850000000 1.0
C      1  0.3970930000000  0.4724010000000  0.4961920000000 1.0
C      1  0.6027070000000  0.5283280000000  0.4958460000000 1.0
C      1  0.6028090000000  0.4724450000000  0.4957850000000 1.0
C      1  0.3971870000000  0.5282980000000  0.4962840000000 1.0
C      1  0.5135600000000  0.3947010000000  0.5548370000000 1.0
C      1  0.4867650000000  0.6050870000000  0.5545200000000 1.0
C      1  0.4868090000000  0.3953150000000  0.5546230000000 1.0
C      1  0.5135170000000  0.6054530000000  0.5546770000000 1.0
C      1  0.4481570000000  0.5917590000000  0.5325150000000 1.0
C      1  0.5522180000000  0.4077690000000  0.5326370000000 1.0
C      1  0.5522020000000  0.5924650000000  0.5325800000000 1.0
C      1  0.4481970000000  0.4086760000000  0.5325580000000 1.0
C      1  0.5367940000000  0.4320690000000  0.5741610000000 1.0
C      1  0.4634000000000  0.5682400000000  0.5742620000000 1.0
C      1  0.4635470000000  0.4323010000000  0.5742860000000 1.0
C      1  0.5368830000000  0.5683180000000  0.5741190000000 1.0
C      1  0.5522120000000  0.5163570000000  0.4166690000000 1.0
C      1  0.4474400000000  0.4869460000000  0.4179880000000 1.0
C      1  0.4481160000000  0.5162430000000  0.4179290000000 1.0
C      1  0.5529830000000  0.4869890000000  0.4168240000000 1.0
C      1  0.3979270000000  0.4436260000000  0.4992900000000 1.0
C      1  0.6024240000000  0.5570340000000  0.4994440000000 1.0
C      1  0.6024590000000  0.4437160000000  0.4991940000000 1.0
C      1  0.3979500000000  0.5570600000000  0.4995240000000 1.0
C      1  0.4390680000000  0.5572430000000  0.5165080000000 1.0
C      1  0.5615890000000  0.4421790000000  0.5167490000000 1.0
C      1  0.5614880000000  0.5579840000000  0.5167990000000 1.0
C      1  0.4390280000000  0.4430990000000  0.5163820000000 1.0
C      1  0.5287290000000  0.4717810000000  0.4765740000000 1.0
C      1  0.4723630000000  0.5289240000000  0.4764390000000 1.0
C      1  0.4720400000000  0.4713520000000  0.4764200000000 1.0
C      1  0.5284630000000  0.5284940000000  0.4765690000000 1.0
C      1  0.5003180000000  0.5692480000000  0.4951690000000 1.0
C      1  0.5002800000000  0.4310200000000  0.4950020000000 1.0
C      1  0.5002410000000  0.4952280000000  0.4178520000000 1.0
END
