TITL C-3577086-586-659 -9.26706969599668e-07 125000 -1005.81237750318 0 0 160 (C1) n - 1
REM
REM in /home/bkarasulu/work/CARBON/AIRSS/Generating-Clusters/EDIP-Nigel-Params/with-SteepDescent/Higher-Symm/SD-CG/HFTN-CG
REM
REM
REM
REM
REM
REM ./C.cell (12c818d87b63d06a65506943cc24bca4)
REM
REM compiler GCC version 9.2.1 20190827 (Red Hat 9.2.1-1)
REM options -cpp -mtune=generic -march=x86-64 -g -O0 -fpre-include=/usr/include/finclude/math-vector-fortran.h
REM seed 115917038 1862286322 -675715124 -204691310 -275591086 -682820099 -1544822989 -2141230641 643725548 61887992 -935697258 -1465748588 1771253108 1132394356 -185427887 -1621792714 936378564 -20379947 171486098 1804054917 -315029435 -1385137157 1881683006 -1184363965 1800540362 -1464552633 591018868 500025628 347927378 -976217795 1903000995 -515573444 1783782401
REM
CELL 1.54180   50.00000   50.00000   50.00000   90.00000   90.00000   90.00000
LATT -1
SFAC C  
C      1  0.5475900000000  0.4268170000000  0.5472170000000 1.0
C      1  0.5137380000000  0.4321500000000  0.4351930000000 1.0
C      1  0.4315730000000  0.4340900000000  0.5249030000000 1.0
C      1  0.4310870000000  0.4577980000000  0.4190440000000 1.0
C      1  0.4631770000000  0.4568020000000  0.6018530000000 1.0
C      1  0.6052120000000  0.4576870000000  0.4881570000000 1.0
C      1  0.5449640000000  0.4255610000000  0.4424210000000 1.0
C      1  0.4308650000000  0.4313250000000  0.4927890000000 1.0
C      1  0.5213460000000  0.4271820000000  0.5625020000000 1.0
C      1  0.5332600000000  0.5353760000000  0.5913510000000 1.0
C      1  0.5685880000000  0.5328930000000  0.4230640000000 1.0
C      1  0.3993390000000  0.5349780000000  0.4835660000000 1.0
C      1  0.4729060000000  0.3878940000000  0.5125120000000 1.0
C      1  0.5309820000000  0.3923190000000  0.5131770000000 1.0
C      1  0.4943390000000  0.3927960000000  0.4644260000000 1.0
C      1  0.5902970000000  0.5133330000000  0.5223540000000 1.0
C      1  0.4770350000000  0.5111580000000  0.4136520000000 1.0
C      1  0.4339590000000  0.5108010000000  0.5686270000000 1.0
C      1  0.4591810000000  0.4526340000000  0.4311280000000 1.0
C      1  0.4611800000000  0.4505490000000  0.5712800000000 1.0
C      1  0.5861510000000  0.4473200000000  0.5083020000000 1.0
C      1  0.6119680000000  0.4868260000000  0.4885750000000 1.0
C      1  0.4329170000000  0.4883520000000  0.4140160000000 1.0
C      1  0.4585460000000  0.4872920000000  0.6050690000000 1.0
C      1  0.5908240000000  0.5079230000000  0.5519460000000 1.0
C      1  0.5033570000000  0.5056680000000  0.3988310000000 1.0
C      1  0.4079950000000  0.5044060000000  0.5530240000000 1.0
C      1  0.4562240000000  0.5041420000000  0.5499940000000 1.0
C      1  0.5648440000000  0.5013150000000  0.5115070000000 1.0
C      1  0.4816850000000  0.5033190000000  0.4423040000000 1.0
C      1  0.4628060000000  0.4530960000000  0.5003180000000 1.0
C      1  0.5142600000000  0.4471730000000  0.5293240000000 1.0
C      1  0.5189920000000  0.4450320000000  0.4716020000000 1.0
C      1  0.5935790000000  0.5411810000000  0.5109710000000 1.0
C      1  0.4668130000000  0.5400680000000  0.4175580000000 1.0
C      1  0.4427730000000  0.5399110000000  0.5754390000000 1.0
C      1  0.5344200000000  0.5565490000000  0.4461980000000 1.0
C      1  0.4343460000000  0.5537740000000  0.5038570000000 1.0
C      1  0.5317470000000  0.5480080000000  0.5451330000000 1.0
C      1  0.4500430000000  0.5146360000000  0.4844390000000 1.0
C      1  0.5053960000000  0.5127300000000  0.5512030000000 1.0
C      1  0.5458130000000  0.5147810000000  0.4663500000000 1.0
C      1  0.4975610000000  0.4093080000000  0.5560170000000 1.0
C      1  0.5519570000000  0.4120560000000  0.4691720000000 1.0
C      1  0.4529360000000  0.4163880000000  0.4726360000000 1.0
C      1  0.5278610000000  0.5154570000000  0.4128850000000 1.0
C      1  0.4066210000000  0.5152360000000  0.5246600000000 1.0
C      1  0.5646350000000  0.5163910000000  0.5645910000000 1.0
C      1  0.4919940000000  0.4624900000000  0.5379780000000 1.0
C      1  0.5428790000000  0.4534490000000  0.4880360000000 1.0
C      1  0.4716220000000  0.4565340000000  0.4738400000000 1.0
C      1  0.5049310000000  0.4662720000000  0.5896790000000 1.0
C      1  0.5786280000000  0.4627580000000  0.4509390000000 1.0
C      1  0.4207190000000  0.4677530000000  0.4610120000000 1.0
C      1  0.5092590000000  0.4211330000000  0.4851170000000 1.0
C      1  0.4723650000000  0.4272090000000  0.5102430000000 1.0
C      1  0.5010860000000  0.4250310000000  0.5131150000000 1.0
C      1  0.5020010000000  0.3971880000000  0.5272380000000 1.0
C      1  0.5286160000000  0.3972250000000  0.4826760000000 1.0
C      1  0.4699620000000  0.3936290000000  0.4823460000000 1.0
C      1  0.4691650000000  0.4212450000000  0.5595350000000 1.0
C      1  0.5614430000000  0.4299390000000  0.4971370000000 1.0
C      1  0.4637360000000  0.4243190000000  0.4446360000000 1.0
C      1  0.4665190000000  0.5972810000000  0.5514170000000 1.0
C      1  0.5515360000000  0.6108160000000  0.5066020000000 1.0
C      1  0.4736220000000  0.5983410000000  0.4502780000000 1.0
C      1  0.4263790000000  0.4652740000000  0.5780240000000 1.0
C      1  0.5848580000000  0.4583410000000  0.5360080000000 1.0
C      1  0.4734770000000  0.4667780000000  0.3984980000000 1.0
C      1  0.4547810000000  0.4149790000000  0.5333430000000 1.0
C      1  0.5482070000000  0.4152120000000  0.5201800000000 1.0
C      1  0.4909410000000  0.4122560000000  0.4415880000000 1.0
C      1  0.5012230000000  0.4614000000000  0.4257130000000 1.0
C      1  0.4340040000000  0.4616560000000  0.5398310000000 1.0
C      1  0.5610030000000  0.4519900000000  0.5491630000000 1.0
C      1  0.5712050000000  0.5604710000000  0.5158270000000 1.0
C      1  0.4898090000000  0.5524060000000  0.4324030000000 1.0
C      1  0.4421970000000  0.5511550000000  0.5475110000000 1.0
C      1  0.4109030000000  0.5656790000000  0.5163730000000 1.0
C      1  0.5495860000000  0.5648620000000  0.5602720000000 1.0
C      1  0.5333360000000  0.5665340000000  0.4190410000000 1.0
C      1  0.5337370000000  0.4962890000000  0.5516950000000 1.0
C      1  0.5322700000000  0.4951600000000  0.4461050000000 1.0
C      1  0.4349870000000  0.4969600000000  0.5046780000000 1.0
C      1  0.5214850000000  0.4419910000000  0.5878820000000 1.0
C      1  0.5637060000000  0.4449380000000  0.4334890000000 1.0
C      1  0.4109190000000  0.4470960000000  0.4784210000000 1.0
C      1  0.4881990000000  0.5640240000000  0.4610960000000 1.0
C      1  0.4682540000000  0.5596990000000  0.5338720000000 1.0
C      1  0.5584780000000  0.5670890000000  0.4899150000000 1.0
C      1  0.5029110000000  0.4753260000000  0.3973750000000 1.0
C      1  0.4088130000000  0.4739500000000  0.5539400000000 1.0
C      1  0.5982680000000  0.4795620000000  0.5500480000000 1.0
C      1  0.4988070000000  0.4673350000000  0.4725890000000 1.0
C      1  0.4773190000000  0.4747240000000  0.5162400000000 1.0
C      1  0.5285370000000  0.4676880000000  0.5110530000000 1.0
C      1  0.4404460000000  0.5575220000000  0.4578130000000 1.0
C      1  0.4912170000000  0.5561850000000  0.5712140000000 1.0
C      1  0.5753560000000  0.5531630000000  0.4690090000000 1.0
C      1  0.5471500000000  0.4923040000000  0.4187780000000 1.0
C      1  0.4037860000000  0.4932220000000  0.5035120000000 1.0
C      1  0.5492470000000  0.4939620000000  0.5790520000000 1.0
C      1  0.5159150000000  0.5577880000000  0.5224480000000 1.0
C      1  0.5178200000000  0.5686430000000  0.4677620000000 1.0
C      1  0.4593210000000  0.5668430000000  0.5051420000000 1.0
C      1  0.5956570000000  0.5357530000000  0.4810360000000 1.0
C      1  0.4414080000000  0.5391720000000  0.4336950000000 1.0
C      1  0.4709020000000  0.5393210000000  0.5865520000000 1.0
C      1  0.5145180000000  0.5379200000000  0.5667580000000 1.0
C      1  0.5573660000000  0.5388380000000  0.4509530000000 1.0
C      1  0.4299400000000  0.5393840000000  0.4798650000000 1.0
C      1  0.5648910000000  0.5786300000000  0.5391870000000 1.0
C      1  0.5045850000000  0.5750610000000  0.4189590000000 1.0
C      1  0.4238230000000  0.5742670000000  0.5418910000000 1.0
C      1  0.4511220000000  0.5865800000000  0.4658220000000 1.0
C      1  0.4922830000000  0.5845970000000  0.5564760000000 1.0
C      1  0.5524110000000  0.5963090000000  0.4827830000000 1.0
C      1  0.4905760000000  0.5388320000000  0.5270790000000 1.0
C      1  0.5291640000000  0.5540800000000  0.4929050000000 1.0
C      1  0.4749660000000  0.5512410000000  0.4849350000000 1.0
C      1  0.5036960000000  0.5112090000000  0.4900180000000 1.0
C      1  0.5281090000000  0.5250590000000  0.4868930000000 1.0
C      1  0.4811890000000  0.5262300000000  0.4999680000000 1.0
C      1  0.5904200000000  0.4904660000000  0.4420990000000 1.0
C      1  0.4089180000000  0.4954990000000  0.4558210000000 1.0
C      1  0.5070360000000  0.4944780000000  0.6027250000000 1.0
C      1  0.5592450000000  0.4716790000000  0.4719330000000 1.0
C      1  0.4519300000000  0.4694390000000  0.4568330000000 1.0
C      1  0.4855010000000  0.4690510000000  0.5651600000000 1.0
C      1  0.5254450000000  0.5988510000000  0.4669920000000 1.0
C      1  0.4515650000000  0.5960840000000  0.4981460000000 1.0
C      1  0.5128620000000  0.5873670000000  0.5306720000000 1.0
C      1  0.5939270000000  0.5047970000000  0.4713840000000 1.0
C      1  0.4322330000000  0.5081730000000  0.4383770000000 1.0
C      1  0.4797980000000  0.5073760000000  0.5934490000000 1.0
C      1  0.5093940000000  0.6145490000000  0.4857040000000 1.0
C      1  0.4744460000000  0.6135310000000  0.5022820000000 1.0
C      1  0.4986310000000  0.5994800000000  0.5071850000000 1.0
C      1  0.5004640000000  0.5980760000000  0.4378140000000 1.0
C      1  0.4428730000000  0.5960680000000  0.5354590000000 1.0
C      1  0.5434410000000  0.5985550000000  0.5306640000000 1.0
C      1  0.6004510000000  0.4476760000000  0.4624030000000 1.0
C      1  0.4114720000000  0.4509690000000  0.4396390000000 1.0
C      1  0.4904280000000  0.4496930000000  0.6091980000000 1.0
C      1  0.5602860000000  0.5437980000000  0.5791110000000 1.0
C      1  0.5442500000000  0.5410500000000  0.4057790000000 1.0
C      1  0.3929710000000  0.5413440000000  0.5134100000000 1.0
C      1  0.5032630000000  0.4831430000000  0.4471300000000 1.0
C      1  0.4504590000000  0.4854120000000  0.5280490000000 1.0
C      1  0.5484640000000  0.4821290000000  0.5285390000000 1.0
C      1  0.4558600000000  0.4994590000000  0.4562070000000 1.0
C      1  0.4812000000000  0.4987900000000  0.5642620000000 1.0
C      1  0.5659130000000  0.4983140000000  0.4815640000000 1.0
C      1  0.3940010000000  0.5063260000000  0.4788130000000 1.0
C      1  0.5337380000000  0.5070810000000  0.6004260000000 1.0
C      1  0.5745560000000  0.5035760000000  0.4202110000000 1.0
C      1  0.4335310000000  0.4908500000000  0.5911460000000 1.0
C      1  0.6127270000000  0.4968250000000  0.5146700000000 1.0
C      1  0.4580950000000  0.4920480000000  0.4003040000000 1.0
C      1  0.5030740000000  0.4828490000000  0.4977710000000 1.0
END
