TITL C-3578196-9646-13 2.15360330455587e-07 125000 -616.498304148507 0 0 99 (C1) n - 1
REM
REM in /home/bkarasulu/work/CARBON/AIRSS/Generating-Clusters/EDIP-Nigel-Params/with-SteepDescent/Higher-Symm/SD-CG/HFTN-CG
REM
REM
REM
REM
REM
REM ./C.cell (12c818d87b63d06a65506943cc24bca4)
REM
REM compiler GCC version 9.2.1 20190827 (Red Hat 9.2.1-1)
REM options -cpp -mtune=generic -march=x86-64 -g -O0 -fpre-include=/usr/include/finclude/math-vector-fortran.h
REM seed 5686434 2013418450 1549784650 1238144705 -201896283 2079031336 321226201 1899442922 948954879 883962598 30279477 1427004545 208557132 928284078 -1931373270 245776483 955143279 -1566167596 -1768991404 279968150 -827898918 -1556257400 1252865140 1499902355 -321299561 648776398 1452256452 -1064026053 -1496650524 532678531 1169190218 1795894865 2055754905
REM
CELL 1.54180   50.00000   50.00000   50.00000   90.00000   90.00000   90.00000
LATT -1
SFAC C  
C      1  0.5282510000000  0.4389380000000  0.4676440000000 1.0
C      1  0.5342690000000  0.5067030000000  0.5766810000000 1.0
C      1  0.5277970000000  0.5579730000000  0.4618300000000 1.0
C      1  0.4665780000000  0.4415770000000  0.4667180000000 1.0
C      1  0.4739040000000  0.5049170000000  0.5713970000000 1.0
C      1  0.4679540000000  0.5580310000000  0.4616700000000 1.0
C      1  0.4850410000000  0.5053150000000  0.4088580000000 1.0
C      1  0.4828100000000  0.4216910000000  0.5398260000000 1.0
C      1  0.4890860000000  0.5759190000000  0.5501660000000 1.0
C      1  0.5141190000000  0.5049800000000  0.4096090000000 1.0
C      1  0.5120610000000  0.4213410000000  0.5389170000000 1.0
C      1  0.5185190000000  0.5767390000000  0.5500320000000 1.0
C      1  0.4205430000000  0.4696000000000  0.4889540000000 1.0
C      1  0.4333350000000  0.5004090000000  0.5266920000000 1.0
C      1  0.4259060000000  0.5199300000000  0.4806790000000 1.0
C      1  0.5706930000000  0.4749160000000  0.4894690000000 1.0
C      1  0.5761340000000  0.5039380000000  0.5313570000000 1.0
C      1  0.5712740000000  0.5242210000000  0.4854830000000 1.0
C      1  0.5185970000000  0.4847440000000  0.5871260000000 1.0
C      1  0.5097150000000  0.5726120000000  0.4821870000000 1.0
C      1  0.5107830000000  0.4480930000000  0.4431370000000 1.0
C      1  0.4920050000000  0.4797380000000  0.5731160000000 1.0
C      1  0.4834390000000  0.5815680000000  0.4700260000000 1.0
C      1  0.4831900000000  0.4352660000000  0.4423790000000 1.0
C      1  0.4690620000000  0.4318240000000  0.5156180000000 1.0
C      1  0.4770420000000  0.5496400000000  0.5547590000000 1.0
C      1  0.4713430000000  0.5191200000000  0.4308440000000 1.0
C      1  0.5242490000000  0.4335830000000  0.5153850000000 1.0
C      1  0.5322700000000  0.5508460000000  0.5557040000000 1.0
C      1  0.5262070000000  0.5221500000000  0.4303830000000 1.0
C      1  0.5550870000000  0.4722690000000  0.4415170000000 1.0
C      1  0.5467800000000  0.4644920000000  0.5511210000000 1.0
C      1  0.5517060000000  0.5576830000000  0.5068700000000 1.0
C      1  0.4553780000000  0.4700840000000  0.4421140000000 1.0
C      1  0.4479800000000  0.4652640000000  0.5491030000000 1.0
C      1  0.4530080000000  0.5647170000000  0.5028050000000 1.0
C      1  0.4827260000000  0.4272750000000  0.5711250000000 1.0
C      1  0.4802080000000  0.5954810000000  0.5305190000000 1.0
C      1  0.4776390000000  0.4792530000000  0.3988980000000 1.0
C      1  0.5208590000000  0.4260390000000  0.5661710000000 1.0
C      1  0.5184700000000  0.5993950000000  0.5275040000000 1.0
C      1  0.5160710000000  0.4757240000000  0.3983350000000 1.0
C      1  0.5484520000000  0.4636730000000  0.4156680000000 1.0
C      1  0.5385780000000  0.4476590000000  0.5729560000000 1.0
C      1  0.5482480000000  0.5860640000000  0.5067210000000 1.0
C      1  0.4612650000000  0.4617520000000  0.4145870000000 1.0
C      1  0.4526320000000  0.4513890000000  0.5734890000000 1.0
C      1  0.4626510000000  0.5910100000000  0.5080360000000 1.0
C      1  0.5652990000000  0.4548750000000  0.5314740000000 1.0
C      1  0.5722700000000  0.5504130000000  0.5261370000000 1.0
C      1  0.5662730000000  0.4977190000000  0.4471140000000 1.0
C      1  0.4279630000000  0.4526450000000  0.5322850000000 1.0
C      1  0.4416480000000  0.5459430000000  0.5204230000000 1.0
C      1  0.4340990000000  0.4903460000000  0.4447590000000 1.0
C      1  0.5254970000000  0.5323830000000  0.5065760000000 1.0
C      1  0.5317570000000  0.4826730000000  0.4702710000000 1.0
C      1  0.5213540000000  0.4842400000000  0.5307020000000 1.0
C      1  0.4780920000000  0.5357470000000  0.4973790000000 1.0
C      1  0.4822940000000  0.4827120000000  0.4663730000000 1.0
C      1  0.4733080000000  0.4815430000000  0.5277640000000 1.0
C      1  0.5173660000000  0.4744130000000  0.5009660000000 1.0
C      1  0.5143520000000  0.5142050000000  0.5285740000000 1.0
C      1  0.5194750000000  0.5096160000000  0.4846970000000 1.0
C      1  0.4864110000000  0.4758660000000  0.4973780000000 1.0
C      1  0.4850770000000  0.5112500000000  0.5183350000000 1.0
C      1  0.4893730000000  0.5123950000000  0.4770550000000 1.0
C      1  0.5528450000000  0.5233090000000  0.4417790000000 1.0
C      1  0.5525890000000  0.4376030000000  0.5107220000000 1.0
C      1  0.5607210000000  0.5430520000000  0.5528180000000 1.0
C      1  0.4429640000000  0.5179160000000  0.4372770000000 1.0
C      1  0.4401330000000  0.4341550000000  0.5120210000000 1.0
C      1  0.4516690000000  0.5388840000000  0.5466760000000 1.0
C      1  0.5819700000000  0.5261420000000  0.5132790000000 1.0
C      1  0.5772480000000  0.4984410000000  0.4734530000000 1.0
C      1  0.5768780000000  0.4775400000000  0.5177620000000 1.0
C      1  0.4296190000000  0.5229640000000  0.5092690000000 1.0
C      1  0.4260140000000  0.4926400000000  0.4721360000000 1.0
C      1  0.4188630000000  0.4761500000000  0.5176050000000 1.0
C      1  0.5545080000000  0.5418060000000  0.4656530000000 1.0
C      1  0.5561040000000  0.4488240000000  0.4826580000000 1.0
C      1  0.5656370000000  0.5138920000000  0.5574100000000 1.0
C      1  0.4369930000000  0.5369640000000  0.4595400000000 1.0
C      1  0.4331980000000  0.4436580000000  0.4849380000000 1.0
C      1  0.4490690000000  0.5093350000000  0.5520270000000 1.0
C      1  0.4783340000000  0.4555720000000  0.5851190000000 1.0
C      1  0.4700760000000  0.6026700000000  0.4836250000000 1.0
C      1  0.4701560000000  0.4354400000000  0.4172960000000 1.0
C      1  0.5326250000000  0.4621280000000  0.5961550000000 1.0
C      1  0.5234310000000  0.5952960000000  0.4965440000000 1.0
C      1  0.5232710000000  0.4499970000000  0.4153620000000 1.0
C      1  0.4896050000000  0.5300210000000  0.5713840000000 1.0
C      1  0.4836500000000  0.5412560000000  0.4441480000000 1.0
C      1  0.4823390000000  0.4327480000000  0.4902560000000 1.0
C      1  0.5186820000000  0.5298530000000  0.5700390000000 1.0
C      1  0.5120770000000  0.5445420000000  0.4410900000000 1.0
C      1  0.5110710000000  0.4320640000000  0.4903230000000 1.0
C      1  0.5031180000000  0.5513320000000  0.5017830000000 1.0
C      1  0.5079480000000  0.4755330000000  0.4530490000000 1.0
C      1  0.4967940000000  0.4737440000000  0.5443530000000 1.0
END
