TITL C-3577079-311-391 2.45215486901424e-06 125000 -535.019133575594 0 0 88 (C1) n - 1
REM
REM in /home/bkarasulu/work/CARBON/AIRSS/Generating-Clusters/EDIP-Nigel-Params/with-SteepDescent/Higher-Symm/SD-CG/HFTN-CG
REM
REM
REM
REM
REM
REM ./C.cell (12c818d87b63d06a65506943cc24bca4)
REM
REM compiler GCC version 9.2.1 20190827 (Red Hat 9.2.1-1)
REM options -cpp -mtune=generic -march=x86-64 -g -O0 -fpre-include=/usr/include/finclude/math-vector-fortran.h
REM seed 39034701 305816037 -1654257076 881930336 -814457477 1010588448 -203272330 -1744923234 981664674 -1859275956 -116924666 2142391164 1687126127 322376643 645451133 -2119094459 1837130540 1520671529 -175263720 572911316 610754085 1500525410 -521959504 1703078706 76230323 432228615 -815619278 -428718939 -866969712 493130234 816279633 1682186133 1305947367
REM
CELL 1.54180   50.00000   50.00000   50.00000   90.00000   90.00000   90.00000
LATT -1
SFAC C  
C      1  0.4576190000000  0.4339530000000  0.4846380000000 1.0
C      1  0.4280370000000  0.5273420000000  0.4816250000000 1.0
C      1  0.5051910000000  0.5772410000000  0.4840660000000 1.0
C      1  0.5723880000000  0.5173290000000  0.4821670000000 1.0
C      1  0.5467860000000  0.4317210000000  0.4913330000000 1.0
C      1  0.4782590000000  0.5322940000000  0.4905790000000 1.0
C      1  0.5259360000000  0.5288010000000  0.4901750000000 1.0
C      1  0.5340720000000  0.4854390000000  0.4951430000000 1.0
C      1  0.4970080000000  0.4618570000000  0.4931330000000 1.0
C      1  0.4576190000000  0.4946670000000  0.4763480000000 1.0
C      1  0.5781940000000  0.5218830000000  0.5315660000000 1.0
C      1  0.5504650000000  0.4347040000000  0.5378600000000 1.0
C      1  0.4559330000000  0.4289090000000  0.5332570000000 1.0
C      1  0.4201330000000  0.5218570000000  0.5300150000000 1.0
C      1  0.4991340000000  0.5868100000000  0.5331600000000 1.0
C      1  0.4634310000000  0.4726180000000  0.4575220000000 1.0
C      1  0.4601800000000  0.5229200000000  0.4380610000000 1.0
C      1  0.5050920000000  0.5415290000000  0.4484550000000 1.0
C      1  0.5390750000000  0.5025700000000  0.4431720000000 1.0
C      1  0.5114290000000  0.4934710000000  0.4374490000000 1.0
C      1  0.4223650000000  0.4886760000000  0.4457710000000 1.0
C      1  0.4672800000000  0.5709520000000  0.4500160000000 1.0
C      1  0.5485290000000  0.5502680000000  0.4492610000000 1.0
C      1  0.5577610000000  0.4595220000000  0.4522480000000 1.0
C      1  0.4966720000000  0.4409090000000  0.4506180000000 1.0
C      1  0.4407580000000  0.5551180000000  0.4870880000000 1.0
C      1  0.5343370000000  0.5666180000000  0.4876540000000 1.0
C      1  0.5774970000000  0.4868880000000  0.4880320000000 1.0
C      1  0.5187210000000  0.4235390000000  0.4901260000000 1.0
C      1  0.4319950000000  0.4606990000000  0.4864140000000 1.0
C      1  0.5033320000000  0.4375180000000  0.5376140000000 1.0
C      1  0.4445890000000  0.4734610000000  0.5322020000000 1.0
C      1  0.4558610000000  0.5498520000000  0.5337470000000 1.0
C      1  0.5370700000000  0.5590170000000  0.5365790000000 1.0
C      1  0.5597360000000  0.4796770000000  0.5373620000000 1.0
C      1  0.4889320000000  0.5583630000000  0.4666990000000 1.0
C      1  0.5472450000000  0.5243770000000  0.4639970000000 1.0
C      1  0.5318870000000  0.4592380000000  0.4695220000000 1.0
C      1  0.4781090000000  0.4513010000000  0.4708240000000 1.0
C      1  0.4395850000000  0.5109030000000  0.4581710000000 1.0
C      1  0.5815090000000  0.4704220000000  0.4648870000000 1.0
C      1  0.5112720000000  0.4209190000000  0.4632440000000 1.0
C      1  0.4136310000000  0.4680440000000  0.4651950000000 1.0
C      1  0.4421430000000  0.5712120000000  0.4633920000000 1.0
C      1  0.5518030000000  0.5725710000000  0.4655200000000 1.0
C      1  0.4987390000000  0.4226500000000  0.5128170000000 1.0
C      1  0.4315020000000  0.4802880000000  0.5079110000000 1.0
C      1  0.4576200000000  0.5657140000000  0.5107020000000 1.0
C      1  0.5504240000000  0.5577760000000  0.5121380000000 1.0
C      1  0.5715510000000  0.4698470000000  0.5131010000000 1.0
C      1  0.5232530000000  0.5096910000000  0.5821440000000 1.0
C      1  0.5143140000000  0.4814230000000  0.5861250000000 1.0
C      1  0.4842040000000  0.4806280000000  0.5845880000000 1.0
C      1  0.4753910000000  0.5087650000000  0.5805640000000 1.0
C      1  0.4990450000000  0.5262890000000  0.5793510000000 1.0
C      1  0.4755540000000  0.5090950000000  0.5364620000000 1.0
C      1  0.5000270000000  0.5279940000000  0.5352720000000 1.0
C      1  0.5249580000000  0.5107810000000  0.5380570000000 1.0
C      1  0.5166530000000  0.4816530000000  0.5422340000000 1.0
C      1  0.4869850000000  0.4806640000000  0.5408410000000 1.0
C      1  0.4976910000000  0.5518490000000  0.5656640000000 1.0
C      1  0.5480670000000  0.5172730000000  0.5683060000000 1.0
C      1  0.5302420000000  0.4612790000000  0.5724260000000 1.0
C      1  0.4720710000000  0.4586500000000  0.5690050000000 1.0
C      1  0.4508210000000  0.5135580000000  0.5659540000000 1.0
C      1  0.4419230000000  0.4675620000000  0.4387940000000 1.0
C      1  0.4553670000000  0.5509240000000  0.4327470000000 1.0
C      1  0.5261350000000  0.5515950000000  0.4326540000000 1.0
C      1  0.5587870000000  0.4832140000000  0.4359350000000 1.0
C      1  0.5104940000000  0.4635470000000  0.4378540000000 1.0
C      1  0.4686230000000  0.4204420000000  0.5089130000000 1.0
C      1  0.4200840000000  0.5086180000000  0.5050360000000 1.0
C      1  0.4872900000000  0.5768680000000  0.5089900000000 1.0
C      1  0.5717450000000  0.5357590000000  0.5077200000000 1.0
C      1  0.5634220000000  0.4407260000000  0.5133620000000 1.0
C      1  0.4794910000000  0.4617600000000  0.5187280000000 1.0
C      1  0.4583640000000  0.5150880000000  0.5105770000000 1.0
C      1  0.5015620000000  0.5404860000000  0.5072470000000 1.0
C      1  0.5406440000000  0.5119540000000  0.5115200000000 1.0
C      1  0.5283250000000  0.4661030000000  0.5187450000000 1.0
C      1  0.4393730000000  0.5319220000000  0.5470020000000 1.0
C      1  0.5134690000000  0.5681660000000  0.5481370000000 1.0
C      1  0.5668410000000  0.5045290000000  0.5499290000000 1.0
C      1  0.5275260000000  0.4394440000000  0.5534710000000 1.0
C      1  0.4506990000000  0.4514720000000  0.5499680000000 1.0
C      1  0.4905000000000  0.5154560000000  0.4460910000000 1.0
C      1  0.4849530000000  0.5076890000000  0.4751040000000 1.0
C      1  0.5053640000000  0.4896760000000  0.4874740000000 1.0
END
