TITL C-3578202-4305-473 -1.00093566444699e-06 125000 -369.739061527239 0 0 63 (C1) n - 1
REM
REM in /home/bkarasulu/work/CARBON/AIRSS/Generating-Clusters/EDIP-Nigel-Params/with-SteepDescent/Higher-Symm/SD-CG/HFTN-CG
REM
REM
REM
REM
REM
REM ./C.cell (12c818d87b63d06a65506943cc24bca4)
REM
REM compiler GCC version 9.2.1 20190827 (Red Hat 9.2.1-1)
REM options -cpp -mtune=generic -march=x86-64 -g -O0 -fpre-include=/usr/include/finclude/math-vector-fortran.h
REM seed 2048858529 -1305147162 -2067946808 1719546007 2058658597 568857365 1561573936 1333822683 1401098681 -2089107962 1442732257 805635686 -2026579570 85155019 768863737 -2091805782 -164981740 -962381654 351726604 488809213 453587883 873703338 -908298680 1589809494 -293397901 -1715281668 -1143266005 53630076 -1320629052 -979867874 -2075019765 1610201113 -1267385010
REM
CELL 1.54180   50.00000   50.00000   50.00000   90.00000   90.00000   90.00000
LATT -1
SFAC C  
C      1  0.5090550000000  0.4547970000000  0.5577320000000 1.0
C      1  0.5192970000000  0.5695740000000  0.5162920000000 1.0
C      1  0.5308380000000  0.4395200000000  0.5143090000000 1.0
C      1  0.4946910000000  0.5751000000000  0.4736290000000 1.0
C      1  0.4671220000000  0.5409560000000  0.5590250000000 1.0
C      1  0.5043400000000  0.4910690000000  0.4131730000000 1.0
C      1  0.4748940000000  0.5509610000000  0.5043720000000 1.0
C      1  0.5617320000000  0.4689010000000  0.4558910000000 1.0
C      1  0.5035830000000  0.4829630000000  0.5652450000000 1.0
C      1  0.4417270000000  0.4570100000000  0.5042390000000 1.0
C      1  0.5532800000000  0.4879620000000  0.4982220000000 1.0
C      1  0.4453100000000  0.4783890000000  0.5246960000000 1.0
C      1  0.5681300000000  0.4649420000000  0.4859850000000 1.0
C      1  0.5703110000000  0.5242280000000  0.5261350000000 1.0
C      1  0.5197030000000  0.4904900000000  0.4710130000000 1.0
C      1  0.5382900000000  0.5339280000000  0.4972580000000 1.0
C      1  0.5502300000000  0.4965980000000  0.5661620000000 1.0
C      1  0.4410810000000  0.5032790000000  0.4763150000000 1.0
C      1  0.4697260000000  0.5038860000000  0.4891520000000 1.0
C      1  0.5381820000000  0.5468260000000  0.5275540000000 1.0
C      1  0.4954720000000  0.4497960000000  0.4840380000000 1.0
C      1  0.5520710000000  0.4387500000000  0.4935860000000 1.0
C      1  0.5513740000000  0.5062220000000  0.5387500000000 1.0
C      1  0.4358890000000  0.5523780000000  0.5003850000000 1.0
C      1  0.4449540000000  0.5316350000000  0.5448720000000 1.0
C      1  0.5145800000000  0.4597280000000  0.4640940000000 1.0
C      1  0.5004470000000  0.5314170000000  0.4498520000000 1.0
C      1  0.4729820000000  0.5380630000000  0.4467450000000 1.0
C      1  0.5460720000000  0.4940330000000  0.4547620000000 1.0
C      1  0.5042590000000  0.4313360000000  0.5047250000000 1.0
C      1  0.4583140000000  0.4368730000000  0.5149190000000 1.0
C      1  0.5330680000000  0.4434250000000  0.5445140000000 1.0
C      1  0.4796170000000  0.5058170000000  0.5360930000000 1.0
C      1  0.5390730000000  0.4819200000000  0.5242860000000 1.0
C      1  0.5537460000000  0.4635280000000  0.5474910000000 1.0
C      1  0.5228710000000  0.5040470000000  0.5718650000000 1.0
C      1  0.4722390000000  0.4469260000000  0.4657520000000 1.0
C      1  0.5638190000000  0.5165420000000  0.4977400000000 1.0
C      1  0.5116370000000  0.5108260000000  0.4323850000000 1.0
C      1  0.4854960000000  0.4551680000000  0.4396010000000 1.0
C      1  0.4887560000000  0.5285190000000  0.4867580000000 1.0
C      1  0.4197860000000  0.5346890000000  0.4855200000000 1.0
C      1  0.4735150000000  0.5614530000000  0.4627870000000 1.0
C      1  0.4803210000000  0.4800730000000  0.4243530000000 1.0
C      1  0.4819580000000  0.4884810000000  0.4675400000000 1.0
C      1  0.4721510000000  0.4874660000000  0.5153920000000 1.0
C      1  0.4918560000000  0.5648360000000  0.5259720000000 1.0
C      1  0.5194820000000  0.5727520000000  0.4867500000000 1.0
C      1  0.4512780000000  0.5336900000000  0.5163550000000 1.0
C      1  0.4698220000000  0.5008380000000  0.4429670000000 1.0
C      1  0.5085160000000  0.5099450000000  0.5286030000000 1.0
C      1  0.4282910000000  0.5032220000000  0.5244610000000 1.0
C      1  0.5420970000000  0.4450870000000  0.4640280000000 1.0
C      1  0.5142500000000  0.5154410000000  0.4975710000000 1.0
C      1  0.5381100000000  0.5544530000000  0.4762260000000 1.0
C      1  0.5383100000000  0.5024790000000  0.4287830000000 1.0
C      1  0.4845030000000  0.4376680000000  0.5252340000000 1.0
C      1  0.4188560000000  0.5078340000000  0.4963220000000 1.0
C      1  0.4928080000000  0.5505870000000  0.5517500000000 1.0
C      1  0.5004160000000  0.4695940000000  0.5233430000000 1.0
C      1  0.4774970000000  0.4932530000000  0.5617740000000 1.0
C      1  0.4506280000000  0.4656220000000  0.4766150000000 1.0
C      1  0.5172910000000  0.5322100000000  0.5480400000000 1.0
END
