TITL C-3578203-1966-803 -2.05056143698423e-06 125000 -324.983575648359 0 0 53 (C1) n - 1
REM
REM in /home/bkarasulu/work/CARBON/AIRSS/Generating-Clusters/EDIP-Nigel-Params/with-SteepDescent/Higher-Symm/SD-CG/HFTN-CG
REM
REM
REM
REM
REM
REM ./C.cell (12c818d87b63d06a65506943cc24bca4)
REM
REM compiler GCC version 9.2.1 20190827 (Red Hat 9.2.1-1)
REM options -cpp -mtune=generic -march=x86-64 -g -O0 -fpre-include=/usr/include/finclude/math-vector-fortran.h
REM seed 2027038697 -1365012033 -2015426697 2120609394 1457607100 1355294046 -1612609967 53631097 2018062921 1635794843 -1616705842 -375330102 592025712 35629223 -534778209 -1854555795 1451933500 1508091636 1084526514 969252760 1499111858 -1416363756 -1531194811 -1206397624 -398229975 -1727628085 1164492974 -803589423 1185599843 -1270819842 -226632502 -173045441 -1928452226
REM
CELL 1.54180   50.00000   50.00000   50.00000   90.00000   90.00000   90.00000
LATT -1
SFAC C  
C      1  0.4245650000000  0.5142450000000  0.4712610000000 1.0
C      1  0.5635720000000  0.4705100000000  0.5154410000000 1.0
C      1  0.4390640000000  0.5239830000000  0.4933000000000 1.0
C      1  0.4725190000000  0.4369100000000  0.5192960000000 1.0
C      1  0.5324310000000  0.4620060000000  0.4679100000000 1.0
C      1  0.4980740000000  0.5435030000000  0.5521490000000 1.0
C      1  0.5579770000000  0.5137800000000  0.4647930000000 1.0
C      1  0.4599930000000  0.4905640000000  0.4458660000000 1.0
C      1  0.5274480000000  0.5482290000000  0.5461200000000 1.0
C      1  0.5334550000000  0.5600040000000  0.5182640000000 1.0
C      1  0.4832110000000  0.4730790000000  0.4501820000000 1.0
C      1  0.4846550000000  0.4522240000000  0.4702770000000 1.0
C      1  0.4458530000000  0.5517780000000  0.4961470000000 1.0
C      1  0.5502010000000  0.4921820000000  0.5050890000000 1.0
C      1  0.4745120000000  0.5166520000000  0.4464120000000 1.0
C      1  0.5194810000000  0.4601560000000  0.5376960000000 1.0
C      1  0.4781430000000  0.5108180000000  0.5240420000000 1.0
C      1  0.4647190000000  0.5586740000000  0.5163970000000 1.0
C      1  0.5661320000000  0.4939990000000  0.4823260000000 1.0
C      1  0.4726300000000  0.5041510000000  0.5715810000000 1.0
C      1  0.5154610000000  0.5380510000000  0.4370270000000 1.0
C      1  0.5113330000000  0.4464420000000  0.4794590000000 1.0
C      1  0.4846660000000  0.5399020000000  0.5257850000000 1.0
C      1  0.5210600000000  0.4861550000000  0.4954130000000 1.0
C      1  0.5060630000000  0.5662130000000  0.4769360000000 1.0
C      1  0.5071140000000  0.4868200000000  0.4412400000000 1.0
C      1  0.4838110000000  0.5198310000000  0.4765780000000 1.0
C      1  0.4496960000000  0.4788880000000  0.5353810000000 1.0
C      1  0.4601710000000  0.5036170000000  0.5467180000000 1.0
C      1  0.4730380000000  0.4672210000000  0.5187420000000 1.0
C      1  0.5442350000000  0.4282210000000  0.5101730000000 1.0
C      1  0.5239880000000  0.4735720000000  0.5631050000000 1.0
C      1  0.4338600000000  0.4840380000000  0.5118110000000 1.0
C      1  0.5257550000000  0.5510570000000  0.4599140000000 1.0
C      1  0.4996700000000  0.4300470000000  0.5251300000000 1.0
C      1  0.5317480000000  0.4732710000000  0.4422640000000 1.0
C      1  0.4815520000000  0.5495610000000  0.4828450000000 1.0
C      1  0.5171760000000  0.4289150000000  0.5022990000000 1.0
C      1  0.5396990000000  0.5204390000000  0.5469990000000 1.0
C      1  0.5539410000000  0.5170340000000  0.5212940000000 1.0
C      1  0.5369740000000  0.5295680000000  0.4776820000000 1.0
C      1  0.5129720000000  0.5117120000000  0.4831500000000 1.0
C      1  0.4628510000000  0.5062200000000  0.4976170000000 1.0
C      1  0.5487800000000  0.5398940000000  0.5038250000000 1.0
C      1  0.5197960000000  0.5006010000000  0.5561530000000 1.0
C      1  0.5029130000000  0.4811370000000  0.5204930000000 1.0
C      1  0.4376640000000  0.4893360000000  0.4653750000000 1.0
C      1  0.4414870000000  0.4701550000000  0.4877020000000 1.0
C      1  0.5172840000000  0.5758330000000  0.5011180000000 1.0
C      1  0.5003990000000  0.5146540000000  0.4319960000000 1.0
C      1  0.4618400000000  0.4465760000000  0.4879420000000 1.0
C      1  0.5466850000000  0.4510740000000  0.5265680000000 1.0
C      1  0.4976840000000  0.5164980000000  0.5667180000000 1.0
END
