TITL C-3578199-7832-361 3.45220308141464e-07 125000 -96.2774721403242 0 0 17 (C1) n - 1
REM
REM in /home/bkarasulu/work/CARBON/AIRSS/Generating-Clusters/EDIP-Nigel-Params/with-SteepDescent/Higher-Symm/SD-CG/HFTN-CG
REM
REM
REM
REM
REM
REM ./C.cell (12c818d87b63d06a65506943cc24bca4)
REM
REM compiler GCC version 9.2.1 20190827 (Red Hat 9.2.1-1)
REM options -cpp -mtune=generic -march=x86-64 -g -O0 -fpre-include=/usr/include/finclude/math-vector-fortran.h
REM seed -960329813 527396441 1660518247 -328012029 711785050 1814394443 -2059771774 591890560 699017013 1203685502 -369640524 -579121479 -394024797 -91389636 -1665277336 -1251834016 -1855778764 -1823228691 -1597606811 -1912398644 580842354 1894659790 740286040 -325502600 -165442139 287357120 -1634080934 -138663289 780656393 675575891 109201736 -702043900 -2082900328
REM
CELL 1.54180   50.00000   50.00000   50.00000   90.00000   90.00000   90.00000
LATT -1
SFAC C  
C      1  0.4695900000000  0.4000850000000  0.4842720000000 1.0
C      1  0.4961550000000  0.3964530000000  0.4871510000000 1.0
C      1  0.4668000000000  0.4905390000000  0.4948900000000 1.0
C      1  0.5205290000000  0.4831580000000  0.5008750000000 1.0
C      1  0.4681230000000  0.4642920000000  0.4898960000000 1.0
C      1  0.5133900000000  0.4581030000000  0.4948020000000 1.0
C      1  0.4859880000000  0.5641760000000  0.5277580000000 1.0
C      1  0.5058780000000  0.5776810000000  0.4968950000000 1.0
C      1  0.5122950000000  0.5557180000000  0.5344490000000 1.0
C      1  0.5245400000000  0.5575660000000  0.5081010000000 1.0
C      1  0.5104760000000  0.5085630000000  0.5060510000000 1.0
C      1  0.4819210000000  0.5126620000000  0.5023090000000 1.0
C      1  0.5205310000000  0.5326490000000  0.4933820000000 1.0
C      1  0.4892040000000  0.4464540000000  0.4880720000000 1.0
C      1  0.4825540000000  0.5374770000000  0.4873040000000 1.0
C      1  0.4798050000000  0.5640660000000  0.4989090000000 1.0
C      1  0.4844980000000  0.4199270000000  0.4980290000000 1.0
END
