TITL C-3577087-600-484 3.26963657972049e-06 125000 -527.014025648558 0 0 87 (C1) n - 1
REM
REM in /home/bkarasulu/work/CARBON/AIRSS/Generating-Clusters/EDIP-Nigel-Params/with-SteepDescent/Higher-Symm/SD-CG/HFTN-CG
REM
REM
REM
REM
REM
REM ./C.cell (12c818d87b63d06a65506943cc24bca4)
REM
REM compiler GCC version 9.2.1 20190827 (Red Hat 9.2.1-1)
REM options -cpp -mtune=generic -march=x86-64 -g -O0 -fpre-include=/usr/include/finclude/math-vector-fortran.h
REM seed 614951686 -1573326784 763046765 834596267 675756924 1207101082 -1751257975 -833360009 -1056080562 1272338511 -1115963753 -742341389 92611611 -1624938259 560714008 183012778 657274512 87683341 186043764 1905999795 429870431 -2077022000 -1328681319 -72829184 2004472097 1934308669 -1422301038 -328582960 -463480873 1923104194 -368926217 1491544241 -723664874
REM
CELL 1.54180   50.00000   50.00000   50.00000   90.00000   90.00000   90.00000
LATT -1
SFAC C  
C      1  0.5087160000000  0.4321210000000  0.5286510000000 1.0
C      1  0.4718340000000  0.4340520000000  0.4931990000000 1.0
C      1  0.5205880000000  0.4314910000000  0.4781240000000 1.0
C      1  0.4920930000000  0.5644910000000  0.5268250000000 1.0
C      1  0.4810520000000  0.5666550000000  0.4796940000000 1.0
C      1  0.5277270000000  0.5640930000000  0.4940780000000 1.0
C      1  0.4930060000000  0.4418560000000  0.4735010000000 1.0
C      1  0.4812740000000  0.4355990000000  0.5206040000000 1.0
C      1  0.5274660000000  0.4330510000000  0.5064300000000 1.0
C      1  0.5088890000000  0.5652810000000  0.4723800000000 1.0
C      1  0.4713250000000  0.5669870000000  0.5069410000000 1.0
C      1  0.5204150000000  0.5660730000000  0.5216950000000 1.0
C      1  0.5249380000000  0.5266380000000  0.4869870000000 1.0
C      1  0.5006790000000  0.5271250000000  0.5277860000000 1.0
C      1  0.4776520000000  0.5288670000000  0.4854840000000 1.0
C      1  0.5211300000000  0.4827000000000  0.4858000000000 1.0
C      1  0.5002310000000  0.4831100000000  0.5264220000000 1.0
C      1  0.4742880000000  0.4853340000000  0.4867640000000 1.0
C      1  0.5240870000000  0.5143120000000  0.5146050000000 1.0
C      1  0.5011520000000  0.5160350000000  0.4730320000000 1.0
C      1  0.4772780000000  0.5167640000000  0.5126340000000 1.0
C      1  0.5231080000000  0.4705340000000  0.5124790000000 1.0
C      1  0.4966260000000  0.4718530000000  0.4719470000000 1.0
C      1  0.4752810000000  0.4727570000000  0.5139190000000 1.0
C      1  0.4518360000000  0.5163070000000  0.5543130000000 1.0
C      1  0.4780440000000  0.5152050000000  0.4303510000000 1.0
C      1  0.5723570000000  0.5154120000000  0.5149720000000 1.0
C      1  0.4496260000000  0.4856780000000  0.5542780000000 1.0
C      1  0.4774710000000  0.4847170000000  0.4287020000000 1.0
C      1  0.5709690000000  0.4847320000000  0.5153460000000 1.0
C      1  0.4506580000000  0.5149800000000  0.4460910000000 1.0
C      1  0.4788420000000  0.5142820000000  0.5705550000000 1.0
C      1  0.5723340000000  0.5141930000000  0.4827090000000 1.0
C      1  0.4499190000000  0.4843960000000  0.4451960000000 1.0
C      1  0.4773660000000  0.4836300000000  0.5694070000000 1.0
C      1  0.5700930000000  0.4837310000000  0.4842070000000 1.0
C      1  0.5184050000000  0.4472500000000  0.5542180000000 1.0
C      1  0.4437440000000  0.4477580000000  0.4889460000000 1.0
C      1  0.5379990000000  0.4472690000000  0.4567020000000 1.0
C      1  0.5184460000000  0.5473210000000  0.5663820000000 1.0
C      1  0.4347090000000  0.5460450000000  0.4829370000000 1.0
C      1  0.5483730000000  0.5473430000000  0.4511340000000 1.0
C      1  0.5177250000000  0.4533420000000  0.4341540000000 1.0
C      1  0.4334520000000  0.4522980000000  0.5179400000000 1.0
C      1  0.5477380000000  0.4534980000000  0.5477270000000 1.0
C      1  0.5181950000000  0.5518850000000  0.4460560000000 1.0
C      1  0.4441240000000  0.5522720000000  0.5114790000000 1.0
C      1  0.5380730000000  0.5520350000000  0.5428540000000 1.0
C      1  0.4060180000000  0.4595210000000  0.5117870000000 1.0
C      1  0.5361500000000  0.4624520000000  0.4141590000000 1.0
C      1  0.5562110000000  0.4624320000000  0.5736350000000 1.0
C      1  0.4088980000000  0.5351910000000  0.5172890000000 1.0
C      1  0.5300700000000  0.5383850000000  0.4118010000000 1.0
C      1  0.5616460000000  0.5384140000000  0.5703400000000 1.0
C      1  0.4077820000000  0.4610700000000  0.4830010000000 1.0
C      1  0.5314040000000  0.4646830000000  0.5873650000000 1.0
C      1  0.5602900000000  0.4645440000000  0.4291100000000 1.0
C      1  0.4080650000000  0.5372060000000  0.4889200000000 1.0
C      1  0.5378890000000  0.5401220000000  0.5867260000000 1.0
C      1  0.5561600000000  0.5400800000000  0.4241210000000 1.0
C      1  0.4477400000000  0.4776520000000  0.4762010000000 1.0
C      1  0.5440130000000  0.4762880000000  0.4688020000000 1.0
C      1  0.5038210000000  0.4761010000000  0.5545790000000 1.0
C      1  0.4505110000000  0.5216250000000  0.4756540000000 1.0
C      1  0.5473520000000  0.5220310000000  0.4673220000000 1.0
C      1  0.5051380000000  0.5220290000000  0.5571360000000 1.0
C      1  0.4478010000000  0.4777290000000  0.5248620000000 1.0
C      1  0.5456730000000  0.4779970000000  0.5305530000000 1.0
C      1  0.5030310000000  0.4779960000000  0.4433520000000 1.0
C      1  0.4512080000000  0.5235780000000  0.5239330000000 1.0
C      1  0.5466690000000  0.5220180000000  0.5324200000000 1.0
C      1  0.5054090000000  0.5219800000000  0.4443790000000 1.0
C      1  0.4050110000000  0.4867080000000  0.4736260000000 1.0
C      1  0.5730080000000  0.4890990000000  0.4275780000000 1.0
C      1  0.5261800000000  0.4891400000000  0.5992500000000 1.0
C      1  0.4023280000000  0.5131990000000  0.4760770000000 1.0
C      1  0.5702300000000  0.5158060000000  0.4236850000000 1.0
C      1  0.5312720000000  0.5158140000000  0.5990990000000 1.0
C      1  0.3989420000000  0.4839840000000  0.5236500000000 1.0
C      1  0.5701570000000  0.4864080000000  0.5717180000000 1.0
C      1  0.5276100000000  0.4865450000000  0.4030800000000 1.0
C      1  0.4011720000000  0.5107500000000  0.5278670000000 1.0
C      1  0.5710190000000  0.5128010000000  0.5675790000000 1.0
C      1  0.5229310000000  0.5128500000000  0.4048270000000 1.0
C      1  0.4337890000000  0.5011230000000  0.5042430000000 1.0
C      1  0.5298510000000  0.4988020000000  0.5591480000000 1.0
C      1  0.5362120000000  0.4983950000000  0.4444930000000 1.0
END
