TITL C-3577078-809-712 -1.59091977590869e-06 125000 -1209.21311936417 0 0 193 (C1) n - 1
REM
REM in /home/bkarasulu/work/CARBON/AIRSS/Generating-Clusters/EDIP-Nigel-Params/with-SteepDescent/Higher-Symm/SD-CG/HFTN-CG
REM
REM
REM
REM
REM
REM ./C.cell (12c818d87b63d06a65506943cc24bca4)
REM
REM compiler GCC version 9.2.1 20190827 (Red Hat 9.2.1-1)
REM options -cpp -mtune=generic -march=x86-64 -g -O0 -fpre-include=/usr/include/finclude/math-vector-fortran.h
REM seed -247134570 1722443609 -2107332518 -2024848116 344031286 -2050468808 -1804453350 1449400665 -15533790 1502896722 -318730560 -218483756 -422814192 -755746704 -1054191855 -2093322108 -850443132 -852706405 -2015312390 -134072911 296014928 -229122519 1563988615 1359307402 1096607555 1733478416 -2041717248 62209914 -1241743911 -65739646 1640802253 753275535 -1496282831
REM
CELL 1.54180   50.00000   50.00000   50.00000   90.00000   90.00000   90.00000
LATT -1
SFAC C  
C      1  0.4851280000000  0.5211620000000  0.6147250000000 1.0
C      1  0.5335350000000  0.4297280000000  0.5034250000000 1.0
C      1  0.5026810000000  0.4607640000000  0.4796630000000 1.0
C      1  0.5697170000000  0.5335090000000  0.5119050000000 1.0
C      1  0.5525410000000  0.5524100000000  0.4285850000000 1.0
C      1  0.3980530000000  0.4557800000000  0.5489340000000 1.0
C      1  0.4376210000000  0.5151250000000  0.6062450000000 1.0
C      1  0.5905970000000  0.4931190000000  0.5550920000000 1.0
C      1  0.3840400000000  0.4591380000000  0.4389470000000 1.0
C      1  0.5149540000000  0.4607040000000  0.3917250000000 1.0
C      1  0.5254790000000  0.5946190000000  0.4484410000000 1.0
C      1  0.5047300000000  0.4130280000000  0.4295070000000 1.0
C      1  0.5645830000000  0.5886790000000  0.4786350000000 1.0
C      1  0.4333800000000  0.4360230000000  0.4770780000000 1.0
C      1  0.5917700000000  0.5840400000000  0.4932350000000 1.0
C      1  0.4699310000000  0.4838570000000  0.5931610000000 1.0
C      1  0.4383350000000  0.5151670000000  0.4869730000000 1.0
C      1  0.5184540000000  0.5716740000000  0.4025150000000 1.0
C      1  0.5243710000000  0.5987650000000  0.5411180000000 1.0
C      1  0.4466900000000  0.3875300000000  0.4564910000000 1.0
C      1  0.6063150000000  0.5460490000000  0.5104420000000 1.0
C      1  0.4636180000000  0.4689900000000  0.4529090000000 1.0
C      1  0.5946450000000  0.4214530000000  0.5138030000000 1.0
C      1  0.4613550000000  0.5259400000000  0.5717800000000 1.0
C      1  0.4359510000000  0.5734720000000  0.5646690000000 1.0
C      1  0.4034900000000  0.5376140000000  0.4576130000000 1.0
C      1  0.4834260000000  0.4578080000000  0.4015210000000 1.0
C      1  0.5578680000000  0.6074970000000  0.5024840000000 1.0
C      1  0.4583020000000  0.6003550000000  0.5285870000000 1.0
C      1  0.6084220000000  0.5407330000000  0.4814010000000 1.0
C      1  0.4283760000000  0.4339190000000  0.4472870000000 1.0
C      1  0.4914210000000  0.5034640000000  0.3877260000000 1.0
C      1  0.4520810000000  0.4532750000000  0.5321850000000 1.0
C      1  0.5464170000000  0.4851070000000  0.5174790000000 1.0
C      1  0.4702440000000  0.4821370000000  0.5020030000000 1.0
C      1  0.5501900000000  0.5921540000000  0.5547360000000 1.0
C      1  0.5173230000000  0.5415810000000  0.4011150000000 1.0
C      1  0.5037270000000  0.5384830000000  0.5494370000000 1.0
C      1  0.4400720000000  0.5451540000000  0.5550990000000 1.0
C      1  0.4279810000000  0.5390580000000  0.5021110000000 1.0
C      1  0.5400240000000  0.3999830000000  0.4616780000000 1.0
C      1  0.4000200000000  0.4691270000000  0.4187360000000 1.0
C      1  0.4955330000000  0.6014580000000  0.4497300000000 1.0
C      1  0.5225070000000  0.4869350000000  0.4435870000000 1.0
C      1  0.4921860000000  0.5288510000000  0.5776810000000 1.0
C      1  0.3859380000000  0.4818570000000  0.5121570000000 1.0
C      1  0.4939490000000  0.5843830000000  0.4072380000000 1.0
C      1  0.4605010000000  0.5816430000000  0.5775840000000 1.0
C      1  0.3950640000000  0.4559540000000  0.5006130000000 1.0
C      1  0.4231890000000  0.5272480000000  0.4384250000000 1.0
C      1  0.5369810000000  0.5319120000000  0.3821130000000 1.0
C      1  0.4849430000000  0.3990390000000  0.4132420000000 1.0
C      1  0.5173350000000  0.4901310000000  0.3903930000000 1.0
C      1  0.5448960000000  0.5349010000000  0.6001690000000 1.0
C      1  0.4526790000000  0.5206800000000  0.4623290000000 1.0
C      1  0.4903280000000  0.4129150000000  0.5879390000000 1.0
C      1  0.4442770000000  0.4956190000000  0.4071370000000 1.0
C      1  0.5583590000000  0.4248450000000  0.5552720000000 1.0
C      1  0.5638140000000  0.5073520000000  0.5304190000000 1.0
C      1  0.5624910000000  0.4998470000000  0.4055860000000 1.0
C      1  0.5806350000000  0.5947090000000  0.5190550000000 1.0
C      1  0.4625980000000  0.5026240000000  0.6151000000000 1.0
C      1  0.4312160000000  0.4618280000000  0.5842270000000 1.0
C      1  0.5889300000000  0.5192400000000  0.4419340000000 1.0
C      1  0.5976670000000  0.4903110000000  0.5075520000000 1.0
C      1  0.4258480000000  0.5663010000000  0.4890240000000 1.0
C      1  0.5120370000000  0.4886730000000  0.5614010000000 1.0
C      1  0.5087580000000  0.4582750000000  0.5974620000000 1.0
C      1  0.4649630000000  0.3983040000000  0.4748960000000 1.0
C      1  0.5359130000000  0.4479250000000  0.4112160000000 1.0
C      1  0.4307230000000  0.4932270000000  0.5284910000000 1.0
C      1  0.4446180000000  0.5224710000000  0.4188030000000 1.0
C      1  0.5147640000000  0.6112700000000  0.4921900000000 1.0
C      1  0.6025240000000  0.5157710000000  0.4675210000000 1.0
C      1  0.4920870000000  0.5084230000000  0.4316200000000 1.0
C      1  0.4880540000000  0.6079490000000  0.4791280000000 1.0
C      1  0.4374550000000  0.4287950000000  0.5456170000000 1.0
C      1  0.5214620000000  0.5471860000000  0.6127470000000 1.0
C      1  0.4678690000000  0.4003400000000  0.5764150000000 1.0
C      1  0.5215530000000  0.3891540000000  0.5240870000000 1.0
C      1  0.5610730000000  0.5558180000000  0.5861640000000 1.0
C      1  0.4415560000000  0.4080790000000  0.4382510000000 1.0
C      1  0.6053550000000  0.5334050000000  0.5365870000000 1.0
C      1  0.5991190000000  0.4665450000000  0.4636190000000 1.0
C      1  0.4675670000000  0.5468830000000  0.4681890000000 1.0
C      1  0.5455340000000  0.5082960000000  0.5823230000000 1.0
C      1  0.4619280000000  0.4275380000000  0.4823550000000 1.0
C      1  0.5511450000000  0.4898230000000  0.4535160000000 1.0
C      1  0.4801180000000  0.5839920000000  0.4314950000000 1.0
C      1  0.4605840000000  0.4098600000000  0.5511150000000 1.0
C      1  0.5225410000000  0.5285340000000  0.4304750000000 1.0
C      1  0.5777370000000  0.4682040000000  0.5093200000000 1.0
C      1  0.5171210000000  0.5882870000000  0.5126770000000 1.0
C      1  0.5898030000000  0.4719640000000  0.4335740000000 1.0
C      1  0.5511030000000  0.4775790000000  0.5788180000000 1.0
C      1  0.4748830000000  0.4977100000000  0.4562640000000 1.0
C      1  0.5209640000000  0.4581870000000  0.4353350000000 1.0
C      1  0.4128280000000  0.5757650000000  0.5214070000000 1.0
C      1  0.5310990000000  0.4176380000000  0.4152520000000 1.0
C      1  0.4447020000000  0.4560600000000  0.4330620000000 1.0
C      1  0.5114090000000  0.3989600000000  0.4551130000000 1.0
C      1  0.4594810000000  0.4554520000000  0.5953200000000 1.0
C      1  0.5654380000000  0.5359930000000  0.4801270000000 1.0
C      1  0.5702000000000  0.4732480000000  0.5580140000000 1.0
C      1  0.4956350000000  0.5189640000000  0.5273490000000 1.0
C      1  0.4077690000000  0.5636940000000  0.4667890000000 1.0
C      1  0.4895620000000  0.5322280000000  0.3943270000000 1.0
C      1  0.5321600000000  0.5616400000000  0.5048550000000 1.0
C      1  0.5322550000000  0.4546200000000  0.5816770000000 1.0
C      1  0.5928860000000  0.5588130000000  0.4635750000000 1.0
C      1  0.4521740000000  0.5023630000000  0.5096780000000 1.0
C      1  0.5155000000000  0.5827020000000  0.5841080000000 1.0
C      1  0.4883940000000  0.4610930000000  0.5049460000000 1.0
C      1  0.4318060000000  0.5895520000000  0.5395210000000 1.0
C      1  0.5488180000000  0.3890960000000  0.5123840000000 1.0
C      1  0.5690990000000  0.5755610000000  0.5392740000000 1.0
C      1  0.3761270000000  0.5047320000000  0.4968000000000 1.0
C      1  0.4736710000000  0.5322160000000  0.4200960000000 1.0
C      1  0.5791810000000  0.5464920000000  0.4397710000000 1.0
C      1  0.4672400000000  0.5228830000000  0.5226370000000 1.0
C      1  0.5266430000000  0.5675500000000  0.4611700000000 1.0
C      1  0.4959630000000  0.5345850000000  0.4781420000000 1.0
C      1  0.4537130000000  0.5477010000000  0.5284780000000 1.0
C      1  0.5081820000000  0.5072490000000  0.6054790000000 1.0
C      1  0.5035970000000  0.5975390000000  0.5616640000000 1.0
C      1  0.3896660000000  0.4833680000000  0.5422950000000 1.0
C      1  0.5490860000000  0.5111270000000  0.4742110000000 1.0
C      1  0.6085280000000  0.4903720000000  0.4797800000000 1.0
C      1  0.4708000000000  0.5613890000000  0.5961850000000 1.0
C      1  0.4125930000000  0.5337920000000  0.5518870000000 1.0
C      1  0.5773030000000  0.4460780000000  0.5518340000000 1.0
C      1  0.5898070000000  0.4461780000000  0.5262510000000 1.0
C      1  0.4699710000000  0.5905840000000  0.4980500000000 1.0
C      1  0.5388220000000  0.4267820000000  0.5762580000000 1.0
C      1  0.5342150000000  0.5407650000000  0.5467420000000 1.0
C      1  0.5011330000000  0.5642270000000  0.6013680000000 1.0
C      1  0.5001960000000  0.4848560000000  0.5891280000000 1.0
C      1  0.4821280000000  0.4173810000000  0.5331610000000 1.0
C      1  0.5731370000000  0.4513120000000  0.4201210000000 1.0
C      1  0.5450150000000  0.5808440000000  0.5812120000000 1.0
C      1  0.3976770000000  0.5513760000000  0.5323000000000 1.0
C      1  0.5359250000000  0.6141700000000  0.4711830000000 1.0
C      1  0.4683290000000  0.4779580000000  0.5459570000000 1.0
C      1  0.3875460000000  0.5196790000000  0.4746970000000 1.0
C      1  0.5819220000000  0.4233570000000  0.4890580000000 1.0
C      1  0.5108140000000  0.4123990000000  0.5418880000000 1.0
C      1  0.4595110000000  0.4418290000000  0.4109880000000 1.0
C      1  0.5280110000000  0.5029660000000  0.4927590000000 1.0
C      1  0.5419490000000  0.5050940000000  0.3876210000000 1.0
C      1  0.5534710000000  0.4572550000000  0.4656400000000 1.0
C      1  0.4720420000000  0.4860230000000  0.4005290000000 1.0
C      1  0.3995250000000  0.5327210000000  0.5096940000000 1.0
C      1  0.4273940000000  0.4770390000000  0.4227400000000 1.0
C      1  0.5479570000000  0.5631140000000  0.4799710000000 1.0
C      1  0.4858130000000  0.4412900000000  0.5917190000000 1.0
C      1  0.4816970000000  0.5625680000000  0.5366340000000 1.0
C      1  0.5729370000000  0.4963430000000  0.4322410000000 1.0
C      1  0.4906980000000  0.5749330000000  0.5119310000000 1.0
C      1  0.4270330000000  0.4926440000000  0.5785650000000 1.0
C      1  0.5400800000000  0.5785640000000  0.4209650000000 1.0
C      1  0.4538880000000  0.5711080000000  0.4816760000000 1.0
C      1  0.5784430000000  0.4533050000000  0.4821400000000 1.0
C      1  0.5806890000000  0.5468740000000  0.5587400000000 1.0
C      1  0.4215350000000  0.4205220000000  0.5224710000000 1.0
C      1  0.4961570000000  0.4888820000000  0.5370660000000 1.0
C      1  0.4127700000000  0.4323940000000  0.4979530000000 1.0
C      1  0.5090900000000  0.5460530000000  0.4524550000000 1.0
C      1  0.5557560000000  0.5227880000000  0.5569490000000 1.0
C      1  0.5303190000000  0.4703190000000  0.5405990000000 1.0
C      1  0.5511500000000  0.5541540000000  0.5254260000000 1.0
C      1  0.5156780000000  0.4045720000000  0.4984530000000 1.0
C      1  0.4185760000000  0.4428100000000  0.5655430000000 1.0
C      1  0.4128320000000  0.5026500000000  0.5513290000000 1.0
C      1  0.5296290000000  0.4492140000000  0.4823340000000 1.0
C      1  0.5510140000000  0.4116670000000  0.4370880000000 1.0
C      1  0.4251820000000  0.4654670000000  0.5233550000000 1.0
C      1  0.5068280000000  0.4893680000000  0.4706920000000 1.0
C      1  0.4480680000000  0.5429100000000  0.6041550000000 1.0
C      1  0.5295040000000  0.4376340000000  0.5339900000000 1.0
C      1  0.4805210000000  0.5550800000000  0.4406160000000 1.0
C      1  0.4000560000000  0.4366190000000  0.4382700000000 1.0
C      1  0.4918510000000  0.3884380000000  0.4733180000000 1.0
C      1  0.4565720000000  0.4953110000000  0.5690360000000 1.0
C      1  0.4616710000000  0.4139990000000  0.4181690000000 1.0
C      1  0.5155820000000  0.4077340000000  0.5720920000000 1.0
C      1  0.5579720000000  0.4039520000000  0.4874150000000 1.0
C      1  0.4764310000000  0.5882880000000  0.5529930000000 1.0
C      1  0.4959870000000  0.4422180000000  0.4349970000000 1.0
C      1  0.5643050000000  0.4370460000000  0.4432210000000 1.0
C      1  0.4816080000000  0.4473650000000  0.4616730000000 1.0
C      1  0.5127390000000  0.5282240000000  0.5021360000000 1.0
C      1  0.6068540000000  0.5035080000000  0.5335660000000 1.0
C      1  0.4718520000000  0.4375300000000  0.5121270000000 1.0
END
