TITL C-3578194-7807-374 -1.79195289891035e-06 125000 -891.834550131291 0 0 151 (C1) n - 1
REM
REM in /home/bkarasulu/work/CARBON/AIRSS/Generating-Clusters/EDIP-Nigel-Params/with-SteepDescent/Higher-Symm/SD-CG/HFTN-CG
REM
REM
REM
REM
REM
REM ./C.cell (12c818d87b63d06a65506943cc24bca4)
REM
REM compiler GCC version 9.2.1 20190827 (Red Hat 9.2.1-1)
REM options -cpp -mtune=generic -march=x86-64 -g -O0 -fpre-include=/usr/include/finclude/math-vector-fortran.h
REM seed -1266447474 -1806987334 -1819133771 -17031862 1257204437 1466703877 123132323 -1145075045 -269820113 -551640723 1695540072 1948949424 1400067248 -650333080 367493888 -1074836132 -1942528924 149297190 1112964495 1150994288 1732092817 -288994435 -1224036869 -1807927295 -1441272127 1309898256 -1444395821 738215966 59515891 1341706023 -1456178355 1386110325 1406744242
REM
CELL 1.54180   50.00000   50.00000   50.00000   90.00000   90.00000   90.00000
LATT -1
SFAC C  
C      1  0.4761840000000  0.4853760000000  0.5921150000000 1.0
C      1  0.4834440000000  0.5230260000000  0.5707760000000 1.0
C      1  0.4803840000000  0.5689000000000  0.5493350000000 1.0
C      1  0.4791560000000  0.5864610000000  0.4998280000000 1.0
C      1  0.4906120000000  0.5838830000000  0.4533610000000 1.0
C      1  0.4921830000000  0.5440920000000  0.4205720000000 1.0
C      1  0.4871250000000  0.4827210000000  0.4096390000000 1.0
C      1  0.4829570000000  0.4336430000000  0.4264310000000 1.0
C      1  0.4772390000000  0.4109450000000  0.4776030000000 1.0
C      1  0.4776780000000  0.4193130000000  0.5209090000000 1.0
C      1  0.4874020000000  0.4481620000000  0.5523890000000 1.0
C      1  0.4904970000000  0.4046590000000  0.5454370000000 1.0
C      1  0.4978790000000  0.4423570000000  0.5799980000000 1.0
C      1  0.4802820000000  0.5057590000000  0.6102600000000 1.0
C      1  0.4902310000000  0.5475770000000  0.5872080000000 1.0
C      1  0.4822010000000  0.5968970000000  0.5472510000000 1.0
C      1  0.4911960000000  0.6124440000000  0.4892380000000 1.0
C      1  0.4960620000000  0.5905340000000  0.4270730000000 1.0
C      1  0.4924100000000  0.5306980000000  0.3965710000000 1.0
C      1  0.4939170000000  0.4627750000000  0.3923520000000 1.0
C      1  0.4899170000000  0.4076000000000  0.4291950000000 1.0
C      1  0.4919840000000  0.3849320000000  0.4864990000000 1.0
C      1  0.5657920000000  0.4895580000000  0.3978930000000 1.0
C      1  0.5627670000000  0.4352020000000  0.4230510000000 1.0
C      1  0.5652200000000  0.4042860000000  0.4704830000000 1.0
C      1  0.5708260000000  0.4095680000000  0.5238410000000 1.0
C      1  0.5771950000000  0.4383800000000  0.5682900000000 1.0
C      1  0.5825150000000  0.4845300000000  0.5954590000000 1.0
C      1  0.5829730000000  0.5380460000000  0.5893200000000 1.0
C      1  0.5758090000000  0.5810950000000  0.5591110000000 1.0
C      1  0.5661530000000  0.6086450000000  0.4973310000000 1.0
C      1  0.5669580000000  0.5904420000000  0.4456560000000 1.0
C      1  0.5641440000000  0.5449950000000  0.4071970000000 1.0
C      1  0.4134580000000  0.4753900000000  0.4517590000000 1.0
C      1  0.4172690000000  0.4531840000000  0.4709090000000 1.0
C      1  0.4182700000000  0.4484460000000  0.5004570000000 1.0
C      1  0.4137030000000  0.4555260000000  0.5293150000000 1.0
C      1  0.4144340000000  0.4777880000000  0.5483910000000 1.0
C      1  0.4152000000000  0.5068020000000  0.5507530000000 1.0
C      1  0.4161370000000  0.5329740000000  0.5378510000000 1.0
C      1  0.4174830000000  0.5481010000000  0.5130110000000 1.0
C      1  0.4231940000000  0.5469580000000  0.4847140000000 1.0
C      1  0.4188990000000  0.5311610000000  0.4608450000000 1.0
C      1  0.4222470000000  0.5035110000000  0.4514160000000 1.0
C      1  0.4403430000000  0.5335270000000  0.4188880000000 1.0
C      1  0.4337540000000  0.4837220000000  0.4090890000000 1.0
C      1  0.4336710000000  0.4391900000000  0.4294290000000 1.0
C      1  0.4386570000000  0.4138520000000  0.4748260000000 1.0
C      1  0.4393430000000  0.4164770000000  0.5257780000000 1.0
C      1  0.4318710000000  0.4405990000000  0.5718800000000 1.0
C      1  0.4272320000000  0.4876930000000  0.5926620000000 1.0
C      1  0.4312080000000  0.5380930000000  0.5823020000000 1.0
C      1  0.4302290000000  0.5766600000000  0.5483880000000 1.0
C      1  0.4350480000000  0.5894120000000  0.4988820000000 1.0
C      1  0.4356900000000  0.5750450000000  0.4486260000000 1.0
C      1  0.4914460000000  0.5030730000000  0.3919890000000 1.0
C      1  0.4939280000000  0.4364130000000  0.4018330000000 1.0
C      1  0.4897000000000  0.3950450000000  0.4550050000000 1.0
C      1  0.4904550000000  0.3916180000000  0.5151470000000 1.0
C      1  0.4911880000000  0.4149340000000  0.5726740000000 1.0
C      1  0.4854490000000  0.4597320000000  0.5975400000000 1.0
C      1  0.4820210000000  0.5328960000000  0.6096740000000 1.0
C      1  0.4808740000000  0.5722420000000  0.5772250000000 1.0
C      1  0.4867120000000  0.6063390000000  0.5206990000000 1.0
C      1  0.4936230000000  0.6102120000000  0.4608840000000 1.0
C      1  0.4965630000000  0.5686810000000  0.4095580000000 1.0
C      1  0.5726800000000  0.5126560000000  0.5998960000000 1.0
C      1  0.5703850000000  0.5636580000000  0.5813570000000 1.0
C      1  0.5716010000000  0.6002630000000  0.5236210000000 1.0
C      1  0.5646390000000  0.5905390000000  0.4749310000000 1.0
C      1  0.5628080000000  0.5661380000000  0.4275230000000 1.0
C      1  0.5613470000000  0.5161100000000  0.4101660000000 1.0
C      1  0.5604950000000  0.4618750000000  0.4106660000000 1.0
C      1  0.5589290000000  0.4249650000000  0.4503750000000 1.0
C      1  0.5564290000000  0.4031720000000  0.4991030000000 1.0
C      1  0.5631300000000  0.4191770000000  0.5506100000000 1.0
C      1  0.5697830000000  0.4583560000000  0.5899330000000 1.0
C      1  0.5883020000000  0.5440610000000  0.5181990000000 1.0
C      1  0.5949510000000  0.5484680000000  0.4913880000000 1.0
C      1  0.5825060000000  0.5355260000000  0.4701380000000 1.0
C      1  0.5915480000000  0.5099960000000  0.4632590000000 1.0
C      1  0.5795400000000  0.4856700000000  0.4566800000000 1.0
C      1  0.5873560000000  0.4622930000000  0.4696260000000 1.0
C      1  0.5779630000000  0.4532580000000  0.4945990000000 1.0
C      1  0.5920680000000  0.4714560000000  0.5132770000000 1.0
C      1  0.5833710000000  0.4727920000000  0.5418400000000 1.0
C      1  0.5870860000000  0.5027940000000  0.5494880000000 1.0
C      1  0.5971750000000  0.5163630000000  0.5245830000000 1.0
C      1  0.5565130000000  0.5060250000000  0.5538790000000 1.0
C      1  0.5468880000000  0.5341050000000  0.5473280000000 1.0
C      1  0.5592320000000  0.5511870000000  0.5245580000000 1.0
C      1  0.5405040000000  0.5521360000000  0.4970710000000 1.0
C      1  0.5526000000000  0.5387170000000  0.4697530000000 1.0
C      1  0.5391760000000  0.5157530000000  0.4552440000000 1.0
C      1  0.5499380000000  0.4874010000000  0.4535750000000 1.0
C      1  0.5342250000000  0.4657840000000  0.4693210000000 1.0
C      1  0.5470830000000  0.4526460000000  0.4961490000000 1.0
C      1  0.5353210000000  0.4542470000000  0.5264430000000 1.0
C      1  0.5524400000000  0.4708700000000  0.5460860000000 1.0
C      1  0.4804570000000  0.5216910000000  0.4612040000000 1.0
C      1  0.4779010000000  0.4927590000000  0.4553880000000 1.0
C      1  0.4976170000000  0.4738110000000  0.4661410000000 1.0
C      1  0.4856590000000  0.4536690000000  0.4823600000000 1.0
C      1  0.4824460000000  0.4618510000000  0.5100670000000 1.0
C      1  0.5051980000000  0.4648620000000  0.5319420000000 1.0
C      1  0.5076080000000  0.4913450000000  0.5439130000000 1.0
C      1  0.5055110000000  0.5185470000000  0.5511040000000 1.0
C      1  0.5065800000000  0.5381910000000  0.5305390000000 1.0
C      1  0.5111610000000  0.5441210000000  0.5032130000000 1.0
C      1  0.4835500000000  0.5394090000000  0.4882370000000 1.0
C      1  0.4237040000000  0.4328530000000  0.5451280000000 1.0
C      1  0.4196570000000  0.4667720000000  0.5744880000000 1.0
C      1  0.4201450000000  0.5117110000000  0.5786290000000 1.0
C      1  0.4205440000000  0.5518890000000  0.5592420000000 1.0
C      1  0.4232220000000  0.5751940000000  0.5206220000000 1.0
C      1  0.4290470000000  0.5733550000000  0.4763390000000 1.0
C      1  0.4274880000000  0.5489030000000  0.4392940000000 1.0
C      1  0.4311540000000  0.5071390000000  0.4245230000000 1.0
C      1  0.4187850000000  0.4643150000000  0.4244450000000 1.0
C      1  0.4218630000000  0.4289130000000  0.4549640000000 1.0
C      1  0.4262920000000  0.4206750000000  0.5003120000000 1.0
C      1  0.4654010000000  0.4806020000000  0.4301060000000 1.0
C      1  0.4610250000000  0.4496850000000  0.4381400000000 1.0
C      1  0.4607930000000  0.4447490000000  0.4683090000000 1.0
C      1  0.4566010000000  0.4512990000000  0.5222910000000 1.0
C      1  0.4577010000000  0.4604270000000  0.5529150000000 1.0
C      1  0.4570300000000  0.4897620000000  0.5687940000000 1.0
C      1  0.4552290000000  0.5251040000000  0.5563290000000 1.0
C      1  0.4580200000000  0.5535260000000  0.5365640000000 1.0
C      1  0.4611400000000  0.5603850000000  0.5033490000000 1.0
C      1  0.4699480000000  0.5645550000000  0.4621010000000 1.0
C      1  0.4707830000000  0.5407030000000  0.4409310000000 1.0
C      1  0.5412320000000  0.5805140000000  0.4884920000000 1.0
C      1  0.5454020000000  0.5595300000000  0.4500720000000 1.0
C      1  0.5388940000000  0.5229440000000  0.4269310000000 1.0
C      1  0.5428150000000  0.4791860000000  0.4260980000000 1.0
C      1  0.5364020000000  0.4428730000000  0.4502850000000 1.0
C      1  0.5391300000000  0.4247320000000  0.4901330000000 1.0
C      1  0.5386780000000  0.4270050000000  0.5371240000000 1.0
C      1  0.5462560000000  0.4611640000000  0.5732450000000 1.0
C      1  0.5511900000000  0.5035670000000  0.5829300000000 1.0
C      1  0.5483330000000  0.5468140000000  0.5736440000000 1.0
C      1  0.5603710000000  0.5787070000000  0.5364170000000 1.0
C      1  0.5021960000000  0.5007510000000  0.5007370000000 1.0
C      1  0.5835220000000  0.4986550000000  0.5048370000000 1.0
C      1  0.5288500000000  0.4956250000000  0.5051580000000 1.0
C      1  0.4780830000000  0.5055080000000  0.5138000000000 1.0
C      1  0.4268010000000  0.4974440000000  0.4997270000000 1.0
C      1  0.4023650000000  0.4897370000000  0.5035270000000 1.0
C      1  0.4519640000000  0.5022610000000  0.5078000000000 1.0
C      1  0.5551620000000  0.5006100000000  0.5072320000000 1.0
END
