TITL C-3578207-9274-312 -8.76022976778879e-06 125000 -665.40531222978 0 0 109 (C1) n - 1
REM
REM in /home/bkarasulu/work/CARBON/AIRSS/Generating-Clusters/EDIP-Nigel-Params/with-SteepDescent/Higher-Symm/SD-CG/HFTN-CG
REM
REM
REM
REM
REM
REM ./C.cell (12c818d87b63d06a65506943cc24bca4)
REM
REM compiler GCC version 9.2.1 20190827 (Red Hat 9.2.1-1)
REM options -cpp -mtune=generic -march=x86-64 -g -O0 -fpre-include=/usr/include/finclude/math-vector-fortran.h
REM seed -971220077 833728996 32579264 191324741 -969648597 1226066359 1034693898 -1774293490 1349701872 -1695526702 -1194292871 886880187 1618812463 167536265 -1165708840 442983456 1301780348 -662352485 1184910988 -1271070007 -1144990438 -553013077 -786388147 439702365 -433874583 -88287871 -1409755397 12169123 -778505490 -757200656 -1407209429 -813779878 1752789182
REM
CELL 1.54180   50.00000   50.00000   50.00000   90.00000   90.00000   90.00000
LATT -1
SFAC C  
C      1  0.4339310000000  0.5349060000000  0.5676360000000 1.0
C      1  0.5630910000000  0.4712440000000  0.4303220000000 1.0
C      1  0.4909320000000  0.4477200000000  0.5643320000000 1.0
C      1  0.5088430000000  0.5528810000000  0.4382370000000 1.0
C      1  0.5033730000000  0.5445040000000  0.4834440000000 1.0
C      1  0.4942200000000  0.4561460000000  0.5179080000000 1.0
C      1  0.4770220000000  0.4632130000000  0.5835340000000 1.0
C      1  0.5239010000000  0.5397150000000  0.4180720000000 1.0
C      1  0.5382130000000  0.4741940000000  0.5275090000000 1.0
C      1  0.4614230000000  0.5223870000000  0.4730340000000 1.0
C      1  0.5031850000000  0.4978700000000  0.4640400000000 1.0
C      1  0.4972220000000  0.5022030000000  0.5328890000000 1.0
C      1  0.5214210000000  0.5037420000000  0.5691080000000 1.0
C      1  0.4767790000000  0.4898780000000  0.4370270000000 1.0
C      1  0.4412520000000  0.4616030000000  0.4293870000000 1.0
C      1  0.5562240000000  0.5341170000000  0.5739460000000 1.0
C      1  0.5275560000000  0.4553770000000  0.4507070000000 1.0
C      1  0.4723470000000  0.5470090000000  0.5502890000000 1.0
C      1  0.4221290000000  0.4557160000000  0.4621740000000 1.0
C      1  0.5724430000000  0.5437220000000  0.5406150000000 1.0
C      1  0.3942930000000  0.4865300000000  0.5012550000000 1.0
C      1  0.6060530000000  0.5192710000000  0.5043520000000 1.0
C      1  0.4285170000000  0.4840400000000  0.5299630000000 1.0
C      1  0.5773890000000  0.5225040000000  0.4695350000000 1.0
C      1  0.5479930000000  0.5271280000000  0.4300110000000 1.0
C      1  0.4537360000000  0.4762050000000  0.5690240000000 1.0
C      1  0.4555740000000  0.5813630000000  0.4830330000000 1.0
C      1  0.5426860000000  0.4194900000000  0.5155860000000 1.0
C      1  0.5636730000000  0.4548760000000  0.5314520000000 1.0
C      1  0.4398300000000  0.5441330000000  0.4655010000000 1.0
C      1  0.5446300000000  0.4628740000000  0.5766060000000 1.0
C      1  0.4615390000000  0.5344390000000  0.4278640000000 1.0
C      1  0.5862600000000  0.5369430000000  0.4938290000000 1.0
C      1  0.4138160000000  0.4678730000000  0.5101480000000 1.0
C      1  0.5426000000000  0.4500550000000  0.4221770000000 1.0
C      1  0.4564270000000  0.5519180000000  0.5770230000000 1.0
C      1  0.5682870000000  0.4306720000000  0.5176100000000 1.0
C      1  0.4314980000000  0.5667440000000  0.4808530000000 1.0
C      1  0.4512690000000  0.4697810000000  0.5405330000000 1.0
C      1  0.5542260000000  0.5351700000000  0.4577020000000 1.0
C      1  0.4580480000000  0.5630340000000  0.5291560000000 1.0
C      1  0.5437300000000  0.4354420000000  0.4674380000000 1.0
C      1  0.4975220000000  0.4253110000000  0.5261660000000 1.0
C      1  0.5003380000000  0.5818840000000  0.4721500000000 1.0
C      1  0.5925030000000  0.4939820000000  0.5020580000000 1.0
C      1  0.4099340000000  0.5098780000000  0.4971980000000 1.0
C      1  0.4194730000000  0.5049830000000  0.4690490000000 1.0
C      1  0.5769070000000  0.4964290000000  0.5285640000000 1.0
C      1  0.4258040000000  0.5345460000000  0.5399270000000 1.0
C      1  0.5750390000000  0.4698810000000  0.4575750000000 1.0
C      1  0.5238450000000  0.5243430000000  0.4968110000000 1.0
C      1  0.4741400000000  0.4851280000000  0.5061780000000 1.0
C      1  0.5284680000000  0.5307020000000  0.5804330000000 1.0
C      1  0.4689240000000  0.4649910000000  0.4230880000000 1.0
C      1  0.5373820000000  0.4986390000000  0.4258870000000 1.0
C      1  0.4654450000000  0.5045010000000  0.5734770000000 1.0
C      1  0.5084130000000  0.4715340000000  0.5405430000000 1.0
C      1  0.4906290000000  0.5279450000000  0.4605680000000 1.0
C      1  0.4187180000000  0.5296810000000  0.4520560000000 1.0
C      1  0.5843810000000  0.4654180000000  0.5485590000000 1.0
C      1  0.4763930000000  0.4282060000000  0.5471360000000 1.0
C      1  0.5222480000000  0.5717390000000  0.4553670000000 1.0
C      1  0.4671180000000  0.5622520000000  0.4361930000000 1.0
C      1  0.5336760000000  0.4410240000000  0.5607230000000 1.0
C      1  0.4711700000000  0.5768210000000  0.5073670000000 1.0
C      1  0.5268170000000  0.4247860000000  0.4908050000000 1.0
C      1  0.4857530000000  0.5557830000000  0.5854260000000 1.0
C      1  0.5124300000000  0.4441920000000  0.4184100000000 1.0
C      1  0.4730920000000  0.5798490000000  0.4590500000000 1.0
C      1  0.5252530000000  0.4241280000000  0.5386130000000 1.0
C      1  0.5120740000000  0.4535130000000  0.4927600000000 1.0
C      1  0.4882880000000  0.5367260000000  0.5112320000000 1.0
C      1  0.4512730000000  0.4362280000000  0.5017810000000 1.0
C      1  0.5451980000000  0.5631580000000  0.5006500000000 1.0
C      1  0.4343490000000  0.5188970000000  0.4295070000000 1.0
C      1  0.5681010000000  0.4793260000000  0.5682330000000 1.0
C      1  0.5869590000000  0.5190090000000  0.5461000000000 1.0
C      1  0.4095670000000  0.4807560000000  0.4535330000000 1.0
C      1  0.4995200000000  0.5837430000000  0.5024850000000 1.0
C      1  0.4954400000000  0.4119590000000  0.4980500000000 1.0
C      1  0.5112870000000  0.5526270000000  0.5700170000000 1.0
C      1  0.4877630000000  0.4467670000000  0.4355720000000 1.0
C      1  0.5273360000000  0.4862170000000  0.4513740000000 1.0
C      1  0.4738180000000  0.5164690000000  0.5476000000000 1.0
C      1  0.4635900000000  0.5155960000000  0.5044060000000 1.0
C      1  0.5302980000000  0.4762850000000  0.4986320000000 1.0
C      1  0.4900950000000  0.4909730000000  0.5886350000000 1.0
C      1  0.5082550000000  0.5173810000000  0.4088570000000 1.0
C      1  0.4317480000000  0.5124880000000  0.5188850000000 1.0
C      1  0.5777550000000  0.4935080000000  0.4760360000000 1.0
C      1  0.5409320000000  0.5020890000000  0.5419480000000 1.0
C      1  0.4558780000000  0.4950150000000  0.4598010000000 1.0
C      1  0.5700090000000  0.4449720000000  0.4699670000000 1.0
C      1  0.4302620000000  0.5594860000000  0.5280420000000 1.0
C      1  0.4870070000000  0.4520130000000  0.4687380000000 1.0
C      1  0.5135810000000  0.5512440000000  0.5374740000000 1.0
C      1  0.4255660000000  0.4867160000000  0.4290570000000 1.0
C      1  0.5734750000000  0.5100030000000  0.5706350000000 1.0
C      1  0.5275960000000  0.5260040000000  0.5264770000000 1.0
C      1  0.4686460000000  0.4749460000000  0.4781680000000 1.0
C      1  0.5274610000000  0.4819590000000  0.5885190000000 1.0
C      1  0.4811780000000  0.5137360000000  0.4195230000000 1.0
C      1  0.4546800000000  0.4417060000000  0.5319680000000 1.0
C      1  0.5431600000000  0.5591750000000  0.4708150000000 1.0
C      1  0.5224960000000  0.5730970000000  0.5182270000000 1.0
C      1  0.4743880000000  0.4270340000000  0.4835370000000 1.0
C      1  0.5651210000000  0.5454250000000  0.5125800000000 1.0
C      1  0.4310910000000  0.4548940000000  0.4900570000000 1.0
C      1  0.5132620000000  0.4981870000000  0.4918380000000 1.0
END
