TITL C-3577091-527-510 -1.59449114409964e-06 125000 -1123.6640172769 0 0 177 (C1) n - 1
REM
REM in /home/bkarasulu/work/CARBON/AIRSS/Generating-Clusters/EDIP-Nigel-Params/with-SteepDescent/Higher-Symm/SD-CG/HFTN-CG
REM
REM
REM
REM
REM
REM ./C.cell (12c818d87b63d06a65506943cc24bca4)
REM
REM compiler GCC version 9.2.1 20190827 (Red Hat 9.2.1-1)
REM options -cpp -mtune=generic -march=x86-64 -g -O0 -fpre-include=/usr/include/finclude/math-vector-fortran.h
REM seed 62044755 1895485191 1427413586 -672421375 -1053377647 -1463767059 -1525938820 -1268971060 1949234228 1015663953 -1072389896 2054922061 2126535099 386047811 -2029634688 -361191502 -1954141234 1880963414 814179600 -395066679 -956998257 -13095540 192939645 943170377 958673165 -1382137015 -1946141033 1466502934 -1397710234 908593646 888448281 -1878469556 -671074540
REM
CELL 1.54180   50.00000   50.00000   50.00000   90.00000   90.00000   90.00000
LATT -1
SFAC C  
C      1  0.5523880000000  0.5328330000000  0.4145630000000 1.0
C      1  0.5913760000000  0.5325630000000  0.5237810000000 1.0
C      1  0.5259350000000  0.5147780000000  0.5973450000000 1.0
C      1  0.4042690000000  0.5163800000000  0.5413670000000 1.0
C      1  0.4377280000000  0.5311770000000  0.4245580000000 1.0
C      1  0.5360110000000  0.4858040000000  0.3979390000000 1.0
C      1  0.5992040000000  0.4862030000000  0.5057130000000 1.0
C      1  0.5079410000000  0.4666160000000  0.5981380000000 1.0
C      1  0.4130330000000  0.4839640000000  0.5745830000000 1.0
C      1  0.4219760000000  0.4855900000000  0.4361580000000 1.0
C      1  0.4570110000000  0.5812600000000  0.5260240000000 1.0
C      1  0.4526490000000  0.5859880000000  0.4692990000000 1.0
C      1  0.5127910000000  0.5822090000000  0.4459730000000 1.0
C      1  0.5561240000000  0.5935380000000  0.4942510000000 1.0
C      1  0.5222490000000  0.5965650000000  0.5496910000000 1.0
C      1  0.4558920000000  0.4054840000000  0.5361130000000 1.0
C      1  0.4529900000000  0.4095320000000  0.4728050000000 1.0
C      1  0.5142300000000  0.4081160000000  0.4481640000000 1.0
C      1  0.5506160000000  0.4165990000000  0.4994430000000 1.0
C      1  0.5212620000000  0.4184980000000  0.5485550000000 1.0
C      1  0.5725060000000  0.4851500000000  0.5235720000000 1.0
C      1  0.5044020000000  0.4803070000000  0.5702270000000 1.0
C      1  0.4401370000000  0.4866120000000  0.5243700000000 1.0
C      1  0.4586750000000  0.4901190000000  0.4485790000000 1.0
C      1  0.5388410000000  0.4918330000000  0.4350980000000 1.0
C      1  0.5652320000000  0.5157850000000  0.5165700000000 1.0
C      1  0.5010740000000  0.5079630000000  0.5808600000000 1.0
C      1  0.4277070000000  0.5135310000000  0.5246310000000 1.0
C      1  0.4603750000000  0.5203680000000  0.4414800000000 1.0
C      1  0.5450940000000  0.5195540000000  0.4412130000000 1.0
C      1  0.5883570000000  0.5311090000000  0.4272810000000 1.0
C      1  0.5926500000000  0.5362410000000  0.5549880000000 1.0
C      1  0.4731200000000  0.5331480000000  0.6041250000000 1.0
C      1  0.3891210000000  0.5277400000000  0.5075550000000 1.0
C      1  0.4576320000000  0.5298500000000  0.3926150000000 1.0
C      1  0.5854720000000  0.4671140000000  0.4315790000000 1.0
C      1  0.5886980000000  0.4765210000000  0.5477680000000 1.0
C      1  0.4779840000000  0.4640030000000  0.6077500000000 1.0
C      1  0.3905470000000  0.4671150000000  0.5029180000000 1.0
C      1  0.4598380000000  0.4694950000000  0.4027090000000 1.0
C      1  0.4373080000000  0.4420170000000  0.5655140000000 1.0
C      1  0.4227810000000  0.4467260000000  0.4644710000000 1.0
C      1  0.5140680000000  0.4440340000000  0.4146070000000 1.0
C      1  0.5857850000000  0.4447730000000  0.4836200000000 1.0
C      1  0.5473960000000  0.4466280000000  0.5800670000000 1.0
C      1  0.4395380000000  0.5543510000000  0.5633430000000 1.0
C      1  0.4127500000000  0.5560010000000  0.4593730000000 1.0
C      1  0.5099500000000  0.5549450000000  0.4051920000000 1.0
C      1  0.5881870000000  0.5555870000000  0.4815280000000 1.0
C      1  0.5413930000000  0.5591560000000  0.5772170000000 1.0
C      1  0.4715500000000  0.4266160000000  0.4260550000000 1.0
C      1  0.5649410000000  0.4195270000000  0.4490360000000 1.0
C      1  0.5720250000000  0.4261470000000  0.5452250000000 1.0
C      1  0.4789590000000  0.4216180000000  0.5797600000000 1.0
C      1  0.4161910000000  0.4233670000000  0.5061470000000 1.0
C      1  0.4695070000000  0.5746600000000  0.4188210000000 1.0
C      1  0.5665040000000  0.5776920000000  0.4445210000000 1.0
C      1  0.5718050000000  0.5829840000000  0.5474840000000 1.0
C      1  0.4802430000000  0.5774870000000  0.5765140000000 1.0
C      1  0.4116300000000  0.5768790000000  0.5056660000000 1.0
C      1  0.5400590000000  0.4311990000000  0.4139520000000 1.0
C      1  0.5950720000000  0.4338430000000  0.5086180000000 1.0
C      1  0.5216700000000  0.4401830000000  0.5923730000000 1.0
C      1  0.4155250000000  0.4316450000000  0.5494850000000 1.0
C      1  0.4309510000000  0.4379340000000  0.4379760000000 1.0
C      1  0.5383400000000  0.5603180000000  0.4104820000000 1.0
C      1  0.5913890000000  0.5599100000000  0.5097510000000 1.0
C      1  0.5210880000000  0.5723380000000  0.5928190000000 1.0
C      1  0.4175950000000  0.5663640000000  0.5484890000000 1.0
C      1  0.4287490000000  0.5589500000000  0.4348750000000 1.0
C      1  0.4510860000000  0.5762520000000  0.4410720000000 1.0
C      1  0.5396890000000  0.5799720000000  0.4322820000000 1.0
C      1  0.5749470000000  0.5830530000000  0.5179130000000 1.0
C      1  0.5066030000000  0.5920020000000  0.5753860000000 1.0
C      1  0.4269630000000  0.5863300000000  0.5289820000000 1.0
C      1  0.4497210000000  0.4125620000000  0.4429850000000 1.0
C      1  0.5411900000000  0.4097420000000  0.4344350000000 1.0
C      1  0.5739460000000  0.4154330000000  0.5177760000000 1.0
C      1  0.5073910000000  0.4225580000000  0.5740940000000 1.0
C      1  0.4259350000000  0.4104460000000  0.5309450000000 1.0
C      1  0.3987600000000  0.5534490000000  0.5179020000000 1.0
C      1  0.4603010000000  0.5574610000000  0.3981000000000 1.0
C      1  0.5829350000000  0.5584960000000  0.4312800000000 1.0
C      1  0.5891680000000  0.5639940000000  0.5592350000000 1.0
C      1  0.4869850000000  0.5563420000000  0.5959960000000 1.0
C      1  0.4002610000000  0.4452960000000  0.5175140000000 1.0
C      1  0.4556300000000  0.4526050000000  0.4249220000000 1.0
C      1  0.5731690000000  0.4407200000000  0.4296720000000 1.0
C      1  0.5932470000000  0.4468720000000  0.5447190000000 1.0
C      1  0.4720680000000  0.4370190000000  0.6022510000000 1.0
C      1  0.5026870000000  0.5176350000000  0.4290110000000 1.0
C      1  0.5643840000000  0.5135260000000  0.4854590000000 1.0
C      1  0.5358030000000  0.5149120000000  0.5540710000000 1.0
C      1  0.4591270000000  0.5151820000000  0.5556710000000 1.0
C      1  0.4354800000000  0.5193540000000  0.4777780000000 1.0
C      1  0.5083230000000  0.4892920000000  0.4336580000000 1.0
C      1  0.5643060000000  0.4849230000000  0.4781600000000 1.0
C      1  0.5326270000000  0.4847630000000  0.5579180000000 1.0
C      1  0.4552080000000  0.4861430000000  0.5498710000000 1.0
C      1  0.4428310000000  0.4905650000000  0.4751380000000 1.0
C      1  0.4853820000000  0.5272420000000  0.5638410000000 1.0
C      1  0.4338250000000  0.5338530000000  0.5030040000000 1.0
C      1  0.4863090000000  0.5360450000000  0.4454600000000 1.0
C      1  0.5415280000000  0.5258590000000  0.4704480000000 1.0
C      1  0.5394010000000  0.5271750000000  0.5281460000000 1.0
C      1  0.4819740000000  0.4722720000000  0.5474010000000 1.0
C      1  0.4555410000000  0.4782050000000  0.5000130000000 1.0
C      1  0.4897690000000  0.4782820000000  0.4548010000000 1.0
C      1  0.5538270000000  0.4725690000000  0.4523000000000 1.0
C      1  0.5413690000000  0.4648890000000  0.5352580000000 1.0
C      1  0.5264920000000  0.4000630000000  0.4998270000000 1.0
C      1  0.5098390000000  0.4011250000000  0.5251240000000 1.0
C      1  0.4791310000000  0.3975540000000  0.5174900000000 1.0
C      1  0.4784530000000  0.3975890000000  0.4867360000000 1.0
C      1  0.5077910000000  0.4002550000000  0.4766320000000 1.0
C      1  0.5262820000000  0.6030750000000  0.4955800000000 1.0
C      1  0.5086270000000  0.5962020000000  0.5207960000000 1.0
C      1  0.4780770000000  0.5995980000000  0.5132220000000 1.0
C      1  0.4775500000000  0.5937100000000  0.4840630000000 1.0
C      1  0.5053720000000  0.5982820000000  0.4717320000000 1.0
C      1  0.4392990000000  0.4722140000000  0.5727510000000 1.0
C      1  0.4185460000000  0.4759000000000  0.4643540000000 1.0
C      1  0.5093150000000  0.4735250000000  0.4072170000000 1.0
C      1  0.5907990000000  0.4738820000000  0.4797730000000 1.0
C      1  0.5503670000000  0.4766020000000  0.5812760000000 1.0
C      1  0.4380380000000  0.5252980000000  0.5737490000000 1.0
C      1  0.4114500000000  0.5258720000000  0.4622630000000 1.0
C      1  0.5077820000000  0.5254940000000  0.4014930000000 1.0
C      1  0.5914480000000  0.5254220000000  0.4777470000000 1.0
C      1  0.5457720000000  0.5287780000000  0.5781030000000 1.0
C      1  0.5397090000000  0.5541390000000  0.4757600000000 1.0
C      1  0.5371000000000  0.5567330000000  0.5286210000000 1.0
C      1  0.4902210000000  0.5528470000000  0.5334070000000 1.0
C      1  0.4574240000000  0.5593050000000  0.5035970000000 1.0
C      1  0.5121910000000  0.5623750000000  0.4848890000000 1.0
C      1  0.5357080000000  0.4528350000000  0.4674950000000 1.0
C      1  0.4987170000000  0.4371970000000  0.5160660000000 1.0
C      1  0.4759450000000  0.4450260000000  0.5361160000000 1.0
C      1  0.4588770000000  0.4478970000000  0.4998910000000 1.0
C      1  0.4975770000000  0.4486320000000  0.4611610000000 1.0
C      1  0.4619440000000  0.4272810000000  0.5560930000000 1.0
C      1  0.4369890000000  0.4315580000000  0.4862820000000 1.0
C      1  0.4985670000000  0.4309780000000  0.4366500000000 1.0
C      1  0.5588080000000  0.4324560000000  0.4754350000000 1.0
C      1  0.5454610000000  0.4378830000000  0.5512280000000 1.0
C      1  0.4663420000000  0.5658970000000  0.5523950000000 1.0
C      1  0.4277290000000  0.5713790000000  0.4807340000000 1.0
C      1  0.4943870000000  0.5637120000000  0.4295330000000 1.0
C      1  0.5633670000000  0.5714820000000  0.4734690000000 1.0
C      1  0.5436530000000  0.5743170000000  0.5514930000000 1.0
C      1  0.5162660000000  0.5194170000000  0.5125700000000 1.0
C      1  0.4889740000000  0.5250630000000  0.5249690000000 1.0
C      1  0.4724990000000  0.5317840000000  0.4988250000000 1.0
C      1  0.4940700000000  0.5378000000000  0.4764640000000 1.0
C      1  0.5147050000000  0.5165960000000  0.4826250000000 1.0
C      1  0.5176040000000  0.4619980000000  0.5161300000000 1.0
C      1  0.4974650000000  0.4819160000000  0.5250290000000 1.0
C      1  0.4824370000000  0.4889070000000  0.5015280000000 1.0
C      1  0.5026280000000  0.4888440000000  0.4801750000000 1.0
C      1  0.5241870000000  0.4702300000000  0.4889120000000 1.0
C      1  0.4822860000000  0.5131920000000  0.3896270000000 1.0
C      1  0.5981630000000  0.5144440000000  0.4499460000000 1.0
C      1  0.5755040000000  0.5190280000000  0.5737190000000 1.0
C      1  0.4522460000000  0.5144380000000  0.5993760000000 1.0
C      1  0.3911370000000  0.5139390000000  0.4815110000000 1.0
C      1  0.4828920000000  0.4831630000000  0.3938790000000 1.0
C      1  0.5996140000000  0.4837010000000  0.4515140000000 1.0
C      1  0.5779270000000  0.4884770000000  0.5737800000000 1.0
C      1  0.4566490000000  0.4830290000000  0.5966260000000 1.0
C      1  0.3946360000000  0.4841260000000  0.4808900000000 1.0
C      1  0.4147820000000  0.5131070000000  0.4340120000000 1.0
C      1  0.6080900000000  0.5144030000000  0.5024520000000 1.0
C      1  0.4115050000000  0.5112620000000  0.5686860000000 1.0
C      1  0.5358390000000  0.5145770000000  0.3943910000000 1.0
C      1  0.5341660000000  0.4874740000000  0.6055180000000 1.0
C      1  0.5118930000000  0.5662920000000  0.5165150000000 1.0
C      1  0.4846980000000  0.4358220000000  0.4879970000000 1.0
END
