TITL C-3578198-8939-705 -1.29007728044665e-07 125000 -32.9277065857036 0 0 7 (D(inf)h) n - 1
REM
REM in /home/bkarasulu/work/CARBON/AIRSS/Generating-Clusters/EDIP-Nigel-Params/with-SteepDescent/Higher-Symm/SD-CG/HFTN-CG
REM
REM
REM
REM
REM
REM ./C.cell (12c818d87b63d06a65506943cc24bca4)
REM
REM compiler GCC version 9.2.1 20190827 (Red Hat 9.2.1-1)
REM options -cpp -mtune=generic -march=x86-64 -g -O0 -fpre-include=/usr/include/finclude/math-vector-fortran.h
REM seed -1939212644 310380103 -831131043 -119567532 474850391 -1119007899 -1815726815 905667742 1329374716 814916883 -1229209031 -1389040019 40362844 -91200931 839139502 127433227 1805761773 -2134622217 -103530887 1463912630 -524693635 808151376 -1893433478 -1033425069 2010247359 325744482 427927233 -1346212734 -876562870 -1539312963 -1255387564 -324868816 1408970803
REM
CELL 1.54180   50.00000   50.00000   50.00000   90.00000   90.00000   90.00000
LATT -1
SFAC C  
C      1  0.5000800000000  0.5022080000000  0.4216590000000 1.0
C      1  0.5000800000000  0.5022080000000  0.4736150000000 1.0
C      1  0.5000800000000  0.5022080000000  0.4472290000000 1.0
C      1  0.5000800000000  0.5022080000000  0.5000000000000 1.0
C      1  0.5000800000000  0.5022080000000  0.5263850000000 1.0
C      1  0.5000800000000  0.5022080000000  0.5783410000000 1.0
C      1  0.5000800000000  0.5022080000000  0.5527710000000 1.0
END
