TITL C-3577076-40-604 -4.92747525947416e-07 125000 -492.799045728414 0 0 79 (C1) n - 1
REM
REM in /home/bkarasulu/work/CARBON/AIRSS/Generating-Clusters/EDIP-Nigel-Params/with-SteepDescent/Higher-Symm/SD-CG/HFTN-CG
REM
REM
REM
REM
REM
REM ./C.cell (12c818d87b63d06a65506943cc24bca4)
REM
REM compiler GCC version 9.2.1 20190827 (Red Hat 9.2.1-1)
REM options -cpp -mtune=generic -march=x86-64 -g -O0 -fpre-include=/usr/include/finclude/math-vector-fortran.h
REM seed -275409779 -1679180818 -1556439766 -83795871 -451143438 -1822883564 1108056028 690417615 -284940808 -1437957530 -239476340 436331651 1958805956 -796070731 -1044319438 -433499355 -205219579 -1035157813 -246500437 -728439262 -604759252 555426008 -960641566 -1486233676 -1515028201 -116096601 -986472570 -1758882841 1411261692 1374111901 -474257906 659340199 -711270813
REM
CELL 1.54180   50.00000   50.00000   50.00000   90.00000   90.00000   90.00000
LATT -1
SFAC C  
C      1  0.5216390000000  0.4847560000000  0.5827330000000 1.0
C      1  0.5202750000000  0.4361020000000  0.4451890000000 1.0
C      1  0.5190250000000  0.5750060000000  0.4732260000000 1.0
C      1  0.5218230000000  0.4824250000000  0.4164600000000 1.0
C      1  0.5192390000000  0.4386810000000  0.5551080000000 1.0
C      1  0.5215530000000  0.5775130000000  0.5254440000000 1.0
C      1  0.5622700000000  0.4468690000000  0.4740840000000 1.0
C      1  0.5607550000000  0.5480160000000  0.4681750000000 1.0
C      1  0.5629190000000  0.5033120000000  0.5576850000000 1.0
C      1  0.5620020000000  0.4477970000000  0.5266740000000 1.0
C      1  0.5620610000000  0.5486050000000  0.5301910000000 1.0
C      1  0.5626230000000  0.5025560000000  0.4413720000000 1.0
C      1  0.5269640000000  0.5478850000000  0.5148510000000 1.0
C      1  0.5291810000000  0.4626720000000  0.5379050000000 1.0
C      1  0.5291090000000  0.4856530000000  0.4465800000000 1.0
C      1  0.5265450000000  0.5467490000000  0.4851120000000 1.0
C      1  0.5294380000000  0.4607310000000  0.4617820000000 1.0
C      1  0.5283650000000  0.4882630000000  0.5522450000000 1.0
C      1  0.4943730000000  0.4440300000000  0.5715280000000 1.0
C      1  0.4972360000000  0.4653510000000  0.4109160000000 1.0
C      1  0.4962210000000  0.5904640000000  0.5144610000000 1.0
C      1  0.4957180000000  0.4407100000000  0.4280140000000 1.0
C      1  0.4963980000000  0.4687040000000  0.5885610000000 1.0
C      1  0.4938540000000  0.5866790000000  0.4848310000000 1.0
C      1  0.4672560000000  0.5502790000000  0.4631300000000 1.0
C      1  0.4695510000000  0.5081450000000  0.5726100000000 1.0
C      1  0.4680470000000  0.4413220000000  0.4696360000000 1.0
C      1  0.4699260000000  0.5577650000000  0.5423830000000 1.0
C      1  0.4686520000000  0.5036600000000  0.4270440000000 1.0
C      1  0.4680300000000  0.4443520000000  0.5291410000000 1.0
C      1  0.4317410000000  0.4815430000000  0.5210280000000 1.0
C      1  0.4282950000000  0.4871020000000  0.4476270000000 1.0
C      1  0.4337880000000  0.5401010000000  0.5144570000000 1.0
C      1  0.4303950000000  0.4773680000000  0.4739410000000 1.0
C      1  0.4308290000000  0.4941640000000  0.5460590000000 1.0
C      1  0.4318930000000  0.5240630000000  0.4913870000000 1.0
C      1  0.5071810000000  0.4669460000000  0.4826890000000 1.0
C      1  0.5064900000000  0.5260400000000  0.4758340000000 1.0
C      1  0.5054760000000  0.5017450000000  0.5362790000000 1.0
C      1  0.5080160000000  0.4687060000000  0.5155950000000 1.0
C      1  0.5052580000000  0.5302330000000  0.5264130000000 1.0
C      1  0.5047900000000  0.4991370000000  0.4604470000000 1.0
C      1  0.5185060000000  0.5127470000000  0.4138560000000 1.0
C      1  0.5197980000000  0.5666310000000  0.5539380000000 1.0
C      1  0.5155650000000  0.4217720000000  0.5300650000000 1.0
C      1  0.5202310000000  0.5150170000000  0.5858230000000 1.0
C      1  0.5160770000000  0.5631840000000  0.4457040000000 1.0
C      1  0.5162440000000  0.4198990000000  0.4707490000000 1.0
C      1  0.4709840000000  0.5774640000000  0.5218050000000 1.0
C      1  0.4698010000000  0.4504030000000  0.5569530000000 1.0
C      1  0.4710600000000  0.4766930000000  0.4179550000000 1.0
C      1  0.4699180000000  0.5697360000000  0.4840210000000 1.0
C      1  0.4703050000000  0.4461050000000  0.4415450000000 1.0
C      1  0.4709480000000  0.4808850000000  0.5806170000000 1.0
C      1  0.5640540000000  0.4998770000000  0.5288800000000 1.0
C      1  0.5644120000000  0.4737850000000  0.4854140000000 1.0
C      1  0.5641730000000  0.5243410000000  0.4846800000000 1.0
C      1  0.5638150000000  0.4993050000000  0.4703220000000 1.0
C      1  0.5646610000000  0.4741690000000  0.5143370000000 1.0
C      1  0.5640800000000  0.5246040000000  0.5141000000000 1.0
C      1  0.5444700000000  0.5228840000000  0.4280550000000 1.0
C      1  0.5459480000000  0.5502610000000  0.5553570000000 1.0
C      1  0.5428750000000  0.4267150000000  0.5156100000000 1.0
C      1  0.5459450000000  0.5243880000000  0.5708090000000 1.0
C      1  0.5433440000000  0.5485980000000  0.4435990000000 1.0
C      1  0.5432280000000  0.4259180000000  0.4856510000000 1.0
C      1  0.4948710000000  0.5156490000000  0.4340010000000 1.0
C      1  0.4966390000000  0.5462750000000  0.5499700000000 1.0
C      1  0.4944570000000  0.4396430000000  0.5157400000000 1.0
C      1  0.4957860000000  0.5216010000000  0.5686680000000 1.0
C      1  0.4943220000000  0.5417520000000  0.4522930000000 1.0
C      1  0.4943800000000  0.4380410000000  0.4837010000000 1.0
C      1  0.4485180000000  0.5280160000000  0.4670180000000 1.0
C      1  0.4490100000000  0.5139680000000  0.5531580000000 1.0
C      1  0.4493370000000  0.4577290000000  0.4844280000000 1.0
C      1  0.4490960000000  0.5382780000000  0.5378420000000 1.0
C      1  0.4473480000000  0.5075800000000  0.4462160000000 1.0
C      1  0.4495530000000  0.4597180000000  0.5130100000000 1.0
C      1  0.4233680000000  0.4957240000000  0.4960750000000 1.0
END
