TITL C-3578203-1966-504 1.5450119298631e-06 125000 -684.864510209359 0 0 108 (C1) n - 1
REM
REM in /home/bkarasulu/work/CARBON/AIRSS/Generating-Clusters/EDIP-Nigel-Params/with-SteepDescent/Higher-Symm/SD-CG/HFTN-CG
REM
REM
REM
REM
REM
REM ./C.cell (12c818d87b63d06a65506943cc24bca4)
REM
REM compiler GCC version 9.2.1 20190827 (Red Hat 9.2.1-1)
REM options -cpp -mtune=generic -march=x86-64 -g -O0 -fpre-include=/usr/include/finclude/math-vector-fortran.h
REM seed 377668589 417661056 8911541 -955481721 579828583 2094255317 -2131445085 1177232353 696686389 761970449 839841704 2008972394 420553603 -1412798717 946626571 1151962829 363774710 1685175090 1622611607 1975072110 -225549353 760377293 1163796161 -656353145 552294395 -1140650399 810356443 1942962135 1271091049 -1193985255 1014828996 -542037152 -1297983915
REM
CELL 1.54180   50.00000   50.00000   50.00000   90.00000   90.00000   90.00000
LATT -1
SFAC C  
C      1  0.5565540000000  0.4735450000000  0.4317100000000 1.0
C      1  0.4271220000000  0.5578420000000  0.4745190000000 1.0
C      1  0.4736390000000  0.4291920000000  0.5568550000000 1.0
C      1  0.5556690000000  0.5260880000000  0.5704390000000 1.0
C      1  0.4430960000000  0.5269690000000  0.4291880000000 1.0
C      1  0.4423990000000  0.4749620000000  0.5711520000000 1.0
C      1  0.4295970000000  0.4441580000000  0.5251000000000 1.0
C      1  0.5718720000000  0.4427670000000  0.4738570000000 1.0
C      1  0.5693730000000  0.5577620000000  0.5262690000000 1.0
C      1  0.4733210000000  0.5710580000000  0.4430330000000 1.0
C      1  0.5240990000000  0.5709640000000  0.5564130000000 1.0
C      1  0.5260020000000  0.4278730000000  0.4429300000000 1.0
C      1  0.4435160000000  0.4739560000000  0.4302510000000 1.0
C      1  0.5691140000000  0.5573370000000  0.4747730000000 1.0
C      1  0.5255110000000  0.4297600000000  0.5550900000000 1.0
C      1  0.4419590000000  0.5259680000000  0.5715340000000 1.0
C      1  0.5569190000000  0.5262210000000  0.4280200000000 1.0
C      1  0.5561200000000  0.4748380000000  0.5692820000000 1.0
C      1  0.5703060000000  0.4443550000000  0.5232930000000 1.0
C      1  0.4298120000000  0.4440990000000  0.4735100000000 1.0
C      1  0.4287250000000  0.5577180000000  0.5266220000000 1.0
C      1  0.5247740000000  0.5713920000000  0.4435070000000 1.0
C      1  0.4731440000000  0.5699880000000  0.5545580000000 1.0
C      1  0.4748280000000  0.4281320000000  0.4436820000000 1.0
C      1  0.5234400000000  0.5768410000000  0.5290340000000 1.0
C      1  0.5284330000000  0.5259900000000  0.5775770000000 1.0
C      1  0.5776740000000  0.5309730000000  0.5263080000000 1.0
C      1  0.5267550000000  0.4178620000000  0.4692830000000 1.0
C      1  0.4742680000000  0.4219820000000  0.5289400000000 1.0
C      1  0.4727300000000  0.5778140000000  0.4703050000000 1.0
C      1  0.5293770000000  0.4741980000000  0.4252340000000 1.0
C      1  0.4697370000000  0.4746470000000  0.5780320000000 1.0
C      1  0.4705840000000  0.5254270000000  0.4245360000000 1.0
C      1  0.5814970000000  0.4703380000000  0.4736450000000 1.0
C      1  0.4232870000000  0.4714520000000  0.5253790000000 1.0
C      1  0.4213890000000  0.5303370000000  0.4741390000000 1.0
C      1  0.4723600000000  0.5824510000000  0.5292590000000 1.0
C      1  0.4693300000000  0.5257940000000  0.5782710000000 1.0
C      1  0.4184350000000  0.5308270000000  0.5267160000000 1.0
C      1  0.4746620000000  0.4203130000000  0.4705850000000 1.0
C      1  0.5266530000000  0.4193040000000  0.5287340000000 1.0
C      1  0.5236360000000  0.5762440000000  0.4711650000000 1.0
C      1  0.4705830000000  0.4736360000000  0.4235780000000 1.0
C      1  0.5286500000000  0.4753450000000  0.5752800000000 1.0
C      1  0.5291510000000  0.5252110000000  0.4241110000000 1.0
C      1  0.4219270000000  0.4712930000000  0.4741040000000 1.0
C      1  0.5800220000000  0.4709750000000  0.5250390000000 1.0
C      1  0.5778720000000  0.5308810000000  0.4743910000000 1.0
C      1  0.4519540000000  0.4314020000000  0.4854880000000 1.0
C      1  0.4860490000000  0.4507780000000  0.4319250000000 1.0
C      1  0.4289120000000  0.4867840000000  0.4502840000000 1.0
C      1  0.4481840000000  0.5744300000000  0.5141630000000 1.0
C      1  0.5477680000000  0.5710640000000  0.4860790000000 1.0
C      1  0.5505580000000  0.4269140000000  0.5131140000000 1.0
C      1  0.4845310000000  0.5481780000000  0.5679400000000 1.0
C      1  0.5137940000000  0.5494990000000  0.4298110000000 1.0
C      1  0.5136740000000  0.4519910000000  0.5676320000000 1.0
C      1  0.4283760000000  0.5148390000000  0.5496640000000 1.0
C      1  0.5701320000000  0.5146960000000  0.4506580000000 1.0
C      1  0.5715210000000  0.4864000000000  0.5488840000000 1.0
C      1  0.5513740000000  0.4254120000000  0.4842870000000 1.0
C      1  0.5143430000000  0.4505050000000  0.4313820000000 1.0
C      1  0.5747800000000  0.4854460000000  0.4491800000000 1.0
C      1  0.5479450000000  0.5715290000000  0.5146070000000 1.0
C      1  0.4478480000000  0.5736620000000  0.4851100000000 1.0
C      1  0.4492030000000  0.4276490000000  0.5137670000000 1.0
C      1  0.5129120000000  0.5494870000000  0.5702800000000 1.0
C      1  0.4851620000000  0.5495340000000  0.4296900000000 1.0
C      1  0.4851020000000  0.4522890000000  0.5676150000000 1.0
C      1  0.5706510000000  0.5152100000000  0.5494430000000 1.0
C      1  0.4388440000000  0.5145230000000  0.4549460000000 1.0
C      1  0.4284310000000  0.4862580000000  0.5496170000000 1.0
C      1  0.5228590000000  0.5359510000000  0.5130670000000 1.0
C      1  0.5172670000000  0.5147160000000  0.5371080000000 1.0
C      1  0.5439660000000  0.5156520000000  0.5027700000000 1.0
C      1  0.5188270000000  0.4542210000000  0.4909730000000 1.0
C      1  0.4797440000000  0.4581240000000  0.5151080000000 1.0
C      1  0.4716330000000  0.5373810000000  0.4863260000000 1.0
C      1  0.5352770000000  0.4808860000000  0.4683160000000 1.0
C      1  0.4754400000000  0.4815390000000  0.5356780000000 1.0
C      1  0.4923590000000  0.5038450000000  0.4563230000000 1.0
C      1  0.5462380000000  0.4673170000000  0.4964640000000 1.0
C      1  0.4555010000000  0.5000960000000  0.5180810000000 1.0
C      1  0.4662000000000  0.5122630000000  0.4702970000000 1.0
C      1  0.4854400000000  0.5411060000000  0.5243210000000 1.0
C      1  0.4866250000000  0.5137890000000  0.5399410000000 1.0
C      1  0.4586350000000  0.5317340000000  0.5135100000000 1.0
C      1  0.4772890000000  0.4680460000000  0.4868960000000 1.0
C      1  0.5076000000000  0.4575590000000  0.5176310000000 1.0
C      1  0.5033520000000  0.5410830000000  0.4878050000000 1.0
C      1  0.5008160000000  0.4743020000000  0.4658390000000 1.0
C      1  0.5147430000000  0.4812570000000  0.5345470000000 1.0
C      1  0.5133240000000  0.5234170000000  0.4655960000000 1.0
C      1  0.4619790000000  0.4916780000000  0.4902340000000 1.0
C      1  0.5412610000000  0.4890200000000  0.5179820000000 1.0
C      1  0.5385730000000  0.5104890000000  0.4734020000000 1.0
C      1  0.4842170000000  0.5002670000000  0.5815820000000 1.0
C      1  0.5154400000000  0.4994720000000  0.4196360000000 1.0
C      1  0.5006850000000  0.4152320000000  0.4843640000000 1.0
C      1  0.4849980000000  0.4995950000000  0.4182570000000 1.0
C      1  0.4192300000000  0.4862860000000  0.5001210000000 1.0
C      1  0.4982010000000  0.5821650000000  0.5146140000000 1.0
C      1  0.4982280000000  0.5827610000000  0.4849250000000 1.0
C      1  0.5006980000000  0.4139780000000  0.5142820000000 1.0
C      1  0.5138190000000  0.5004930000000  0.5789460000000 1.0
C      1  0.4188970000000  0.5163480000000  0.5002510000000 1.0
C      1  0.5832920000000  0.5165330000000  0.5002820000000 1.0
C      1  0.5853770000000  0.4858450000000  0.4997250000000 1.0
END
