TITL C-3578197-9521-291 -3.6999521115862e-06 125000 -729.737894084361 0 0 118 (C1) n - 1
REM
REM in /home/bkarasulu/work/CARBON/AIRSS/Generating-Clusters/EDIP-Nigel-Params/with-SteepDescent/Higher-Symm/SD-CG/HFTN-CG
REM
REM
REM
REM
REM
REM ./C.cell (12c818d87b63d06a65506943cc24bca4)
REM
REM compiler GCC version 9.2.1 20190827 (Red Hat 9.2.1-1)
REM options -cpp -mtune=generic -march=x86-64 -g -O0 -fpre-include=/usr/include/finclude/math-vector-fortran.h
REM seed 349236936 1613762231 -1625850086 400156535 2043600853 -883383840 1135107574 -560208871 -472795997 1903277599 -309951093 2129566599 -1068793226 -1307197041 -1182576159 -478089290 1271854808 798554902 -450611991 -90917555 -1975757311 666428662 -951745422 569162341 1721816002 -137328351 -1520631475 -1466635552 -117849147 -1810594982 -421484907 -1696276902 -1254609720
REM
CELL 1.54180   50.00000   50.00000   50.00000   90.00000   90.00000   90.00000
LATT -1
SFAC C  
C      1  0.5873460000000  0.4487770000000  0.4895200000000 1.0
C      1  0.5124960000000  0.4085390000000  0.4913520000000 1.0
C      1  0.4313240000000  0.4300020000000  0.4873190000000 1.0
C      1  0.4062780000000  0.5094410000000  0.4951520000000 1.0
C      1  0.4476990000000  0.5802600000000  0.4843700000000 1.0
C      1  0.5296760000000  0.5872880000000  0.4822910000000 1.0
C      1  0.5891250000000  0.5319040000000  0.4860050000000 1.0
C      1  0.5364450000000  0.4706890000000  0.4083710000000 1.0
C      1  0.5082200000000  0.4648530000000  0.4092990000000 1.0
C      1  0.4663210000000  0.4900080000000  0.4118920000000 1.0
C      1  0.4562540000000  0.5166620000000  0.4180840000000 1.0
C      1  0.4687720000000  0.5370690000000  0.4037250000000 1.0
C      1  0.5198960000000  0.5196480000000  0.4045190000000 1.0
C      1  0.5420390000000  0.4998070000000  0.4077230000000 1.0
C      1  0.5167410000000  0.4713810000000  0.4598400000000 1.0
C      1  0.4825320000000  0.4826230000000  0.4572980000000 1.0
C      1  0.4655420000000  0.5005210000000  0.4770240000000 1.0
C      1  0.4735070000000  0.5327640000000  0.4791910000000 1.0
C      1  0.5046910000000  0.5346920000000  0.4851420000000 1.0
C      1  0.5321350000000  0.5033540000000  0.4503690000000 1.0
C      1  0.5421040000000  0.4868630000000  0.4792260000000 1.0
C      1  0.4549560000000  0.5609810000000  0.5236060000000 1.0
C      1  0.5163760000000  0.5698220000000  0.5234190000000 1.0
C      1  0.5662660000000  0.5318560000000  0.5266760000000 1.0
C      1  0.5639360000000  0.4704250000000  0.5237950000000 1.0
C      1  0.5220640000000  0.3974390000000  0.5334660000000 1.0
C      1  0.4391500000000  0.4252730000000  0.5309110000000 1.0
C      1  0.3989210000000  0.5011640000000  0.5379510000000 1.0
C      1  0.4215260000000  0.5348490000000  0.5581080000000 1.0
C      1  0.4785250000000  0.5823830000000  0.5546770000000 1.0
C      1  0.5492070000000  0.5668770000000  0.5534850000000 1.0
C      1  0.5799630000000  0.5020010000000  0.5571150000000 1.0
C      1  0.5500310000000  0.4357430000000  0.5507460000000 1.0
C      1  0.4845060000000  0.4191810000000  0.5475100000000 1.0
C      1  0.4312890000000  0.4665300000000  0.5480250000000 1.0
C      1  0.4487070000000  0.4341600000000  0.4646500000000 1.0
C      1  0.4216820000000  0.5002320000000  0.4737270000000 1.0
C      1  0.4458590000000  0.5626670000000  0.4619550000000 1.0
C      1  0.5172580000000  0.5789420000000  0.4571280000000 1.0
C      1  0.5763460000000  0.5347080000000  0.4601520000000 1.0
C      1  0.5837830000000  0.4611960000000  0.4627130000000 1.0
C      1  0.5203740000000  0.4235470000000  0.4688690000000 1.0
C      1  0.5406210000000  0.4878080000000  0.5120400000000 1.0
C      1  0.5139550000000  0.4741460000000  0.5190110000000 1.0
C      1  0.4685900000000  0.4905520000000  0.5062210000000 1.0
C      1  0.4600890000000  0.5116060000000  0.5245770000000 1.0
C      1  0.4716070000000  0.5367340000000  0.5130980000000 1.0
C      1  0.5106330000000  0.5394300000000  0.5148640000000 1.0
C      1  0.5368730000000  0.5178370000000  0.5252150000000 1.0
C      1  0.4569490000000  0.4590020000000  0.5593730000000 1.0
C      1  0.4362780000000  0.5109770000000  0.5672020000000 1.0
C      1  0.4664230000000  0.5575590000000  0.5661520000000 1.0
C      1  0.5227630000000  0.5609260000000  0.5663610000000 1.0
C      1  0.5587320000000  0.5201950000000  0.5694460000000 1.0
C      1  0.5490470000000  0.4626130000000  0.5695030000000 1.0
C      1  0.5058080000000  0.4356220000000  0.5561500000000 1.0
C      1  0.5516430000000  0.4554290000000  0.4260900000000 1.0
C      1  0.5008100000000  0.4457650000000  0.4287330000000 1.0
C      1  0.4575930000000  0.4693170000000  0.4303820000000 1.0
C      1  0.4535100000000  0.5220750000000  0.4473840000000 1.0
C      1  0.4850270000000  0.5502020000000  0.4222920000000 1.0
C      1  0.5130900000000  0.5412990000000  0.4238680000000 1.0
C      1  0.5641570000000  0.5066720000000  0.4231090000000 1.0
C      1  0.5078940000000  0.5893090000000  0.5023250000000 1.0
C      1  0.5746410000000  0.5496310000000  0.5041010000000 1.0
C      1  0.5888810000000  0.4721820000000  0.5077040000000 1.0
C      1  0.5352050000000  0.4049780000000  0.5088870000000 1.0
C      1  0.4450230000000  0.4129800000000  0.5059410000000 1.0
C      1  0.4008820000000  0.4870840000000  0.5127490000000 1.0
C      1  0.4324020000000  0.5663800000000  0.5055250000000 1.0
C      1  0.5282570000000  0.4171000000000  0.5560500000000 1.0
C      1  0.4626370000000  0.4357350000000  0.5431000000000 1.0
C      1  0.4178620000000  0.4899310000000  0.5575930000000 1.0
C      1  0.4386320000000  0.5576120000000  0.5573960000000 1.0
C      1  0.5066700000000  0.5831330000000  0.5578230000000 1.0
C      1  0.5678530000000  0.5445940000000  0.5542340000000 1.0
C      1  0.5704770000000  0.4749500000000  0.5527280000000 1.0
C      1  0.5755910000000  0.5090770000000  0.4481720000000 1.0
C      1  0.5570880000000  0.4542650000000  0.4533310000000 1.0
C      1  0.4982450000000  0.4320510000000  0.4530770000000 1.0
C      1  0.4444200000000  0.4605160000000  0.4542800000000 1.0
C      1  0.4257530000000  0.5203980000000  0.4544550000000 1.0
C      1  0.4720150000000  0.5617130000000  0.4464650000000 1.0
C      1  0.5307520000000  0.5567690000000  0.4427460000000 1.0
C      1  0.5867850000000  0.5107880000000  0.5292040000000 1.0
C      1  0.5529100000000  0.4433440000000  0.5220220000000 1.0
C      1  0.4929730000000  0.3984080000000  0.5296930000000 1.0
C      1  0.4194130000000  0.4464960000000  0.5310840000000 1.0
C      1  0.4046670000000  0.5294280000000  0.5347720000000 1.0
C      1  0.4711290000000  0.5852520000000  0.5265310000000 1.0
C      1  0.5451420000000  0.5742000000000  0.5254890000000 1.0
C      1  0.5535200000000  0.5675430000000  0.4880660000000 1.0
C      1  0.5951080000000  0.4998500000000  0.4932470000000 1.0
C      1  0.5626020000000  0.4291930000000  0.4965670000000 1.0
C      1  0.4816040000000  0.4077600000000  0.4937830000000 1.0
C      1  0.4158960000000  0.4561670000000  0.4938760000000 1.0
C      1  0.4123220000000  0.5411810000000  0.4991000000000 1.0
C      1  0.4788410000000  0.5879450000000  0.4885760000000 1.0
C      1  0.4780810000000  0.4806060000000  0.5623870000000 1.0
C      1  0.4647480000000  0.5086400000000  0.5546150000000 1.0
C      1  0.4818600000000  0.5324920000000  0.5628840000000 1.0
C      1  0.5113310000000  0.5338900000000  0.5635160000000 1.0
C      1  0.5317850000000  0.5126040000000  0.5565660000000 1.0
C      1  0.5236870000000  0.4818050000000  0.5668010000000 1.0
C      1  0.5065620000000  0.4657800000000  0.5467700000000 1.0
C      1  0.4751090000000  0.4226170000000  0.4679750000000 1.0
C      1  0.4227420000000  0.4722090000000  0.4694110000000 1.0
C      1  0.4220010000000  0.5456150000000  0.4676600000000 1.0
C      1  0.4885130000000  0.5802010000000  0.4607110000000 1.0
C      1  0.5534150000000  0.5523740000000  0.4616630000000 1.0
C      1  0.5906930000000  0.4899380000000  0.4641650000000 1.0
C      1  0.5469170000000  0.4338120000000  0.4707720000000 1.0
C      1  0.4969810000000  0.4939430000000  0.5075670000000 1.0
C      1  0.4990550000000  0.4834160000000  0.5866450000000 1.0
C      1  0.5084220000000  0.5058720000000  0.4829690000000 1.0
C      1  0.4976190000000  0.4670880000000  0.6074040000000 1.0
C      1  0.4962950000000  0.4920500000000  0.4108450000000 1.0
C      1  0.5009780000000  0.5015780000000  0.4400000000000 1.0
END
