TITL C-3578195-8548-334 3.58390009248979e-06 125000 -1067.92787802343 0 0 170 (C1) n - 1
REM
REM in /home/bkarasulu/work/CARBON/AIRSS/Generating-Clusters/EDIP-Nigel-Params/with-SteepDescent/Higher-Symm/SD-CG/HFTN-CG
REM
REM
REM
REM
REM
REM ./C.cell (12c818d87b63d06a65506943cc24bca4)
REM
REM compiler GCC version 9.2.1 20190827 (Red Hat 9.2.1-1)
REM options -cpp -mtune=generic -march=x86-64 -g -O0 -fpre-include=/usr/include/finclude/math-vector-fortran.h
REM seed 1358743907 1928078451 -1600807383 -2038766611 1924795787 -1094078945 1844042452 684244906 573138009 16933481 393329608 2145006613 -1940025394 -1321570693 769986489 -2129813626 1567010641 957989547 -1757195279 -263313161 -552214121 -1309643295 2100260881 1905276608 1506453654 2028697607 271065734 -608393837 -117034939 982011006 -921742601 -893293159 -112984218
REM
CELL 1.54180   50.00000   50.00000   50.00000   90.00000   90.00000   90.00000
LATT -1
SFAC C  
C      1  0.5347610000000  0.5321680000000  0.6043320000000 1.0
C      1  0.5714550000000  0.5213830000000  0.5696910000000 1.0
C      1  0.5886350000000  0.5094930000000  0.5229250000000 1.0
C      1  0.5963940000000  0.5325960000000  0.4537580000000 1.0
C      1  0.5618210000000  0.5324400000000  0.4149070000000 1.0
C      1  0.5113100000000  0.5268850000000  0.3970350000000 1.0
C      1  0.4610880000000  0.5182490000000  0.4047190000000 1.0
C      1  0.4260790000000  0.5089140000000  0.4398780000000 1.0
C      1  0.3952380000000  0.5166170000000  0.5036590000000 1.0
C      1  0.4116630000000  0.5156930000000  0.5672780000000 1.0
C      1  0.4693160000000  0.5181860000000  0.6050880000000 1.0
C      1  0.4804280000000  0.5622560000000  0.4181870000000 1.0
C      1  0.4344360000000  0.5572410000000  0.4382430000000 1.0
C      1  0.4102720000000  0.5611870000000  0.4955500000000 1.0
C      1  0.4200810000000  0.5646460000000  0.5489450000000 1.0
C      1  0.4602260000000  0.5666320000000  0.5854440000000 1.0
C      1  0.5093410000000  0.5738820000000  0.5968290000000 1.0
C      1  0.5558610000000  0.5699710000000  0.5784600000000 1.0
C      1  0.5828320000000  0.5595740000000  0.5360700000000 1.0
C      1  0.5939830000000  0.5704370000000  0.4851660000000 1.0
C      1  0.5728600000000  0.5759480000000  0.4403920000000 1.0
C      1  0.5287500000000  0.5701320000000  0.4177140000000 1.0
C      1  0.4240920000000  0.5168950000000  0.4680710000000 1.0
C      1  0.4190090000000  0.5098180000000  0.5212240000000 1.0
C      1  0.4406500000000  0.5135590000000  0.5733190000000 1.0
C      1  0.4907340000000  0.5134960000000  0.5839820000000 1.0
C      1  0.5266540000000  0.5084380000000  0.5531920000000 1.0
C      1  0.5453630000000  0.5078910000000  0.5299900000000 1.0
C      1  0.5733880000000  0.5120890000000  0.4957920000000 1.0
C      1  0.5576360000000  0.5044550000000  0.4528620000000 1.0
C      1  0.5202680000000  0.4983930000000  0.4298390000000 1.0
C      1  0.4826900000000  0.5126430000000  0.4423320000000 1.0
C      1  0.4609870000000  0.5327600000000  0.4524160000000 1.0
C      1  0.4475120000000  0.4707610000000  0.4170020000000 1.0
C      1  0.4283210000000  0.4639810000000  0.4614740000000 1.0
C      1  0.4134340000000  0.4749830000000  0.4869230000000 1.0
C      1  0.4098680000000  0.4668230000000  0.5495840000000 1.0
C      1  0.4581330000000  0.4687190000000  0.5971330000000 1.0
C      1  0.5295680000000  0.4838120000000  0.6011820000000 1.0
C      1  0.5687700000000  0.4647800000000  0.5702980000000 1.0
C      1  0.5620960000000  0.4660420000000  0.5116910000000 1.0
C      1  0.5965240000000  0.4818440000000  0.4583410000000 1.0
C      1  0.5482690000000  0.4843420000000  0.4049720000000 1.0
C      1  0.4926650000000  0.4781250000000  0.3976060000000 1.0
C      1  0.4929020000000  0.5853990000000  0.5515900000000 1.0
C      1  0.5216370000000  0.5967680000000  0.5547950000000 1.0
C      1  0.5463810000000  0.5937120000000  0.5367240000000 1.0
C      1  0.5551770000000  0.5891650000000  0.5084890000000 1.0
C      1  0.5531090000000  0.5982420000000  0.4800000000000 1.0
C      1  0.5311110000000  0.5959160000000  0.4590680000000 1.0
C      1  0.5008770000000  0.5889750000000  0.4544960000000 1.0
C      1  0.4702840000000  0.5854900000000  0.4599710000000 1.0
C      1  0.4552790000000  0.5723930000000  0.4826750000000 1.0
C      1  0.4522490000000  0.5803970000000  0.5120090000000 1.0
C      1  0.4649880000000  0.5845480000000  0.5393450000000 1.0
C      1  0.5631460000000  0.5039810000000  0.4222060000000 1.0
C      1  0.5161280000000  0.4965960000000  0.3974670000000 1.0
C      1  0.4677920000000  0.4895950000000  0.4077190000000 1.0
C      1  0.4287650000000  0.4806190000000  0.4365050000000 1.0
C      1  0.3996590000000  0.5015590000000  0.4794750000000 1.0
C      1  0.4073560000000  0.4964640000000  0.5455080000000 1.0
C      1  0.4493210000000  0.4968250000000  0.5991890000000 1.0
C      1  0.5186370000000  0.5088460000000  0.5964730000000 1.0
C      1  0.5588210000000  0.4939010000000  0.5700520000000 1.0
C      1  0.5688080000000  0.4877610000000  0.5328750000000 1.0
C      1  0.5847650000000  0.5072660000000  0.4658070000000 1.0
C      1  0.5548700000000  0.5408900000000  0.5844620000000 1.0
C      1  0.5810030000000  0.5305900000000  0.5429840000000 1.0
C      1  0.6078920000000  0.5494840000000  0.4728210000000 1.0
C      1  0.5768350000000  0.5468060000000  0.4364030000000 1.0
C      1  0.5343850000000  0.5429420000000  0.4078280000000 1.0
C      1  0.4841630000000  0.5362020000000  0.4048330000000 1.0
C      1  0.4373800000000  0.5290190000000  0.4216000000000 1.0
C      1  0.3896610000000  0.5433150000000  0.4987590000000 1.0
C      1  0.4071560000000  0.5425060000000  0.5603720000000 1.0
C      1  0.4564300000000  0.5430800000000  0.6004110000000 1.0
C      1  0.5186670000000  0.5532980000000  0.6129160000000 1.0
C      1  0.5223350000000  0.4245480000000  0.4739170000000 1.0
C      1  0.5028420000000  0.4347520000000  0.4589740000000 1.0
C      1  0.4775200000000  0.4435280000000  0.4559240000000 1.0
C      1  0.4583410000000  0.4581630000000  0.4715240000000 1.0
C      1  0.4591730000000  0.4468580000000  0.4989370000000 1.0
C      1  0.4560170000000  0.4676260000000  0.5184650000000 1.0
C      1  0.4721560000000  0.4632430000000  0.5430830000000 1.0
C      1  0.4939030000000  0.4462510000000  0.5399040000000 1.0
C      1  0.5197720000000  0.4500970000000  0.5336500000000 1.0
C      1  0.5415220000000  0.4447760000000  0.5176280000000 1.0
C      1  0.5355390000000  0.4278700000000  0.4966940000000 1.0
C      1  0.5289110000000  0.4104640000000  0.4082480000000 1.0
C      1  0.4812320000000  0.4029890000000  0.4134250000000 1.0
C      1  0.4406460000000  0.3971110000000  0.4427800000000 1.0
C      1  0.4162460000000  0.4012480000000  0.4876340000000 1.0
C      1  0.4153900000000  0.4171870000000  0.5358800000000 1.0
C      1  0.4469570000000  0.4230270000000  0.5778330000000 1.0
C      1  0.4987090000000  0.4186170000000  0.5882110000000 1.0
C      1  0.5466260000000  0.4181900000000  0.5708790000000 1.0
C      1  0.5822060000000  0.4122960000000  0.5305810000000 1.0
C      1  0.5867450000000  0.4108150000000  0.4804720000000 1.0
C      1  0.5695250000000  0.4139800000000  0.4343960000000 1.0
C      1  0.4077650000000  0.4278390000000  0.4808370000000 1.0
C      1  0.4089850000000  0.4450490000000  0.5290200000000 1.0
C      1  0.4392480000000  0.4493850000000  0.5868960000000 1.0
C      1  0.5026080000000  0.4447410000000  0.5989140000000 1.0
C      1  0.5482430000000  0.4461330000000  0.5783870000000 1.0
C      1  0.5944300000000  0.4389330000000  0.5303260000000 1.0
C      1  0.5897630000000  0.4393390000000  0.4792870000000 1.0
C      1  0.5709190000000  0.4430590000000  0.4322310000000 1.0
C      1  0.5265310000000  0.4390440000000  0.4048800000000 1.0
C      1  0.4765260000000  0.4310980000000  0.4082310000000 1.0
C      1  0.4353590000000  0.4247450000000  0.4373220000000 1.0
C      1  0.4627600000000  0.5329490000000  0.5466990000000 1.0
C      1  0.4909130000000  0.5385040000000  0.5637920000000 1.0
C      1  0.5169320000000  0.5360400000000  0.5487210000000 1.0
C      1  0.5221990000000  0.5443610000000  0.5209980000000 1.0
C      1  0.5445720000000  0.5279660000000  0.4958590000000 1.0
C      1  0.5396520000000  0.5266830000000  0.4650410000000 1.0
C      1  0.5166870000000  0.5302890000000  0.4452280000000 1.0
C      1  0.4907260000000  0.5470960000000  0.4586240000000 1.0
C      1  0.4885100000000  0.5372730000000  0.4886070000000 1.0
C      1  0.4594880000000  0.5302300000000  0.4957190000000 1.0
C      1  0.4431720000000  0.5348200000000  0.5209320000000 1.0
C      1  0.5155880000000  0.4765510000000  0.4522400000000 1.0
C      1  0.4936900000000  0.4949320000000  0.4653820000000 1.0
C      1  0.4679760000000  0.4853520000000  0.4738830000000 1.0
C      1  0.4484430000000  0.5050830000000  0.4846970000000 1.0
C      1  0.4347620000000  0.4880690000000  0.5061280000000 1.0
C      1  0.4577340000000  0.5044670000000  0.5501230000000 1.0
C      1  0.4813810000000  0.4885910000000  0.5583160000000 1.0
C      1  0.5061610000000  0.4913980000000  0.5405760000000 1.0
C      1  0.5192880000000  0.4941520000000  0.5075090000000 1.0
C      1  0.5466060000000  0.4844630000000  0.4927430000000 1.0
C      1  0.5437630000000  0.4787460000000  0.4630860000000 1.0
C      1  0.4522070000000  0.4419000000000  0.4196160000000 1.0
C      1  0.4166660000000  0.4382790000000  0.4549990000000 1.0
C      1  0.4023540000000  0.4498560000000  0.5006160000000 1.0
C      1  0.4157960000000  0.4590710000000  0.5755890000000 1.0
C      1  0.4812860000000  0.4592880000000  0.6093560000000 1.0
C      1  0.5277970000000  0.4572590000000  0.5949320000000 1.0
C      1  0.5884040000000  0.4543710000000  0.5532490000000 1.0
C      1  0.5898090000000  0.4542980000000  0.5046470000000 1.0
C      1  0.5875090000000  0.4552470000000  0.4546450000000 1.0
C      1  0.5500570000000  0.4553870000000  0.4133300000000 1.0
C      1  0.4987760000000  0.4496310000000  0.4022390000000 1.0
C      1  0.5809870000000  0.3999850000000  0.4556410000000 1.0
C      1  0.5532250000000  0.4005820000000  0.4166270000000 1.0
C      1  0.5065760000000  0.3940480000000  0.4069520000000 1.0
C      1  0.4624080000000  0.3878930000000  0.4278280000000 1.0
C      1  0.4297260000000  0.3873360000000  0.4669640000000 1.0
C      1  0.4163470000000  0.3980910000000  0.5153720000000 1.0
C      1  0.4292940000000  0.4119010000000  0.5594330000000 1.0
C      1  0.4720290000000  0.4119010000000  0.5834570000000 1.0
C      1  0.5215690000000  0.4068670000000  0.5767190000000 1.0
C      1  0.5648320000000  0.4073760000000  0.5523670000000 1.0
C      1  0.5827310000000  0.3991620000000  0.5056400000000 1.0
C      1  0.5028340000000  0.5765890000000  0.4278140000000 1.0
C      1  0.4590870000000  0.5731720000000  0.4350400000000 1.0
C      1  0.4306410000000  0.5551670000000  0.4733020000000 1.0
C      1  0.4290110000000  0.5621400000000  0.5194100000000 1.0
C      1  0.4469730000000  0.5721050000000  0.5593340000000 1.0
C      1  0.4887230000000  0.5673710000000  0.5760040000000 1.0
C      1  0.5311390000000  0.5870940000000  0.5819760000000 1.0
C      1  0.5661060000000  0.5779190000000  0.5521950000000 1.0
C      1  0.5777450000000  0.5705570000000  0.5092700000000 1.0
C      1  0.5782470000000  0.5874050000000  0.4672040000000 1.0
C      1  0.5458470000000  0.5860400000000  0.4350550000000 1.0
C      1  0.5000540000000  0.5562520000000  0.5078670000000 1.0
C      1  0.5045330000000  0.5116220000000  0.4874660000000 1.0
C      1  0.4731700000000  0.4236910000000  0.5048950000000 1.0
C      1  0.4801010000000  0.3990650000000  0.5076080000000 1.0
C      1  0.4963070000000  0.5827210000000  0.5077230000000 1.0
END
