TITL C-3578201-9217-538 -6.14771365796546e-08 125000 -208.768197611821 0 0 36 (C3) n - 1
REM
REM in /home/bkarasulu/work/CARBON/AIRSS/Generating-Clusters/EDIP-Nigel-Params/with-SteepDescent/Higher-Symm/SD-CG/HFTN-CG
REM
REM
REM
REM
REM
REM ./C.cell (12c818d87b63d06a65506943cc24bca4)
REM
REM compiler GCC version 9.2.1 20190827 (Red Hat 9.2.1-1)
REM options -cpp -mtune=generic -march=x86-64 -g -O0 -fpre-include=/usr/include/finclude/math-vector-fortran.h
REM seed 385619787 1363049884 -1968213474 -945589466 -1314545593 452137088 -39237746 -1790758189 -1458499786 1000479077 1389906898 -742923420 1132366696 -831309653 1734633243 49541802 -1416560487 -432994598 -1634798477 173437791 -1017711667 -136044270 -1222439384 -1320015898 -2141174920 -1227458321 -742774041 161441465 2093365888 1094002215 -299029312 -458898392 -292702095
REM
CELL 1.54180   50.00000   50.00000   50.00000   90.00000   90.00000   90.00000
LATT -1
SFAC C  
C      1  0.5226880000000  0.5201640000000  0.4641410000000 1.0
C      1  0.5198860000000  0.5188490000000  0.5381630000000 1.0
C      1  0.4571720000000  0.5192690000000  0.4987210000000 1.0
C      1  0.4716370000000  0.4980420000000  0.5411420000000 1.0
C      1  0.4785350000000  0.4995910000000  0.4548330000000 1.0
C      1  0.5498430000000  0.4990380000000  0.5039660000000 1.0
C      1  0.4664640000000  0.5212030000000  0.5266790000000 1.0
C      1  0.4938470000000  0.5225250000000  0.4582780000000 1.0
C      1  0.5394030000000  0.5217060000000  0.5161940000000 1.0
C      1  0.4808560000000  0.4653950000000  0.5132000000000 1.0
C      1  0.4978400000000  0.4661270000000  0.4757880000000 1.0
C      1  0.5217540000000  0.4656440000000  0.5092030000000 1.0
C      1  0.4654930000000  0.5599050000000  0.4729980000000 1.0
C      1  0.5411550000000  0.5600170000000  0.4854200000000 1.0
C      1  0.4925700000000  0.5587610000000  0.5447240000000 1.0
C      1  0.5213780000000  0.4493300000000  0.4634560000000 1.0
C      1  0.5205190000000  0.4480640000000  0.5352360000000 1.0
C      1  0.4587760000000  0.4484380000000  0.4985970000000 1.0
C      1  0.4694330000000  0.4556310000000  0.4714540000000 1.0
C      1  0.5396180000000  0.4556730000000  0.4864580000000 1.0
C      1  0.4915350000000  0.4545260000000  0.5397280000000 1.0
C      1  0.4468780000000  0.5440160000000  0.4859910000000 1.0
C      1  0.5390730000000  0.5448350000000  0.4623350000000 1.0
C      1  0.5134720000000  0.5431110000000  0.5539960000000 1.0
C      1  0.4849640000000  0.5398210000000  0.4801990000000 1.0
C      1  0.5250110000000  0.5396810000000  0.4980740000000 1.0
C      1  0.4895070000000  0.5390730000000  0.5238120000000 1.0
C      1  0.5359640000000  0.4710510000000  0.5450240000000 1.0
C      1  0.4427770000000  0.4712990000000  0.5077730000000 1.0
C      1  0.5216300000000  0.4727350000000  0.4457100000000 1.0
C      1  0.5368430000000  0.4941360000000  0.4576820000000 1.0
C      1  0.5181760000000  0.4923800000000  0.5528600000000 1.0
C      1  0.4450700000000  0.4931820000000  0.4891010000000 1.0
C      1  0.4583900000000  0.4826920000000  0.4647830000000 1.0
C      1  0.5511510000000  0.4828120000000  0.4810460000000 1.0
C      1  0.4906910000000  0.4812780000000  0.5532350000000 1.0
END
