TITL C-3578198-8939-413 -8.52408531487603e-07 125000 -118.999176843199 0 0 20 (D5h) n - 1
REM
REM in /home/bkarasulu/work/CARBON/AIRSS/Generating-Clusters/EDIP-Nigel-Params/with-SteepDescent/Higher-Symm/SD-CG/HFTN-CG
REM
REM
REM
REM
REM
REM ./C.cell (12c818d87b63d06a65506943cc24bca4)
REM
REM compiler GCC version 9.2.1 20190827 (Red Hat 9.2.1-1)
REM options -cpp -mtune=generic -march=x86-64 -g -O0 -fpre-include=/usr/include/finclude/math-vector-fortran.h
REM seed -791648529 1738020478 1589454675 -331134509 -1599525432 -821000771 -204207567 -473667034 -1735422331 -647897061 744262649 -918758759 -938984402 629059514 1498504289 122899166 511459787 854525449 -788889350 136416433 169067385 -425601566 163248270 -1849933331 -1349070849 815332023 -1524300384 -329638765 -245021135 -1959381927 1425183517 -1504507317 -1658939118
REM
CELL 1.54180   50.00000   50.00000   50.00000   90.00000   90.00000   90.00000
LATT -1
SFAC C  
C      1  0.5202230000000  0.4850480000000  0.5295560000000 1.0
C      1  0.5204700000000  0.5146130000000  0.5295560000000 1.0
C      1  0.4924280000000  0.5239840000000  0.5295560000000 1.0
C      1  0.4748500000000  0.5002100000000  0.5295560000000 1.0
C      1  0.4920290000000  0.4761460000000  0.5295560000000 1.0
C      1  0.5202230000000  0.4850480000000  0.4704440000000 1.0
C      1  0.5204700000000  0.5146130000000  0.4704440000000 1.0
C      1  0.4924280000000  0.5239840000000  0.4704440000000 1.0
C      1  0.4748500000000  0.5002100000000  0.4704440000000 1.0
C      1  0.4920290000000  0.4761460000000  0.4704440000000 1.0
C      1  0.4854410000000  0.5461130000000  0.4864640000000 1.0
C      1  0.4516450000000  0.5004040000000  0.4864640000000 1.0
C      1  0.4846740000000  0.4541370000000  0.4864640000000 1.0
C      1  0.5388830000000  0.4712510000000  0.4864640000000 1.0
C      1  0.5393570000000  0.5280960000000  0.4864640000000 1.0
C      1  0.4854410000000  0.5461130000000  0.5135360000000 1.0
C      1  0.4516450000000  0.5004040000000  0.5135360000000 1.0
C      1  0.4846740000000  0.4541370000000  0.5135360000000 1.0
C      1  0.5388830000000  0.4712510000000  0.5135360000000 1.0
C      1  0.5393570000000  0.5280960000000  0.5135360000000 1.0
END
