TITL C-3577082-504-433 2.11068804980041e-06 125000 -1027.6943541464 0 0 164 (C1) n - 1
REM
REM in /home/bkarasulu/work/CARBON/AIRSS/Generating-Clusters/EDIP-Nigel-Params/with-SteepDescent/Higher-Symm/SD-CG/HFTN-CG
REM
REM
REM
REM
REM
REM ./C.cell (12c818d87b63d06a65506943cc24bca4)
REM
REM compiler GCC version 9.2.1 20190827 (Red Hat 9.2.1-1)
REM options -cpp -mtune=generic -march=x86-64 -g -O0 -fpre-include=/usr/include/finclude/math-vector-fortran.h
REM seed -1481808746 -725844502 -840732864 2070692821 2025059556 -2065197121 -786690250 797004676 -1817805648 1395565733 1179500217 -1423071745 1493823985 -1912124946 1550923051 219851401 1267234192 -2129073761 964547668 -1680299191 803904042 1141324431 1519864600 -1945921977 151306003 120211642 -1283611200 891967081 -440318888 432833018 1970786105 60852335 1373544240
REM
CELL 1.54180   50.00000   50.00000   50.00000   90.00000   90.00000   90.00000
LATT -1
SFAC C  
C      1  0.5676470000000  0.5482090000000  0.4532970000000 1.0
C      1  0.5446940000000  0.4325020000000  0.4558330000000 1.0
C      1  0.4329750000000  0.4555760000000  0.4548060000000 1.0
C      1  0.4529060000000  0.5685740000000  0.4565410000000 1.0
C      1  0.4701060000000  0.5210930000000  0.4526700000000 1.0
C      1  0.5200130000000  0.5292740000000  0.4535300000000 1.0
C      1  0.5298900000000  0.4796340000000  0.4503760000000 1.0
C      1  0.4801200000000  0.4717100000000  0.4502990000000 1.0
C      1  0.5316600000000  0.4799300000000  0.6105840000000 1.0
C      1  0.4789530000000  0.4699730000000  0.6096060000000 1.0
C      1  0.4680680000000  0.5243450000000  0.6042920000000 1.0
C      1  0.5200910000000  0.5349020000000  0.6065290000000 1.0
C      1  0.5975570000000  0.4910290000000  0.4566860000000 1.0
C      1  0.4923230000000  0.4029070000000  0.4608230000000 1.0
C      1  0.4008460000000  0.5071630000000  0.4604590000000 1.0
C      1  0.5071410000000  0.5958020000000  0.4653280000000 1.0
C      1  0.4928220000000  0.5376940000000  0.5922250000000 1.0
C      1  0.5356070000000  0.5084930000000  0.5986620000000 1.0
C      1  0.5074040000000  0.4646650000000  0.5988150000000 1.0
C      1  0.4644600000000  0.4945260000000  0.5963860000000 1.0
C      1  0.5424580000000  0.5031650000000  0.5478340000000 1.0
C      1  0.5073410000000  0.4599860000000  0.5456420000000 1.0
C      1  0.4602910000000  0.4944990000000  0.5435800000000 1.0
C      1  0.5025500000000  0.5340610000000  0.5430030000000 1.0
C      1  0.3933970000000  0.5353370000000  0.4561080000000 1.0
C      1  0.5349160000000  0.6034590000000  0.4594640000000 1.0
C      1  0.6057010000000  0.4627810000000  0.4551500000000 1.0
C      1  0.4644370000000  0.3952910000000  0.4565010000000 1.0
C      1  0.5848350000000  0.5253780000000  0.5258640000000 1.0
C      1  0.5279960000000  0.4137770000000  0.5282640000000 1.0
C      1  0.4133600000000  0.4711030000000  0.5276590000000 1.0
C      1  0.4624850000000  0.5893470000000  0.5342570000000 1.0
C      1  0.5532400000000  0.4607290000000  0.4542690000000 1.0
C      1  0.4616200000000  0.4483590000000  0.4538690000000 1.0
C      1  0.4463010000000  0.5394530000000  0.4553810000000 1.0
C      1  0.5378620000000  0.5531350000000  0.4563290000000 1.0
C      1  0.5068230000000  0.5182570000000  0.5186600000000 1.0
C      1  0.5317930000000  0.5016410000000  0.5207980000000 1.0
C      1  0.5035050000000  0.4752310000000  0.5205370000000 1.0
C      1  0.4756150000000  0.4965100000000  0.5180430000000 1.0
C      1  0.5922210000000  0.4504790000000  0.4799270000000 1.0
C      1  0.4530190000000  0.4102610000000  0.4804680000000 1.0
C      1  0.4065830000000  0.5460170000000  0.4813590000000 1.0
C      1  0.5473150000000  0.5906060000000  0.4837360000000 1.0
C      1  0.4661160000000  0.4265960000000  0.4338430000000 1.0
C      1  0.4252950000000  0.5339410000000  0.4346780000000 1.0
C      1  0.5310530000000  0.5734670000000  0.4357520000000 1.0
C      1  0.5740770000000  0.4625200000000  0.4329450000000 1.0
C      1  0.5516550000000  0.5513110000000  0.5710140000000 1.0
C      1  0.5497230000000  0.4526790000000  0.5735000000000 1.0
C      1  0.4536140000000  0.4523120000000  0.5718920000000 1.0
C      1  0.4443850000000  0.5522580000000  0.5675320000000 1.0
C      1  0.4690750000000  0.4378700000000  0.4072420000000 1.0
C      1  0.4358420000000  0.5322100000000  0.4077290000000 1.0
C      1  0.5294850000000  0.5630330000000  0.4086510000000 1.0
C      1  0.5632940000000  0.4674700000000  0.4065350000000 1.0
C      1  0.5864780000000  0.4821440000000  0.5543120000000 1.0
C      1  0.4842170000000  0.4162970000000  0.5537910000000 1.0
C      1  0.4125160000000  0.5155950000000  0.5521380000000 1.0
C      1  0.5246680000000  0.5848340000000  0.5520370000000 1.0
C      1  0.5067670000000  0.4655520000000  0.4371200000000 1.0
C      1  0.4645970000000  0.4946220000000  0.4390660000000 1.0
C      1  0.4930570000000  0.5361450000000  0.4411940000000 1.0
C      1  0.5354030000000  0.5075760000000  0.4398750000000 1.0
C      1  0.4689120000000  0.6055670000000  0.4852180000000 1.0
C      1  0.6061900000000  0.5276360000000  0.4797740000000 1.0
C      1  0.5306100000000  0.3935490000000  0.4808180000000 1.0
C      1  0.3932880000000  0.4679650000000  0.4795420000000 1.0
C      1  0.4415080000000  0.5788940000000  0.5147720000000 1.0
C      1  0.5813960000000  0.5537200000000  0.5125910000000 1.0
C      1  0.5544510000000  0.4208020000000  0.5155350000000 1.0
C      1  0.4227790000000  0.4462790000000  0.5139050000000 1.0
C      1  0.6075940000000  0.5172580000000  0.4523670000000 1.0
C      1  0.5183620000000  0.3932070000000  0.4541040000000 1.0
C      1  0.3923870000000  0.4808760000000  0.4530960000000 1.0
C      1  0.4818570000000  0.6068590000000  0.4587670000000 1.0
C      1  0.5033990000000  0.4810430000000  0.4098150000000 1.0
C      1  0.4770010000000  0.4989890000000  0.4111900000000 1.0
C      1  0.4958860000000  0.5249270000000  0.4126800000000 1.0
C      1  0.5229130000000  0.5067700000000  0.4114370000000 1.0
C      1  0.5300110000000  0.4310080000000  0.5743290000000 1.0
C      1  0.4314550000000  0.4711720000000  0.5723110000000 1.0
C      1  0.4685910000000  0.5671350000000  0.5573390000000 1.0
C      1  0.5718970000000  0.5302300000000  0.5741190000000 1.0
C      1  0.4780210000000  0.5656650000000  0.4122070000000 1.0
C      1  0.5647660000000  0.5211270000000  0.4103200000000 1.0
C      1  0.5210410000000  0.4344980000000  0.4097950000000 1.0
C      1  0.4350280000000  0.4800660000000  0.4099790000000 1.0
C      1  0.4800790000000  0.5487500000000  0.5367700000000 1.0
C      1  0.5714910000000  0.5105930000000  0.5509690000000 1.0
C      1  0.5129710000000  0.4304240000000  0.5495570000000 1.0
C      1  0.4301910000000  0.4878880000000  0.5475910000000 1.0
C      1  0.4789830000000  0.5718460000000  0.4417630000000 1.0
C      1  0.5709980000000  0.5214290000000  0.4397160000000 1.0
C      1  0.5200110000000  0.4292830000000  0.4392070000000 1.0
C      1  0.4288730000000  0.4808310000000  0.4392820000000 1.0
C      1  0.4218570000000  0.5152170000000  0.5870200000000 1.0
C      1  0.5144090000000  0.5773170000000  0.5794690000000 1.0
C      1  0.5770530000000  0.4863520000000  0.5906960000000 1.0
C      1  0.4856240000000  0.4236930000000  0.5897820000000 1.0
C      1  0.5438540000000  0.4479770000000  0.4007850000000 1.0
C      1  0.4494540000000  0.4574020000000  0.4020020000000 1.0
C      1  0.4551980000000  0.5521260000000  0.4033860000000 1.0
C      1  0.5481070000000  0.5425200000000  0.4030880000000 1.0
C      1  0.4950800000000  0.4275460000000  0.4754350000000 1.0
C      1  0.4250670000000  0.5050870000000  0.4758350000000 1.0
C      1  0.5052340000000  0.5760330000000  0.4868620000000 1.0
C      1  0.5784910000000  0.4929840000000  0.4779980000000 1.0
C      1  0.5419840000000  0.4207300000000  0.4846170000000 1.0
C      1  0.4208270000000  0.4573730000000  0.4832930000000 1.0
C      1  0.4567390000000  0.5783780000000  0.4863950000000 1.0
C      1  0.5803420000000  0.5418930000000  0.4820030000000 1.0
C      1  0.6038030000000  0.5075300000000  0.5109270000000 1.0
C      1  0.5099740000000  0.3975210000000  0.5116230000000 1.0
C      1  0.3957830000000  0.4875750000000  0.5108170000000 1.0
C      1  0.4854320000000  0.6009760000000  0.5175850000000 1.0
C      1  0.5566080000000  0.5694840000000  0.5211470000000 1.0
C      1  0.5668330000000  0.4476240000000  0.5231610000000 1.0
C      1  0.4502800000000  0.4355730000000  0.5219870000000 1.0
C      1  0.4278950000000  0.5517690000000  0.5205570000000 1.0
C      1  0.5561760000000  0.4669860000000  0.5980330000000 1.0
C      1  0.4663340000000  0.4452660000000  0.5969450000000 1.0
C      1  0.4426730000000  0.5358940000000  0.5921960000000 1.0
C      1  0.5337970000000  0.5582310000000  0.5931930000000 1.0
C      1  0.4695410000000  0.4521320000000  0.5049160000000 1.0
C      1  0.4461050000000  0.5325090000000  0.5072100000000 1.0
C      1  0.5375080000000  0.5489790000000  0.5097020000000 1.0
C      1  0.5512610000000  0.4665310000000  0.5053280000000 1.0
C      1  0.4829180000000  0.3992530000000  0.5258640000000 1.0
C      1  0.3950820000000  0.5146910000000  0.5243930000000 1.0
C      1  0.5149580000000  0.5959450000000  0.5254990000000 1.0
C      1  0.6025740000000  0.4807030000000  0.5259040000000 1.0
C      1  0.4874450000000  0.5663020000000  0.5820100000000 1.0
C      1  0.5656800000000  0.5124000000000  0.5962300000000 1.0
C      1  0.5116270000000  0.4347590000000  0.5965650000000 1.0
C      1  0.4345310000000  0.4899040000000  0.5940960000000 1.0
C      1  0.4257010000000  0.5427050000000  0.5483520000000 1.0
C      1  0.5512220000000  0.5724230000000  0.5506420000000 1.0
C      1  0.5685020000000  0.4574250000000  0.5518210000000 1.0
C      1  0.4594760000000  0.4339440000000  0.5505020000000 1.0
C      1  0.5220360000000  0.4638130000000  0.4996830000000 1.0
C      1  0.4628370000000  0.4796650000000  0.4978360000000 1.0
C      1  0.4749600000000  0.5384390000000  0.5088670000000 1.0
C      1  0.5500320000000  0.5222550000000  0.5086080000000 1.0
C      1  0.4806100000000  0.5605780000000  0.4898680000000 1.0
C      1  0.5630210000000  0.5166870000000  0.4832010000000 1.0
C      1  0.5176440000000  0.4360230000000  0.4913370000000 1.0
C      1  0.4347580000000  0.4822560000000  0.4905770000000 1.0
C      1  0.4961880000000  0.4446680000000  0.3993020000000 1.0
C      1  0.4416470000000  0.5054840000000  0.3975000000000 1.0
C      1  0.5026310000000  0.5598540000000  0.3980340000000 1.0
C      1  0.5576560000000  0.4952270000000  0.3989800000000 1.0
C      1  0.4330110000000  0.5316480000000  0.4809530000000 1.0
C      1  0.5321250000000  0.5640950000000  0.4843890000000 1.0
C      1  0.5668150000000  0.4671970000000  0.4802160000000 1.0
C      1  0.4687760000000  0.4361480000000  0.4798930000000 1.0
C      1  0.4986130000000  0.5202430000000  0.5677920000000 1.0
C      1  0.5236250000000  0.5023550000000  0.5708730000000 1.0
C      1  0.5050150000000  0.4763540000000  0.5703330000000 1.0
C      1  0.4778930000000  0.4955310000000  0.5682630000000 1.0
C      1  0.3944780000000  0.5406580000000  0.5084430000000 1.0
C      1  0.5397680000000  0.6019610000000  0.5097630000000 1.0
C      1  0.5957290000000  0.4531810000000  0.5117870000000 1.0
C      1  0.4558910000000  0.4064370000000  0.5114730000000 1.0
END
