TITL C-3578206-1180-409 -3.62868322120918e-06 125000 -1155.10597914523 0 0 185 (C1) n - 1
REM
REM in /home/bkarasulu/work/CARBON/AIRSS/Generating-Clusters/EDIP-Nigel-Params/with-SteepDescent/Higher-Symm/SD-CG/HFTN-CG
REM
REM
REM
REM
REM
REM ./C.cell (12c818d87b63d06a65506943cc24bca4)
REM
REM compiler GCC version 9.2.1 20190827 (Red Hat 9.2.1-1)
REM options -cpp -mtune=generic -march=x86-64 -g -O0 -fpre-include=/usr/include/finclude/math-vector-fortran.h
REM seed 350437767 -1031307624 -1160531548 345100006 1811759759 -1504751030 -1336468733 126123121 2065151997 991034856 -1704978873 -1629557535 330954118 -442879353 -963312645 1850771611 1389437560 -2135886877 -744047840 -1896403665 -225836147 -1150973517 1503937022 1110492110 1398432619 -852624327 1693030697 -1964744244 2033943364 1819849659 -786974917 -305551406 -439629824
REM
CELL 1.54180   50.00000   50.00000   50.00000   90.00000   90.00000   90.00000
LATT -1
SFAC C  
C      1  0.6058530000000  0.4806290000000  0.4218910000000 1.0
C      1  0.6118720000000  0.4935130000000  0.5319630000000 1.0
C      1  0.5499850000000  0.4815090000000  0.6223810000000 1.0
C      1  0.4429460000000  0.4910450000000  0.6111260000000 1.0
C      1  0.3835980000000  0.4954070000000  0.5234210000000 1.0
C      1  0.4025140000000  0.4892570000000  0.4142390000000 1.0
C      1  0.5052460000000  0.4993140000000  0.3800760000000 1.0
C      1  0.5089450000000  0.4274820000000  0.4615970000000 1.0
C      1  0.5281670000000  0.4157290000000  0.4812160000000 1.0
C      1  0.5376360000000  0.4283420000000  0.5271040000000 1.0
C      1  0.5111630000000  0.4171370000000  0.5395850000000 1.0
C      1  0.4622840000000  0.4059110000000  0.5288550000000 1.0
C      1  0.4657700000000  0.4259290000000  0.4894780000000 1.0
C      1  0.4789970000000  0.4172080000000  0.4568310000000 1.0
C      1  0.5229800000000  0.5180960000000  0.5420210000000 1.0
C      1  0.4829700000000  0.5344480000000  0.5508610000000 1.0
C      1  0.4369320000000  0.5356000000000  0.5228360000000 1.0
C      1  0.4420630000000  0.5360070000000  0.4751440000000 1.0
C      1  0.4880800000000  0.5225110000000  0.4380140000000 1.0
C      1  0.5530260000000  0.5114480000000  0.4578820000000 1.0
C      1  0.5453500000000  0.5190090000000  0.5004210000000 1.0
C      1  0.4337220000000  0.4918570000000  0.5849160000000 1.0
C      1  0.3906740000000  0.4919700000000  0.4966370000000 1.0
C      1  0.4273770000000  0.4894510000000  0.4023620000000 1.0
C      1  0.5315570000000  0.4960560000000  0.3878010000000 1.0
C      1  0.6045110000000  0.4838060000000  0.4497770000000 1.0
C      1  0.6007260000000  0.4886630000000  0.5571280000000 1.0
C      1  0.5226920000000  0.4855900000000  0.6176280000000 1.0
C      1  0.5223080000000  0.5234580000000  0.4281870000000 1.0
C      1  0.5777420000000  0.5248640000000  0.4451700000000 1.0
C      1  0.5498500000000  0.5190790000000  0.5294320000000 1.0
C      1  0.5335340000000  0.5218570000000  0.5885360000000 1.0
C      1  0.4662710000000  0.5312540000000  0.5756520000000 1.0
C      1  0.4186060000000  0.5358830000000  0.4961730000000 1.0
C      1  0.4323650000000  0.5249970000000  0.4478270000000 1.0
C      1  0.3956240000000  0.4899860000000  0.4410050000000 1.0
C      1  0.4799070000000  0.4929790000000  0.3895460000000 1.0
C      1  0.5805930000000  0.4867940000000  0.4123360000000 1.0
C      1  0.6108480000000  0.4904730000000  0.5040730000000 1.0
C      1  0.5713650000000  0.4811910000000  0.6049610000000 1.0
C      1  0.4704770000000  0.4901040000000  0.6097190000000 1.0
C      1  0.4078350000000  0.4942930000000  0.5374000000000 1.0
C      1  0.4579670000000  0.5592730000000  0.5812640000000 1.0
C      1  0.4075740000000  0.5621950000000  0.5039650000000 1.0
C      1  0.4328830000000  0.5518260000000  0.4344690000000 1.0
C      1  0.5151980000000  0.5508710000000  0.4173330000000 1.0
C      1  0.5773030000000  0.5549460000000  0.4504010000000 1.0
C      1  0.5646930000000  0.5450110000000  0.5308710000000 1.0
C      1  0.5314160000000  0.5519890000000  0.5806990000000 1.0
C      1  0.4047160000000  0.5143450000000  0.4544200000000 1.0
C      1  0.4654850000000  0.5109890000000  0.4088790000000 1.0
C      1  0.5706000000000  0.5138180000000  0.4168670000000 1.0
C      1  0.5935990000000  0.5101600000000  0.4887980000000 1.0
C      1  0.5650450000000  0.5006150000000  0.5837070000000 1.0
C      1  0.4845630000000  0.5135150000000  0.5986560000000 1.0
C      1  0.4274020000000  0.5160590000000  0.5437810000000 1.0
C      1  0.5645080000000  0.3946800000000  0.4959540000000 1.0
C      1  0.5402980000000  0.3791870000000  0.5351110000000 1.0
C      1  0.4946080000000  0.3739370000000  0.5515190000000 1.0
C      1  0.4533230000000  0.3627530000000  0.5274800000000 1.0
C      1  0.4599030000000  0.3828510000000  0.4831800000000 1.0
C      1  0.4913700000000  0.3696430000000  0.4498570000000 1.0
C      1  0.5384360000000  0.3717570000000  0.4615690000000 1.0
C      1  0.4525660000000  0.4986380000000  0.4373680000000 1.0
C      1  0.5162700000000  0.4906840000000  0.4286630000000 1.0
C      1  0.5640640000000  0.5005190000000  0.4865210000000 1.0
C      1  0.5617580000000  0.4926450000000  0.5364670000000 1.0
C      1  0.5224510000000  0.5019270000000  0.5664130000000 1.0
C      1  0.4613290000000  0.4873080000000  0.5423920000000 1.0
C      1  0.4435750000000  0.4892910000000  0.4892250000000 1.0
C      1  0.4438150000000  0.5743630000000  0.5589470000000 1.0
C      1  0.4029250000000  0.5809260000000  0.4820590000000 1.0
C      1  0.4597560000000  0.5648720000000  0.4350990000000 1.0
C      1  0.5379570000000  0.5695800000000  0.4214680000000 1.0
C      1  0.5856420000000  0.5659250000000  0.4762800000000 1.0
C      1  0.5750610000000  0.5625890000000  0.5523330000000 1.0
C      1  0.5073000000000  0.5687920000000  0.5737380000000 1.0
C      1  0.5266210000000  0.4388560000000  0.4395390000000 1.0
C      1  0.5614710000000  0.4327260000000  0.4914090000000 1.0
C      1  0.5561340000000  0.4357030000000  0.5490240000000 1.0
C      1  0.5035160000000  0.4326000000000  0.5656080000000 1.0
C      1  0.4443430000000  0.4288260000000  0.5394110000000 1.0
C      1  0.4388190000000  0.4350860000000  0.4784210000000 1.0
C      1  0.4701080000000  0.4293130000000  0.4291350000000 1.0
C      1  0.5756310000000  0.5939450000000  0.4818640000000 1.0
C      1  0.5772280000000  0.5895940000000  0.5394460000000 1.0
C      1  0.5171060000000  0.5940560000000  0.5614910000000 1.0
C      1  0.4572190000000  0.6002800000000  0.5642870000000 1.0
C      1  0.4169450000000  0.6056000000000  0.4894670000000 1.0
C      1  0.4564170000000  0.5902740000000  0.4498510000000 1.0
C      1  0.5254150000000  0.5947160000000  0.4189760000000 1.0
C      1  0.3977020000000  0.5169790000000  0.4829170000000 1.0
C      1  0.4391900000000  0.5144890000000  0.3964360000000 1.0
C      1  0.5427090000000  0.5178430000000  0.4056890000000 1.0
C      1  0.6010720000000  0.5115670000000  0.4598130000000 1.0
C      1  0.5899100000000  0.5099220000000  0.5723670000000 1.0
C      1  0.5137000000000  0.5130490000000  0.6087840000000 1.0
C      1  0.4409900000000  0.5155150000000  0.5694260000000 1.0
C      1  0.5461010000000  0.5945200000000  0.5615140000000 1.0
C      1  0.4734010000000  0.6008740000000  0.5877740000000 1.0
C      1  0.4295740000000  0.6025020000000  0.5152820000000 1.0
C      1  0.4279020000000  0.5950030000000  0.4542930000000 1.0
C      1  0.5004480000000  0.5902050000000  0.4317690000000 1.0
C      1  0.5503630000000  0.5934440000000  0.4651440000000 1.0
C      1  0.5667190000000  0.5897950000000  0.5120550000000 1.0
C      1  0.5466720000000  0.3951780000000  0.4737200000000 1.0
C      1  0.5514450000000  0.4011700000000  0.5211990000000 1.0
C      1  0.5173470000000  0.3892300000000  0.5472180000000 1.0
C      1  0.4674790000000  0.3787820000000  0.5476210000000 1.0
C      1  0.4487450000000  0.3846730000000  0.5085300000000 1.0
C      1  0.4737650000000  0.3881710000000  0.4598510000000 1.0
C      1  0.5166310000000  0.3615100000000  0.4503630000000 1.0
C      1  0.4909760000000  0.4568320000000  0.5303220000000 1.0
C      1  0.4755510000000  0.4542890000000  0.5048070000000 1.0
C      1  0.4770580000000  0.4682290000000  0.4588540000000 1.0
C      1  0.4978610000000  0.4529440000000  0.4753230000000 1.0
C      1  0.5226380000000  0.4682640000000  0.4792580000000 1.0
C      1  0.5330610000000  0.4616670000000  0.5085420000000 1.0
C      1  0.5135540000000  0.4740220000000  0.5270470000000 1.0
C      1  0.4337170000000  0.4815740000000  0.4611790000000 1.0
C      1  0.4859800000000  0.4788520000000  0.4312480000000 1.0
C      1  0.5460050000000  0.4849330000000  0.4399060000000 1.0
C      1  0.5595610000000  0.4761160000000  0.5114770000000 1.0
C      1  0.5484080000000  0.4848820000000  0.5625800000000 1.0
C      1  0.4891810000000  0.4866010000000  0.5697690000000 1.0
C      1  0.4520280000000  0.4715310000000  0.5134690000000 1.0
C      1  0.5620100000000  0.4656970000000  0.4104950000000 1.0
C      1  0.6019130000000  0.4633920000000  0.4961530000000 1.0
C      1  0.5739890000000  0.4566840000000  0.5884680000000 1.0
C      1  0.4816130000000  0.4656150000000  0.6016160000000 1.0
C      1  0.4161100000000  0.4676700000000  0.5451200000000 1.0
C      1  0.3993240000000  0.4657970000000  0.4555350000000 1.0
C      1  0.4711490000000  0.4650040000000  0.3924400000000 1.0
C      1  0.5549680000000  0.5691500000000  0.5736740000000 1.0
C      1  0.4822270000000  0.5740080000000  0.5897590000000 1.0
C      1  0.4233720000000  0.5748720000000  0.5273590000000 1.0
C      1  0.4139720000000  0.5703910000000  0.4467870000000 1.0
C      1  0.4876210000000  0.5640520000000  0.4223350000000 1.0
C      1  0.5498920000000  0.5661090000000  0.4492400000000 1.0
C      1  0.5616050000000  0.5604040000000  0.5055600000000 1.0
C      1  0.5329890000000  0.5612790000000  0.4939380000000 1.0
C      1  0.5086450000000  0.5536160000000  0.5111330000000 1.0
C      1  0.4896360000000  0.5619880000000  0.5334690000000 1.0
C      1  0.4629190000000  0.5672100000000  0.5176030000000 1.0
C      1  0.4670760000000  0.5598760000000  0.4878100000000 1.0
C      1  0.5044110000000  0.5485240000000  0.4602820000000 1.0
C      1  0.5343330000000  0.5439440000000  0.4654560000000 1.0
C      1  0.4169280000000  0.4444960000000  0.4968480000000 1.0
C      1  0.4443460000000  0.4447730000000  0.4289840000000 1.0
C      1  0.5164180000000  0.4472120000000  0.4132230000000 1.0
C      1  0.5677010000000  0.4467660000000  0.4657790000000 1.0
C      1  0.5828160000000  0.4432270000000  0.5404890000000 1.0
C      1  0.5231010000000  0.4450260000000  0.5842280000000 1.0
C      1  0.4548110000000  0.4441070000000  0.5627590000000 1.0
C      1  0.4452930000000  0.4665090000000  0.4077800000000 1.0
C      1  0.5347350000000  0.4690450000000  0.4013410000000 1.0
C      1  0.5927430000000  0.4628670000000  0.4682220000000 1.0
C      1  0.5928070000000  0.4605280000000  0.5637610000000 1.0
C      1  0.5097200000000  0.4643340000000  0.6018850000000 1.0
C      1  0.4402040000000  0.4713970000000  0.5627660000000 1.0
C      1  0.3994140000000  0.4658460000000  0.4840820000000 1.0
C      1  0.4598840000000  0.5131080000000  0.4856710000000 1.0
C      1  0.4852920000000  0.5057200000000  0.4654940000000 1.0
C      1  0.5128380000000  0.4960740000000  0.4746280000000 1.0
C      1  0.5164580000000  0.5136210000000  0.4964120000000 1.0
C      1  0.5065610000000  0.5028910000000  0.5230580000000 1.0
C      1  0.4788290000000  0.5113620000000  0.5328240000000 1.0
C      1  0.4626310000000  0.5234490000000  0.5129230000000 1.0
C      1  0.4835450000000  0.4531290000000  0.5590220000000 1.0
C      1  0.4302700000000  0.4514110000000  0.5230590000000 1.0
C      1  0.4475680000000  0.4553150000000  0.4572410000000 1.0
C      1  0.4869380000000  0.4518890000000  0.4152830000000 1.0
C      1  0.5421860000000  0.4594500000000  0.4559980000000 1.0
C      1  0.5786820000000  0.4528020000000  0.5114400000000 1.0
C      1  0.5487190000000  0.4540540000000  0.5711520000000 1.0
C      1  0.5019840000000  0.5802240000000  0.4611270000000 1.0
C      1  0.5245430000000  0.5892780000000  0.4824760000000 1.0
C      1  0.5068870000000  0.6043570000000  0.5052370000000 1.0
C      1  0.4999450000000  0.5947010000000  0.5361100000000 1.0
C      1  0.4726160000000  0.6088150000000  0.5409570000000 1.0
C      1  0.4595810000000  0.5985540000000  0.5161260000000 1.0
C      1  0.4749230000000  0.5859610000000  0.4732230000000 1.0
C      1  0.4885060000000  0.4147240000000  0.5185810000000 1.0
C      1  0.4787810000000  0.6068180000000  0.4940970000000 1.0
C      1  0.4926310000000  0.5432120000000  0.4875630000000 1.0
END
