TITL C-3577078-809-152 9.23611558209265e-07 125000 -1190.36416515598 0 0 188 (C1) n - 1
REM
REM in /home/bkarasulu/work/CARBON/AIRSS/Generating-Clusters/EDIP-Nigel-Params/with-SteepDescent/Higher-Symm/SD-CG/HFTN-CG
REM
REM
REM
REM
REM
REM ./C.cell (12c818d87b63d06a65506943cc24bca4)
REM
REM compiler GCC version 9.2.1 20190827 (Red Hat 9.2.1-1)
REM options -cpp -mtune=generic -march=x86-64 -g -O0 -fpre-include=/usr/include/finclude/math-vector-fortran.h
REM seed 1468185083 1508671886 1038407797 -1884876326 855061507 1999503956 1737159077 376030578 1302098224 -578629416 -379476989 -236209290 -865702359 -642644367 1454683999 1037173220 -816899082 -1762649344 1729289427 2073326504 1199932800 2071246309 -583515739 2055705876 -1391046317 2091395243 221298273 -1002129960 1812098077 -995639792 -845180818 736043298 877943391
REM
CELL 1.54180   50.00000   50.00000   50.00000   90.00000   90.00000   90.00000
LATT -1
SFAC C  
C      1  0.4758960000000  0.6083330000000  0.5169380000000 1.0
C      1  0.4745560000000  0.5954610000000  0.4901880000000 1.0
C      1  0.4936240000000  0.6032160000000  0.4694040000000 1.0
C      1  0.5220970000000  0.6034560000000  0.4748630000000 1.0
C      1  0.5349560000000  0.6118840000000  0.4997460000000 1.0
C      1  0.5236450000000  0.5989130000000  0.5248620000000 1.0
C      1  0.4981190000000  0.6106080000000  0.5365130000000 1.0
C      1  0.4222340000000  0.5452020000000  0.5032880000000 1.0
C      1  0.4393760000000  0.5439140000000  0.4216700000000 1.0
C      1  0.5236860000000  0.5444740000000  0.3967960000000 1.0
C      1  0.5914010000000  0.5493680000000  0.4532100000000 1.0
C      1  0.5844160000000  0.5497490000000  0.5420520000000 1.0
C      1  0.5224800000000  0.5455710000000  0.5983400000000 1.0
C      1  0.4406910000000  0.5499440000000  0.5869040000000 1.0
C      1  0.4862090000000  0.5599790000000  0.4675480000000 1.0
C      1  0.5119140000000  0.5595090000000  0.4450500000000 1.0
C      1  0.5435900000000  0.5721240000000  0.4758630000000 1.0
C      1  0.5439020000000  0.5621080000000  0.5047300000000 1.0
C      1  0.5071470000000  0.5591650000000  0.5446100000000 1.0
C      1  0.4762200000000  0.5570920000000  0.5420110000000 1.0
C      1  0.4673470000000  0.5576690000000  0.5125140000000 1.0
C      1  0.4264250000000  0.5222020000000  0.5899850000000 1.0
C      1  0.4002950000000  0.5253410000000  0.4989150000000 1.0
C      1  0.4374470000000  0.5149440000000  0.4132310000000 1.0
C      1  0.5296940000000  0.5163150000000  0.3894320000000 1.0
C      1  0.6043090000000  0.5226170000000  0.4524710000000 1.0
C      1  0.5976320000000  0.5247430000000  0.5517970000000 1.0
C      1  0.5202100000000  0.5173740000000  0.6109400000000 1.0
C      1  0.5973400000000  0.4549850000000  0.5334170000000 1.0
C      1  0.5333840000000  0.4512660000000  0.5957590000000 1.0
C      1  0.4397850000000  0.4368000000000  0.5861270000000 1.0
C      1  0.3907610000000  0.4408320000000  0.5061660000000 1.0
C      1  0.4275350000000  0.4487520000000  0.4263920000000 1.0
C      1  0.5140990000000  0.4491520000000  0.3940230000000 1.0
C      1  0.5881030000000  0.4524520000000  0.4453520000000 1.0
C      1  0.5630480000000  0.5480990000000  0.4307800000000 1.0
C      1  0.5851160000000  0.5450330000000  0.5053680000000 1.0
C      1  0.5425510000000  0.5420630000000  0.5718730000000 1.0
C      1  0.4712400000000  0.5418460000000  0.5876550000000 1.0
C      1  0.4193970000000  0.5516960000000  0.5406320000000 1.0
C      1  0.4325090000000  0.5442340000000  0.4529150000000 1.0
C      1  0.4884500000000  0.5410480000000  0.4061520000000 1.0
C      1  0.5527300000000  0.5869240000000  0.5453540000000 1.0
C      1  0.4882040000000  0.5981060000000  0.5624490000000 1.0
C      1  0.4530600000000  0.5991590000000  0.5319130000000 1.0
C      1  0.4460240000000  0.5850230000000  0.4853590000000 1.0
C      1  0.4868550000000  0.5957520000000  0.4419100000000 1.0
C      1  0.5329620000000  0.5848760000000  0.4210370000000 1.0
C      1  0.5643190000000  0.6038160000000  0.4996740000000 1.0
C      1  0.4741390000000  0.5121000000000  0.4604660000000 1.0
C      1  0.5097630000000  0.5110860000000  0.4449740000000 1.0
C      1  0.5359160000000  0.5194500000000  0.4615250000000 1.0
C      1  0.5333270000000  0.5162930000000  0.4915980000000 1.0
C      1  0.5059450000000  0.5113250000000  0.5333360000000 1.0
C      1  0.4772930000000  0.5080710000000  0.5458730000000 1.0
C      1  0.4581730000000  0.5052160000000  0.5234960000000 1.0
C      1  0.5547440000000  0.4326800000000  0.4082670000000 1.0
C      1  0.5988730000000  0.4403420000000  0.4894210000000 1.0
C      1  0.5698410000000  0.4383410000000  0.5685390000000 1.0
C      1  0.4900800000000  0.4323010000000  0.5993490000000 1.0
C      1  0.4064540000000  0.4272110000000  0.5580280000000 1.0
C      1  0.3997900000000  0.4332450000000  0.4633640000000 1.0
C      1  0.4621900000000  0.4306140000000  0.3998180000000 1.0
C      1  0.4667380000000  0.5759440000000  0.4380050000000 1.0
C      1  0.5080220000000  0.5950130000000  0.4238140000000 1.0
C      1  0.5700740000000  0.5864730000000  0.4749400000000 1.0
C      1  0.5637890000000  0.5807800000000  0.5186620000000 1.0
C      1  0.5074890000000  0.5771370000000  0.5695950000000 1.0
C      1  0.4619060000000  0.5821340000000  0.5543450000000 1.0
C      1  0.4388260000000  0.5839200000000  0.5134230000000 1.0
C      1  0.5523360000000  0.4170940000000  0.5645220000000 1.0
C      1  0.4817390000000  0.4122790000000  0.5820090000000 1.0
C      1  0.4206290000000  0.4152630000000  0.5371780000000 1.0
C      1  0.4240580000000  0.4202690000000  0.4660090000000 1.0
C      1  0.4795570000000  0.4220340000000  0.4196430000000 1.0
C      1  0.5490640000000  0.4203460000000  0.4323840000000 1.0
C      1  0.5782570000000  0.4245020000000  0.4987990000000 1.0
C      1  0.4018170000000  0.5071950000000  0.4763650000000 1.0
C      1  0.4617170000000  0.5000710000000  0.4077740000000 1.0
C      1  0.5510270000000  0.5036300000000  0.4050190000000 1.0
C      1  0.6072860000000  0.5084020000000  0.4786190000000 1.0
C      1  0.5796150000000  0.5071940000000  0.5682560000000 1.0
C      1  0.4946120000000  0.5019450000000  0.6079920000000 1.0
C      1  0.4142910000000  0.5072550000000  0.5674240000000 1.0
C      1  0.4521500000000  0.4769470000000  0.5214610000000 1.0
C      1  0.4595410000000  0.4677780000000  0.4948000000000 1.0
C      1  0.5017730000000  0.4664730000000  0.4659460000000 1.0
C      1  0.5311840000000  0.4705270000000  0.4708010000000 1.0
C      1  0.5398540000000  0.4863530000000  0.4954110000000 1.0
C      1  0.5282900000000  0.4747310000000  0.5207520000000 1.0
C      1  0.4986620000000  0.4757330000000  0.5201890000000 1.0
C      1  0.4344430000000  0.5659340000000  0.5623110000000 1.0
C      1  0.4252950000000  0.5631990000000  0.4772130000000 1.0
C      1  0.4638990000000  0.5587830000000  0.4146810000000 1.0
C      1  0.5436770000000  0.5610820000000  0.4110550000000 1.0
C      1  0.5892780000000  0.5638330000000  0.4790560000000 1.0
C      1  0.5625330000000  0.5622520000000  0.5587210000000 1.0
C      1  0.4974290000000  0.5607020000000  0.5927010000000 1.0
C      1  0.4659860000000  0.4391060000000  0.4921310000000 1.0
C      1  0.4941460000000  0.4387550000000  0.4721460000000 1.0
C      1  0.5217540000000  0.4334970000000  0.4928640000000 1.0
C      1  0.5352690000000  0.4451170000000  0.5187660000000 1.0
C      1  0.5162160000000  0.4347460000000  0.5391940000000 1.0
C      1  0.4913050000000  0.4499320000000  0.5348140000000 1.0
C      1  0.4770530000000  0.4291640000000  0.5188260000000 1.0
C      1  0.4533740000000  0.4569400000000  0.6001430000000 1.0
C      1  0.3819990000000  0.4633350000000  0.5217680000000 1.0
C      1  0.4131850000000  0.4734350000000  0.4306140000000 1.0
C      1  0.5034390000000  0.4719870000000  0.3809480000000 1.0
C      1  0.5924570000000  0.4753190000000  0.4273430000000 1.0
C      1  0.6134230000000  0.4779250000000  0.5277040000000 1.0
C      1  0.5480760000000  0.4741560000000  0.6035060000000 1.0
C      1  0.5683530000000  0.4837840000000  0.5010930000000 1.0
C      1  0.5377300000000  0.4842820000000  0.5476900000000 1.0
C      1  0.4748240000000  0.4844870000000  0.5657960000000 1.0
C      1  0.4269330000000  0.4677690000000  0.5322150000000 1.0
C      1  0.4398090000000  0.4753290000000  0.4751320000000 1.0
C      1  0.4947960000000  0.4664260000000  0.4343600000000 1.0
C      1  0.5499060000000  0.4745990000000  0.4483550000000 1.0
C      1  0.5245780000000  0.4266840000000  0.5680000000000 1.0
C      1  0.4562810000000  0.4184760000000  0.5697040000000 1.0
C      1  0.4196180000000  0.4338760000000  0.5148480000000 1.0
C      1  0.4403790000000  0.4291210000000  0.4454920000000 1.0
C      1  0.5034380000000  0.4388630000000  0.4218120000000 1.0
C      1  0.5679130000000  0.4282860000000  0.4523290000000 1.0
C      1  0.5665370000000  0.4338670000000  0.5239940000000 1.0
C      1  0.5862290000000  0.5037930000000  0.4357820000000 1.0
C      1  0.6027130000000  0.5060020000000  0.5270330000000 1.0
C      1  0.5393500000000  0.5005880000000  0.5939360000000 1.0
C      1  0.4458980000000  0.5034590000000  0.6013870000000 1.0
C      1  0.3983990000000  0.5099870000000  0.5227520000000 1.0
C      1  0.4269400000000  0.4991010000000  0.4363140000000 1.0
C      1  0.5059520000000  0.4975690000000  0.3947850000000 1.0
C      1  0.4103970000000  0.4790570000000  0.4849180000000 1.0
C      1  0.4656000000000  0.4747390000000  0.4255220000000 1.0
C      1  0.5404840000000  0.4790460000000  0.4199110000000 1.0
C      1  0.5862420000000  0.4868470000000  0.4784150000000 1.0
C      1  0.5670080000000  0.4866210000000  0.5503430000000 1.0
C      1  0.4979430000000  0.4825710000000  0.5842860000000 1.0
C      1  0.4237400000000  0.4753550000000  0.5638400000000 1.0
C      1  0.4996110000000  0.5359560000000  0.4331700000000 1.0
C      1  0.5402270000000  0.5491170000000  0.4540410000000 1.0
C      1  0.5544110000000  0.5336840000000  0.5052420000000 1.0
C      1  0.5212900000000  0.5332880000000  0.5499020000000 1.0
C      1  0.4705130000000  0.5336350000000  0.5584400000000 1.0
C      1  0.4517140000000  0.5334120000000  0.5013980000000 1.0
C      1  0.4609220000000  0.5384380000000  0.4678400000000 1.0
C      1  0.4481890000000  0.4075480000000  0.5439320000000 1.0
C      1  0.4388790000000  0.4204600000000  0.4918170000000 1.0
C      1  0.4668340000000  0.4165920000000  0.4454650000000 1.0
C      1  0.5210790000000  0.4214930000000  0.4412590000000 1.0
C      1  0.5598730000000  0.4170030000000  0.4784270000000 1.0
C      1  0.5554430000000  0.4083400000000  0.5369400000000 1.0
C      1  0.5052730000000  0.4026630000000  0.5673740000000 1.0
C      1  0.5123210000000  0.4021300000000  0.4638820000000 1.0
C      1  0.5362680000000  0.3984900000000  0.4848090000000 1.0
C      1  0.5307800000000  0.3962970000000  0.5226610000000 1.0
C      1  0.5029460000000  0.3925390000000  0.5388150000000 1.0
C      1  0.4667920000000  0.3921040000000  0.5253120000000 1.0
C      1  0.4600900000000  0.3953910000000  0.4947610000000 1.0
C      1  0.4793400000000  0.3998290000000  0.4687250000000 1.0
C      1  0.5595650000000  0.5200740000000  0.5843850000000 1.0
C      1  0.4705210000000  0.5187720000000  0.6072180000000 1.0
C      1  0.4109330000000  0.5238830000000  0.5442090000000 1.0
C      1  0.4149000000000  0.5190960000000  0.4537090000000 1.0
C      1  0.4819900000000  0.5143500000000  0.3943260000000 1.0
C      1  0.5697300000000  0.5206510000000  0.4186800000000 1.0
C      1  0.6072290000000  0.5238220000000  0.5034140000000 1.0
C      1  0.5055040000000  0.4551500000000  0.5951660000000 1.0
C      1  0.4148800000000  0.4475270000000  0.5751300000000 1.0
C      1  0.3920250000000  0.4541460000000  0.4796640000000 1.0
C      1  0.4500740000000  0.4538340000000  0.4097020000000 1.0
C      1  0.5413030000000  0.4555310000000  0.4006620000000 1.0
C      1  0.5993140000000  0.4608190000000  0.4706330000000 1.0
C      1  0.5808120000000  0.4603480000000  0.5554450000000 1.0
C      1  0.4047420000000  0.4814400000000  0.5165010000000 1.0
C      1  0.4519880000000  0.4897290000000  0.4514150000000 1.0
C      1  0.5120480000000  0.4886560000000  0.4237940000000 1.0
C      1  0.5664310000000  0.4969290000000  0.4570760000000 1.0
C      1  0.5744080000000  0.4987750000000  0.5243280000000 1.0
C      1  0.5222990000000  0.4940140000000  0.5703250000000 1.0
C      1  0.4500350000000  0.4799830000000  0.5823490000000 1.0
C      1  0.5042580000000  0.5230400000000  0.5024880000000 1.0
C      1  0.4843410000000  0.5066740000000  0.4877670000000 1.0
C      1  0.5163360000000  0.5697950000000  0.5168750000000 1.0
C      1  0.4948930000000  0.5544080000000  0.4985200000000 1.0
C      1  0.4869510000000  0.4792490000000  0.4914710000000 1.0
C      1  0.4997990000000  0.4119300000000  0.5050690000000 1.0
END
