TITL C-3578207-9274-774 -9.49553781305296e-07 125000 -703.945888452445 0 0 112 (C1) n - 1
REM
REM in /home/bkarasulu/work/CARBON/AIRSS/Generating-Clusters/EDIP-Nigel-Params/with-SteepDescent/Higher-Symm/SD-CG/HFTN-CG
REM
REM
REM
REM
REM
REM ./C.cell (12c818d87b63d06a65506943cc24bca4)
REM
REM compiler GCC version 9.2.1 20190827 (Red Hat 9.2.1-1)
REM options -cpp -mtune=generic -march=x86-64 -g -O0 -fpre-include=/usr/include/finclude/math-vector-fortran.h
REM seed -843143598 833208263 660202667 2024211793 -1838285724 -1241234421 1239277865 -1057968864 748678912 -1623119520 1409309227 -2077529589 -1120178350 1333442645 -62793168 -545495815 -1827400834 -1922974901 -492801928 516931210 989453249 727741074 -2139176813 1861121817 658509616 1810284260 -544917570 789261187 -1322993677 -283362240 -698362785 1340448468 2053952768
REM
CELL 1.54180   50.00000   50.00000   50.00000   90.00000   90.00000   90.00000
LATT -1
SFAC C  
C      1  0.5483720000000  0.5371170000000  0.5648640000000 1.0
C      1  0.5463940000000  0.5726170000000  0.5107560000000 1.0
C      1  0.5452890000000  0.5566580000000  0.4546770000000 1.0
C      1  0.5452470000000  0.4966260000000  0.4274620000000 1.0
C      1  0.5429900000000  0.4398030000000  0.4602420000000 1.0
C      1  0.5401230000000  0.4292460000000  0.5128290000000 1.0
C      1  0.5470720000000  0.4716740000000  0.5669510000000 1.0
C      1  0.4449950000000  0.5256570000000  0.5584120000000 1.0
C      1  0.4406570000000  0.5673870000000  0.5137050000000 1.0
C      1  0.4430910000000  0.5528330000000  0.4597390000000 1.0
C      1  0.4401390000000  0.5000930000000  0.4326000000000 1.0
C      1  0.4388440000000  0.4442070000000  0.4568700000000 1.0
C      1  0.4423150000000  0.4368340000000  0.5120110000000 1.0
C      1  0.4407680000000  0.4702470000000  0.5627820000000 1.0
C      1  0.4771610000000  0.5146460000000  0.4043410000000 1.0
C      1  0.4773720000000  0.4349910000000  0.4297720000000 1.0
C      1  0.4746870000000  0.4003550000000  0.5061880000000 1.0
C      1  0.4786520000000  0.4438500000000  0.5771810000000 1.0
C      1  0.4796930000000  0.5268940000000  0.5924590000000 1.0
C      1  0.4782750000000  0.5888630000000  0.5350470000000 1.0
C      1  0.4773790000000  0.5863390000000  0.4504760000000 1.0
C      1  0.4768280000000  0.4146430000000  0.4512270000000 1.0
C      1  0.4750460000000  0.4088630000000  0.5348920000000 1.0
C      1  0.4789760000000  0.4694930000000  0.5924640000000 1.0
C      1  0.4786250000000  0.5537340000000  0.5785550000000 1.0
C      1  0.4773020000000  0.5983600000000  0.5066340000000 1.0
C      1  0.4771260000000  0.5667250000000  0.4272270000000 1.0
C      1  0.4767190000000  0.4846130000000  0.4045860000000 1.0
C      1  0.3989380000000  0.5270570000000  0.5089590000000 1.0
C      1  0.4077590000000  0.5271800000000  0.4826090000000 1.0
C      1  0.4054710000000  0.5006670000000  0.4689620000000 1.0
C      1  0.3963280000000  0.4800890000000  0.4852750000000 1.0
C      1  0.4088320000000  0.4717450000000  0.5086220000000 1.0
C      1  0.4008700000000  0.4855810000000  0.5314880000000 1.0
C      1  0.4109330000000  0.5114470000000  0.5284820000000 1.0
C      1  0.5026910000000  0.4746210000000  0.4151130000000 1.0
C      1  0.5016730000000  0.4165670000000  0.4674520000000 1.0
C      1  0.5014610000000  0.4206300000000  0.5407520000000 1.0
C      1  0.5041840000000  0.4836980000000  0.5858570000000 1.0
C      1  0.5043200000000  0.5587710000000  0.5649560000000 1.0
C      1  0.5024240000000  0.5895240000000  0.4933000000000 1.0
C      1  0.5033720000000  0.5522360000000  0.4261070000000 1.0
C      1  0.5516830000000  0.5290430000000  0.4461370000000 1.0
C      1  0.5477210000000  0.4736260000000  0.4446080000000 1.0
C      1  0.5318070000000  0.4426600000000  0.4874130000000 1.0
C      1  0.5412760000000  0.4497220000000  0.5356810000000 1.0
C      1  0.5425380000000  0.4997500000000  0.5616980000000 1.0
C      1  0.5491220000000  0.5474910000000  0.5376610000000 1.0
C      1  0.5530730000000  0.5575620000000  0.4848200000000 1.0
C      1  0.4585010000000  0.4491180000000  0.5569720000000 1.0
C      1  0.4608840000000  0.5110320000000  0.5769810000000 1.0
C      1  0.4587950000000  0.5673850000000  0.5353190000000 1.0
C      1  0.4587860000000  0.5742910000000  0.4696690000000 1.0
C      1  0.4574050000000  0.5213480000000  0.4244110000000 1.0
C      1  0.4570490000000  0.4539390000000  0.4376520000000 1.0
C      1  0.4582440000000  0.4212470000000  0.4941830000000 1.0
C      1  0.4383300000000  0.4667440000000  0.5065930000000 1.0
C      1  0.4529010000000  0.4834370000000  0.5293880000000 1.0
C      1  0.4406290000000  0.5135360000000  0.5309990000000 1.0
C      1  0.4542250000000  0.5321570000000  0.5088920000000 1.0
C      1  0.4381950000000  0.5296170000000  0.4787900000000 1.0
C      1  0.4348790000000  0.4985170000000  0.4622560000000 1.0
C      1  0.4497800000000  0.4748180000000  0.4763970000000 1.0
C      1  0.4526360000000  0.4765540000000  0.4204890000000 1.0
C      1  0.4517980000000  0.4201430000000  0.4664050000000 1.0
C      1  0.4527540000000  0.4285030000000  0.5380090000000 1.0
C      1  0.4542110000000  0.4841560000000  0.5842880000000 1.0
C      1  0.4555580000000  0.5526690000000  0.5597550000000 1.0
C      1  0.4526640000000  0.5861050000000  0.4950970000000 1.0
C      1  0.4542310000000  0.5483710000000  0.4331570000000 1.0
C      1  0.5026240000000  0.4015530000000  0.4947990000000 1.0
C      1  0.5054200000000  0.4377800000000  0.5656040000000 1.0
C      1  0.5068400000000  0.5147000000000  0.5896870000000 1.0
C      1  0.5054380000000  0.5790840000000  0.5418180000000 1.0
C      1  0.5044800000000  0.5863650000000  0.4629250000000 1.0
C      1  0.5039800000000  0.5242860000000  0.4127100000000 1.0
C      1  0.5041920000000  0.4467000000000  0.4278340000000 1.0
C      1  0.5200310000000  0.4286250000000  0.4470650000000 1.0
C      1  0.5196370000000  0.4096810000000  0.5196990000000 1.0
C      1  0.5206830000000  0.4628960000000  0.5727910000000 1.0
C      1  0.5214450000000  0.5367510000000  0.5744260000000 1.0
C      1  0.5197270000000  0.5814520000000  0.5153890000000 1.0
C      1  0.5183290000000  0.5643000000000  0.4485640000000 1.0
C      1  0.5192950000000  0.4987650000000  0.4162900000000 1.0
C      1  0.5297410000000  0.4715490000000  0.4928140000000 1.0
C      1  0.5419400000000  0.4762330000000  0.5199650000000 1.0
C      1  0.5323010000000  0.5020750000000  0.5337900000000 1.0
C      1  0.5496230000000  0.5233600000000  0.5204090000000 1.0
C      1  0.5380300000000  0.5299150000000  0.4919540000000 1.0
C      1  0.5489300000000  0.5133610000000  0.4703110000000 1.0
C      1  0.5517560000000  0.4840570000000  0.4717980000000 1.0
C      1  0.5975100000000  0.5601860000000  0.5079650000000 1.0
C      1  0.6054810000000  0.5156230000000  0.4580520000000 1.0
C      1  0.6005670000000  0.4897130000000  0.4625440000000 1.0
C      1  0.6151370000000  0.4551600000000  0.5029340000000 1.0
C      1  0.6238120000000  0.4700300000000  0.5236270000000 1.0
C      1  0.6148740000000  0.4894580000000  0.5399090000000 1.0
C      1  0.5959570000000  0.5380080000000  0.5231790000000 1.0
C      1  0.4880540000000  0.5288770000000  0.5125280000000 1.0
C      1  0.5053740000000  0.5284330000000  0.4885190000000 1.0
C      1  0.4917220000000  0.5087270000000  0.4731200000000 1.0
C      1  0.4800590000000  0.4829930000000  0.4764080000000 1.0
C      1  0.4956810000000  0.4723990000000  0.4984890000000 1.0
C      1  0.4845810000000  0.4823400000000  0.5251030000000 1.0
C      1  0.4997870000000  0.5073280000000  0.5311840000000 1.0
C      1  0.5833650000000  0.5553660000000  0.4843400000000 1.0
C      1  0.5963630000000  0.5397700000000  0.4652750000000 1.0
C      1  0.5805540000000  0.4778710000000  0.4778590000000 1.0
C      1  0.5876580000000  0.4603060000000  0.4996920000000 1.0
C      1  0.5737180000000  0.4683870000000  0.5249410000000 1.0
C      1  0.5873260000000  0.4926330000000  0.5356920000000 1.0
C      1  0.5789060000000  0.5161800000000  0.5213980000000 1.0
END
