TITL C-3578200-9634-129 -1.63101195591168e-06 125000 -376.107402888898 0 0 64 (C1) n - 1
REM
REM in /home/bkarasulu/work/CARBON/AIRSS/Generating-Clusters/EDIP-Nigel-Params/with-SteepDescent/Higher-Symm/SD-CG/HFTN-CG
REM
REM
REM
REM
REM
REM ./C.cell (12c818d87b63d06a65506943cc24bca4)
REM
REM compiler GCC version 9.2.1 20190827 (Red Hat 9.2.1-1)
REM options -cpp -mtune=generic -march=x86-64 -g -O0 -fpre-include=/usr/include/finclude/math-vector-fortran.h
REM seed 43012225 221535381 1873727742 -1904191759 294978144 -804964184 1909307071 1740722181 -1108752784 -1116200207 1216101355 -543038266 2131402601 1867215504 -1120415714 -1419665369 485112290 2098645424 1669298512 718220264 429491561 -100079034 -1113891088 582861607 -1150573498 -1437927211 78194312 840758667 -603735485 -203927623 -1779906792 -209487470 1854391240
REM
CELL 1.54180   50.00000   50.00000   50.00000   90.00000   90.00000   90.00000
LATT -1
SFAC C  
C      1  0.4953450000000  0.5539810000000  0.4719890000000 1.0
C      1  0.4963450000000  0.5421430000000  0.4456300000000 1.0
C      1  0.5042020000000  0.5147680000000  0.4406050000000 1.0
C      1  0.5027570000000  0.4777950000000  0.4513730000000 1.0
C      1  0.4959920000000  0.4559860000000  0.4691410000000 1.0
C      1  0.4996550000000  0.4538920000000  0.4980290000000 1.0
C      1  0.5040120000000  0.4587960000000  0.5361040000000 1.0
C      1  0.5003050000000  0.4719220000000  0.5623590000000 1.0
C      1  0.4928740000000  0.5001490000000  0.5662220000000 1.0
C      1  0.5040350000000  0.5230480000000  0.5542870000000 1.0
C      1  0.5028030000000  0.5398830000000  0.4977130000000 1.0
C      1  0.4815550000000  0.5366550000000  0.5433920000000 1.0
C      1  0.4878650000000  0.5542050000000  0.5204060000000 1.0
C      1  0.4799260000000  0.5776320000000  0.4735260000000 1.0
C      1  0.4780910000000  0.5540530000000  0.4275480000000 1.0
C      1  0.4885410000000  0.5041820000000  0.4185660000000 1.0
C      1  0.4867670000000  0.4763750000000  0.4270080000000 1.0
C      1  0.4723430000000  0.4429130000000  0.4610740000000 1.0
C      1  0.4824240000000  0.4324130000000  0.5078180000000 1.0
C      1  0.4897720000000  0.4332270000000  0.5361300000000 1.0
C      1  0.4848510000000  0.4572870000000  0.5814040000000 1.0
C      1  0.4706080000000  0.5043400000000  0.5834930000000 1.0
C      1  0.5567080000000  0.5205170000000  0.4591540000000 1.0
C      1  0.5647770000000  0.4956210000000  0.4525130000000 1.0
C      1  0.5709830000000  0.4708870000000  0.4613210000000 1.0
C      1  0.5737240000000  0.4546360000000  0.4827010000000 1.0
C      1  0.5722480000000  0.4521630000000  0.5095470000000 1.0
C      1  0.5669200000000  0.4643150000000  0.5330520000000 1.0
C      1  0.5591780000000  0.4870990000000  0.5452780000000 1.0
C      1  0.5509360000000  0.5127090000000  0.5422890000000 1.0
C      1  0.5427930000000  0.5328350000000  0.5258780000000 1.0
C      1  0.5325520000000  0.5425550000000  0.5015160000000 1.0
C      1  0.5474360000000  0.5373170000000  0.4782760000000 1.0
C      1  0.4479010000000  0.4467310000000  0.4751430000000 1.0
C      1  0.4522980000000  0.4386150000000  0.5034740000000 1.0
C      1  0.4659770000000  0.4335360000000  0.5514630000000 1.0
C      1  0.4596220000000  0.4644550000000  0.5909230000000 1.0
C      1  0.4473120000000  0.5114980000000  0.5687980000000 1.0
C      1  0.4546490000000  0.5236020000000  0.5433960000000 1.0
C      1  0.4628170000000  0.5652940000000  0.5103540000000 1.0
C      1  0.4521560000000  0.5812710000000  0.4768920000000 1.0
C      1  0.4516880000000  0.5620300000000  0.4292620000000 1.0
C      1  0.4620380000000  0.5150580000000  0.4182080000000 1.0
C      1  0.4590570000000  0.4711760000000  0.4316400000000 1.0
C      1  0.4498450000000  0.4562970000000  0.5478580000000 1.0
C      1  0.4390580000000  0.4680260000000  0.5717430000000 1.0
C      1  0.4262360000000  0.4930740000000  0.5700460000000 1.0
C      1  0.4355370000000  0.5275100000000  0.5210810000000 1.0
C      1  0.4468890000000  0.5437030000000  0.5001120000000 1.0
C      1  0.4363410000000  0.5563310000000  0.4757390000000 1.0
C      1  0.4402770000000  0.5442430000000  0.4484360000000 1.0
C      1  0.4468150000000  0.5160100000000  0.4422400000000 1.0
C      1  0.4452000000000  0.4878270000000  0.4498830000000 1.0
C      1  0.4380460000000  0.4748660000000  0.4750530000000 1.0
C      1  0.4418740000000  0.4608650000000  0.5204350000000 1.0
C      1  0.5681460000000  0.5049670000000  0.5017100000000 1.0
C      1  0.6204200000000  0.5001370000000  0.5001910000000 1.0
C      1  0.4220320000000  0.5049040000000  0.5115670000000 1.0
C      1  0.5451700000000  0.4894310000000  0.4977420000000 1.0
C      1  0.5947380000000  0.4994020000000  0.5000460000000 1.0
C      1  0.5180380000000  0.4936390000000  0.4972370000000 1.0
C      1  0.4954220000000  0.5100630000000  0.4970830000000 1.0
C      1  0.4698190000000  0.4988200000000  0.5027720000000 1.0
C      1  0.4428560000000  0.4862060000000  0.5029600000000 1.0
END
