TITL C-3577081-279-332 6.18157278562914e-06 125000 -615.489924779986 0 0 98 (C1) n - 1
REM
REM in /home/bkarasulu/work/CARBON/AIRSS/Generating-Clusters/EDIP-Nigel-Params/with-SteepDescent/Higher-Symm/SD-CG/HFTN-CG
REM
REM
REM
REM
REM
REM ./C.cell (12c818d87b63d06a65506943cc24bca4)
REM
REM compiler GCC version 9.2.1 20190827 (Red Hat 9.2.1-1)
REM options -cpp -mtune=generic -march=x86-64 -g -O0 -fpre-include=/usr/include/finclude/math-vector-fortran.h
REM seed 777166485 153376478 -857322239 1273672346 -1160410260 -1930765685 -454560907 -949712038 1588212898 1158806897 1998283871 -559978380 2056940674 1607218221 682451221 1186992850 1069275769 -805330314 102010580 -287203032 -654869293 -1631852069 1019977864 -1434437557 -624072445 2087051190 -726474886 301795168 -890307968 -220742769 758428015 -755194945 1803086024
REM
CELL 1.54180   50.00000   50.00000   50.00000   90.00000   90.00000   90.00000
LATT -1
SFAC C  
C      1  0.5326570000000  0.5457040000000  0.5650020000000 1.0
C      1  0.5344830000000  0.5726920000000  0.4792570000000 1.0
C      1  0.5357840000000  0.5003640000000  0.4226040000000 1.0
C      1  0.5363400000000  0.4238210000000  0.4749590000000 1.0
C      1  0.5367800000000  0.4577790000000  0.5608990000000 1.0
C      1  0.5096900000000  0.4600630000000  0.5486600000000 1.0
C      1  0.5061630000000  0.5347650000000  0.5571160000000 1.0
C      1  0.5074160000000  0.5625530000000  0.4872380000000 1.0
C      1  0.5091450000000  0.5048010000000  0.4361770000000 1.0
C      1  0.5096410000000  0.4393910000000  0.4752700000000 1.0
C      1  0.4858900000000  0.4517310000000  0.5658500000000 1.0
C      1  0.4814770000000  0.5478210000000  0.5688090000000 1.0
C      1  0.4828290000000  0.5774990000000  0.4775240000000 1.0
C      1  0.4842100000000  0.5009300000000  0.4199520000000 1.0
C      1  0.4850300000000  0.4223180000000  0.4740340000000 1.0
C      1  0.5636310000000  0.5073680000000  0.4607420000000 1.0
C      1  0.5741200000000  0.4604250000000  0.4718970000000 1.0
C      1  0.5699410000000  0.4663280000000  0.5210680000000 1.0
C      1  0.5709190000000  0.5143100000000  0.5394140000000 1.0
C      1  0.5682600000000  0.5421490000000  0.4987630000000 1.0
C      1  0.5361940000000  0.4531780000000  0.4374100000000 1.0
C      1  0.5384320000000  0.4293050000000  0.5242440000000 1.0
C      1  0.5343240000000  0.5029890000000  0.5784170000000 1.0
C      1  0.5337070000000  0.5741410000000  0.5256930000000 1.0
C      1  0.5352060000000  0.5444370000000  0.4393920000000 1.0
C      1  0.4347860000000  0.5271880000000  0.5396680000000 1.0
C      1  0.4341380000000  0.5450290000000  0.4863890000000 1.0
C      1  0.4375090000000  0.4998440000000  0.4552300000000 1.0
C      1  0.4382810000000  0.4552090000000  0.4860120000000 1.0
C      1  0.4374120000000  0.4710890000000  0.5386570000000 1.0
C      1  0.4440750000000  0.5247290000000  0.4420530000000 1.0
C      1  0.4453840000000  0.4510050000000  0.4584770000000 1.0
C      1  0.4467820000000  0.4443080000000  0.5336400000000 1.0
C      1  0.4439270000000  0.5135780000000  0.5635410000000 1.0
C      1  0.4427300000000  0.5637980000000  0.5068230000000 1.0
C      1  0.5477690000000  0.5814790000000  0.5023560000000 1.0
C      1  0.5486470000000  0.5254990000000  0.4233230000000 1.0
C      1  0.5484890000000  0.4313730000000  0.4503660000000 1.0
C      1  0.5509880000000  0.4369970000000  0.5482480000000 1.0
C      1  0.5456690000000  0.5282780000000  0.5827220000000 1.0
C      1  0.5065280000000  0.5639730000000  0.5177770000000 1.0
C      1  0.5087590000000  0.5334130000000  0.4472970000000 1.0
C      1  0.5099640000000  0.4578670000000  0.4504450000000 1.0
C      1  0.5108650000000  0.4412440000000  0.5243480000000 1.0
C      1  0.5073190000000  0.5059320000000  0.5659200000000 1.0
C      1  0.5382770000000  0.4951650000000  0.4734380000000 1.0
C      1  0.5454530000000  0.4653700000000  0.4789460000000 1.0
C      1  0.5419140000000  0.4713010000000  0.5107000000000 1.0
C      1  0.5407480000000  0.5134300000000  0.5363470000000 1.0
C      1  0.5393120000000  0.5368900000000  0.5047420000000 1.0
C      1  0.4701690000000  0.4325030000000  0.5483170000000 1.0
C      1  0.4658420000000  0.5245130000000  0.5806170000000 1.0
C      1  0.4656810000000  0.5825730000000  0.5022120000000 1.0
C      1  0.4678480000000  0.5261490000000  0.4236510000000 1.0
C      1  0.4686300000000  0.4335080000000  0.4510650000000 1.0
C      1  0.4855600000000  0.5482050000000  0.4343920000000 1.0
C      1  0.4862780000000  0.4505850000000  0.4331080000000 1.0
C      1  0.4881630000000  0.4209600000000  0.5265690000000 1.0
C      1  0.4845160000000  0.5007370000000  0.5852440000000 1.0
C      1  0.4828630000000  0.5806020000000  0.5272370000000 1.0
C      1  0.4738910000000  0.5245640000000  0.5195720000000 1.0
C      1  0.4738960000000  0.5260010000000  0.4853370000000 1.0
C      1  0.4766950000000  0.4898490000000  0.4731090000000 1.0
C      1  0.4769730000000  0.4705960000000  0.5009130000000 1.0
C      1  0.4752980000000  0.4913450000000  0.5287460000000 1.0
C      1  0.4172920000000  0.5133580000000  0.5207710000000 1.0
C      1  0.4148840000000  0.5234550000000  0.4928760000000 1.0
C      1  0.4150620000000  0.4990110000000  0.4744670000000 1.0
C      1  0.4170610000000  0.4745020000000  0.4925670000000 1.0
C      1  0.4185890000000  0.4840960000000  0.5204790000000 1.0
C      1  0.5849730000000  0.4549690000000  0.4986070000000 1.0
C      1  0.5805060000000  0.4869240000000  0.5394020000000 1.0
C      1  0.5824090000000  0.5324880000000  0.5212150000000 1.0
C      1  0.5761400000000  0.5311860000000  0.4729240000000 1.0
C      1  0.5806130000000  0.4838800000000  0.4548810000000 1.0
C      1  0.5496390000000  0.5562930000000  0.4610130000000 1.0
C      1  0.5512890000000  0.4770460000000  0.4312310000000 1.0
C      1  0.5537100000000  0.4316000000000  0.4987260000000 1.0
C      1  0.5501120000000  0.4835140000000  0.5631800000000 1.0
C      1  0.5472030000000  0.5519330000000  0.5399090000000 1.0
C      1  0.5043920000000  0.4889070000000  0.5404040000000 1.0
C      1  0.5030490000000  0.5349650000000  0.5269940000000 1.0
C      1  0.5044960000000  0.5332890000000  0.4785280000000 1.0
C      1  0.5076860000000  0.4873110000000  0.4602890000000 1.0
C      1  0.5065990000000  0.4581960000000  0.4996270000000 1.0
C      1  0.4713630000000  0.4196930000000  0.5010870000000 1.0
C      1  0.4696580000000  0.4752730000000  0.5776110000000 1.0
C      1  0.4666170000000  0.5658310000000  0.5485980000000 1.0
C      1  0.4688910000000  0.5639960000000  0.4541420000000 1.0
C      1  0.4700910000000  0.4748370000000  0.4254200000000 1.0
C      1  0.4467480000000  0.4848050000000  0.5617960000000 1.0
C      1  0.4440480000000  0.5537070000000  0.5340490000000 1.0
C      1  0.4450220000000  0.5476910000000  0.4598800000000 1.0
C      1  0.4471060000000  0.4756320000000  0.4434270000000 1.0
C      1  0.4483880000000  0.4371960000000  0.5057420000000 1.0
C      1  0.5363160000000  0.5038270000000  0.5053670000000 1.0
C      1  0.4521750000000  0.5005580000000  0.4968930000000 1.0
C      1  0.5055300000000  0.5022720000000  0.5024110000000 1.0
END
