TITL C-3578202-4305-681 -1.33442387945839e-07 125000 -496.153925280558 0 0 79 (C1) n - 1
REM
REM in /home/bkarasulu/work/CARBON/AIRSS/Generating-Clusters/EDIP-Nigel-Params/with-SteepDescent/Higher-Symm/SD-CG/HFTN-CG
REM
REM
REM
REM
REM
REM ./C.cell (12c818d87b63d06a65506943cc24bca4)
REM
REM compiler GCC version 9.2.1 20190827 (Red Hat 9.2.1-1)
REM options -cpp -mtune=generic -march=x86-64 -g -O0 -fpre-include=/usr/include/finclude/math-vector-fortran.h
REM seed -1045868066 1391909574 71941192 527074149 887683601 -263961185 -1729329310 1145024081 -595951083 376546421 2137193202 -1166773629 -166931373 -1552688730 1329467279 210297309 -310041358 2125593444 132307516 1825987394 1760474060 -1569445340 -1106638145 1285821126 1742097689 964693584 -2032911063 301803940 -464200039 2134333355 1771088010 -843962178 -1822716121
REM
CELL 1.54180   50.00000   50.00000   50.00000   90.00000   90.00000   90.00000
LATT -1
SFAC C  
C      1  0.5593220000000  0.5114550000000  0.4620690000000 1.0
C      1  0.5160320000000  0.4322860000000  0.4577620000000 1.0
C      1  0.4398830000000  0.4918800000000  0.4600420000000 1.0
C      1  0.4855270000000  0.5685180000000  0.4520710000000 1.0
C      1  0.5684520000000  0.4883430000000  0.5473040000000 1.0
C      1  0.5127170000000  0.5626180000000  0.5435040000000 1.0
C      1  0.4340390000000  0.5126540000000  0.5469340000000 1.0
C      1  0.4884560000000  0.4312400000000  0.5465350000000 1.0
C      1  0.4425200000000  0.5171500000000  0.4775990000000 1.0
C      1  0.5056990000000  0.5645630000000  0.4735120000000 1.0
C      1  0.5563420000000  0.4876120000000  0.4802910000000 1.0
C      1  0.4973460000000  0.4495200000000  0.4743360000000 1.0
C      1  0.4391570000000  0.4939430000000  0.5250840000000 1.0
C      1  0.5086010000000  0.4313380000000  0.5248000000000 1.0
C      1  0.5592260000000  0.5084940000000  0.5269300000000 1.0
C      1  0.4912420000000  0.5704270000000  0.5252850000000 1.0
C      1  0.4371240000000  0.5403710000000  0.5415790000000 1.0
C      1  0.5387630000000  0.5558350000000  0.5337040000000 1.0
C      1  0.5649390000000  0.4607540000000  0.5404630000000 1.0
C      1  0.4610710000000  0.4372250000000  0.5396950000000 1.0
C      1  0.4574970000000  0.4730580000000  0.4744420000000 1.0
C      1  0.5427050000000  0.4395100000000  0.4651120000000 1.0
C      1  0.5501820000000  0.5368200000000  0.4712510000000 1.0
C      1  0.4596360000000  0.5608070000000  0.4609120000000 1.0
C      1  0.4777690000000  0.4536360000000  0.4320140000000 1.0
C      1  0.4542860000000  0.5250790000000  0.4297380000000 1.0
C      1  0.5226540000000  0.5447210000000  0.4320990000000 1.0
C      1  0.5464650000000  0.4750190000000  0.4337360000000 1.0
C      1  0.4753130000000  0.5447860000000  0.5692980000000 1.0
C      1  0.4568090000000  0.4743530000000  0.5666140000000 1.0
C      1  0.5273380000000  0.4529280000000  0.5686980000000 1.0
C      1  0.5452410000000  0.5242720000000  0.5697110000000 1.0
C      1  0.4648720000000  0.5484470000000  0.5414550000000 1.0
C      1  0.5397490000000  0.5276470000000  0.5406090000000 1.0
C      1  0.5377160000000  0.4505870000000  0.5399730000000 1.0
C      1  0.4545750000000  0.4663490000000  0.5373490000000 1.0
C      1  0.4710810000000  0.4507280000000  0.4607420000000 1.0
C      1  0.5410970000000  0.4687350000000  0.4623270000000 1.0
C      1  0.5257190000000  0.5464810000000  0.4611250000000 1.0
C      1  0.4612790000000  0.5316700000000  0.4584220000000 1.0
C      1  0.5111510000000  0.4764750000000  0.4664290000000 1.0
C      1  0.4736220000000  0.4878670000000  0.4953670000000 1.0
C      1  0.4902290000000  0.5198310000000  0.4617760000000 1.0
C      1  0.5192310000000  0.5120960000000  0.5017360000000 1.0
C      1  0.5055490000000  0.5149700000000  0.5277340000000 1.0
C      1  0.4781410000000  0.5294060000000  0.5195060000000 1.0
C      1  0.4810920000000  0.4710290000000  0.5186570000000 1.0
C      1  0.5258340000000  0.4718530000000  0.5213640000000 1.0
C      1  0.4822310000000  0.5104860000000  0.6069640000000 1.0
C      1  0.5125250000000  0.5170660000000  0.6076060000000 1.0
C      1  0.5191550000000  0.4863090000000  0.6072700000000 1.0
C      1  0.4886750000000  0.4799770000000  0.6064730000000 1.0
C      1  0.4830310000000  0.4862560000000  0.3942570000000 1.0
C      1  0.5137100000000  0.4801570000000  0.3938620000000 1.0
C      1  0.5195190000000  0.5107160000000  0.3940650000000 1.0
C      1  0.4889240000000  0.5164760000000  0.3915110000000 1.0
C      1  0.5194080000000  0.5292770000000  0.5814640000000 1.0
C      1  0.5321760000000  0.4792500000000  0.5814190000000 1.0
C      1  0.4820080000000  0.4678430000000  0.5801860000000 1.0
C      1  0.4702920000000  0.5183710000000  0.5809720000000 1.0
C      1  0.5219910000000  0.4669990000000  0.4194020000000 1.0
C      1  0.5243210000000  0.5154100000000  0.4239180000000 1.0
C      1  0.4797510000000  0.5312660000000  0.4158220000000 1.0
C      1  0.4764040000000  0.4833710000000  0.4239650000000 1.0
C      1  0.5065460000000  0.4433920000000  0.4299850000000 1.0
C      1  0.4490080000000  0.4961550000000  0.4310980000000 1.0
C      1  0.4954810000000  0.5551020000000  0.4260970000000 1.0
C      1  0.5509200000000  0.5038930000000  0.4338670000000 1.0
C      1  0.5037460000000  0.5512290000000  0.5694870000000 1.0
C      1  0.4478980000000  0.5021540000000  0.5709980000000 1.0
C      1  0.4985870000000  0.4450750000000  0.5708190000000 1.0
C      1  0.5551440000000  0.4962960000000  0.5731920000000 1.0
C      1  0.4561150000000  0.5096140000000  0.5049760000000 1.0
C      1  0.4923540000000  0.5590300000000  0.4989470000000 1.0
C      1  0.5424250000000  0.4940180000000  0.5068960000000 1.0
C      1  0.4932940000000  0.4465140000000  0.5051780000000 1.0
C      1  0.5024930000000  0.4855360000000  0.5331270000000 1.0
C      1  0.5000920000000  0.4997260000000  0.4393050000000 1.0
C      1  0.4988990000000  0.5000750000000  0.4833850000000 1.0
END
