TITL C-3578204-4308-677 -1.75097428759375e-06 125000 -759.201776311094 0 0 121 (C1) n - 1
REM
REM in /home/bkarasulu/work/CARBON/AIRSS/Generating-Clusters/EDIP-Nigel-Params/with-SteepDescent/Higher-Symm/SD-CG/HFTN-CG
REM
REM
REM
REM
REM
REM ./C.cell (12c818d87b63d06a65506943cc24bca4)
REM
REM compiler GCC version 9.2.1 20190827 (Red Hat 9.2.1-1)
REM options -cpp -mtune=generic -march=x86-64 -g -O0 -fpre-include=/usr/include/finclude/math-vector-fortran.h
REM seed 1994909365 1869418465 1889544488 906923453 -792100765 -1792801744 896776834 1528576282 2042723548 -1226009058 -1880995670 -921930736 1065301565 415197040 -699909492 1783360807 1930183972 -2100023181 -156342605 1568493765 -204721094 140702703 -1672282819 1589307413 -1769867138 -985190522 830780557 655666036 -1972024909 -914613863 -569556976 1508906882 993849306
REM
CELL 1.54180   50.00000   50.00000   50.00000   90.00000   90.00000   90.00000
LATT -1
SFAC C  
C      1  0.5388560000000  0.5201850000000  0.4185010000000 1.0
C      1  0.4179450000000  0.5309860000000  0.5179610000000 1.0
C      1  0.5147630000000  0.4100390000000  0.5319680000000 1.0
C      1  0.4644050000000  0.4886640000000  0.4091140000000 1.0
C      1  0.4849470000000  0.5179360000000  0.5935410000000 1.0
C      1  0.5253090000000  0.5001640000000  0.5958760000000 1.0
C      1  0.5840150000000  0.4595510000000  0.5193560000000 1.0
C      1  0.5902230000000  0.5303730000000  0.4859700000000 1.0
C      1  0.4104730000000  0.4726840000000  0.4887560000000 1.0
C      1  0.4799930000000  0.5815880000000  0.5362690000000 1.0
C      1  0.4805790000000  0.4050850000000  0.4652950000000 1.0
C      1  0.5015240000000  0.6007340000000  0.4801720000000 1.0
C      1  0.5399160000000  0.5209500000000  0.5844420000000 1.0
C      1  0.4121930000000  0.5300430000000  0.4885690000000 1.0
C      1  0.5021110000000  0.3922010000000  0.4788870000000 1.0
C      1  0.4744560000000  0.4914150000000  0.5869410000000 1.0
C      1  0.4761220000000  0.5129610000000  0.4005580000000 1.0
C      1  0.5281440000000  0.4983650000000  0.4015950000000 1.0
C      1  0.5992580000000  0.4705150000000  0.4961200000000 1.0
C      1  0.5991990000000  0.5179900000000  0.5098900000000 1.0
C      1  0.4151120000000  0.4615700000000  0.5137160000000 1.0
C      1  0.4818010000000  0.5865060000000  0.4667930000000 1.0
C      1  0.4903090000000  0.3991010000000  0.5229610000000 1.0
C      1  0.5096650000000  0.5848290000000  0.5318640000000 1.0
C      1  0.4784500000000  0.4516610000000  0.4754190000000 1.0
C      1  0.4827160000000  0.4890320000000  0.4523850000000 1.0
C      1  0.4620710000000  0.4762450000000  0.4812740000000 1.0
C      1  0.5028170000000  0.5298940000000  0.4845060000000 1.0
C      1  0.5147600000000  0.4518800000000  0.5086360000000 1.0
C      1  0.4790080000000  0.5389980000000  0.5246750000000 1.0
C      1  0.5215360000000  0.5170250000000  0.4664520000000 1.0
C      1  0.5204750000000  0.4974390000000  0.5321370000000 1.0
C      1  0.4858980000000  0.5251160000000  0.5504750000000 1.0
C      1  0.5471470000000  0.5098910000000  0.4836900000000 1.0
C      1  0.5368890000000  0.4762470000000  0.5197030000000 1.0
C      1  0.4620420000000  0.5156200000000  0.5143510000000 1.0
C      1  0.4855800000000  0.4483210000000  0.5227990000000 1.0
C      1  0.4940980000000  0.4964850000000  0.5433000000000 1.0
C      1  0.4639080000000  0.4696890000000  0.5132660000000 1.0
C      1  0.5073050000000  0.5403960000000  0.5116510000000 1.0
C      1  0.5081790000000  0.4566130000000  0.4779190000000 1.0
C      1  0.4770350000000  0.5356330000000  0.4725540000000 1.0
C      1  0.5273170000000  0.5247160000000  0.5304280000000 1.0
C      1  0.5119660000000  0.4877950000000  0.4603660000000 1.0
C      1  0.4735330000000  0.5176640000000  0.4458670000000 1.0
C      1  0.5517800000000  0.5251280000000  0.5123600000000 1.0
C      1  0.5428890000000  0.4812420000000  0.4910270000000 1.0
C      1  0.4576490000000  0.5198140000000  0.4871680000000 1.0
C      1  0.4549250000000  0.4417540000000  0.5580060000000 1.0
C      1  0.5513070000000  0.4617960000000  0.4388980000000 1.0
C      1  0.4380420000000  0.5656920000000  0.4661340000000 1.0
C      1  0.5404780000000  0.5644690000000  0.5618890000000 1.0
C      1  0.5431850000000  0.4355130000000  0.4465180000000 1.0
C      1  0.4651760000000  0.5618490000000  0.4301540000000 1.0
C      1  0.4409670000000  0.5505380000000  0.4401620000000 1.0
C      1  0.4405090000000  0.4679870000000  0.5571880000000 1.0
C      1  0.5752660000000  0.5355120000000  0.5576970000000 1.0
C      1  0.5640740000000  0.4370490000000  0.4659280000000 1.0
C      1  0.5642360000000  0.5586790000000  0.5451180000000 1.0
C      1  0.4407780000000  0.4285830000000  0.5365700000000 1.0
C      1  0.4726700000000  0.4465020000000  0.4320210000000 1.0
C      1  0.5422650000000  0.4649200000000  0.5701950000000 1.0
C      1  0.4257280000000  0.5701320000000  0.5467110000000 1.0
C      1  0.5346710000000  0.5707620000000  0.4612840000000 1.0
C      1  0.5373050000000  0.4411290000000  0.5546790000000 1.0
C      1  0.4452310000000  0.5663790000000  0.5684330000000 1.0
C      1  0.4323150000000  0.5403760000000  0.5708200000000 1.0
C      1  0.4439580000000  0.4560140000000  0.4377570000000 1.0
C      1  0.5719320000000  0.5448980000000  0.4419000000000 1.0
C      1  0.5583160000000  0.4287390000000  0.5409250000000 1.0
C      1  0.5599210000000  0.5567630000000  0.4641480000000 1.0
C      1  0.4308340000000  0.4425490000000  0.4596620000000 1.0
C      1  0.5649360000000  0.5128290000000  0.5722390000000 1.0
C      1  0.5557880000000  0.5563170000000  0.5148710000000 1.0
C      1  0.5252700000000  0.5866910000000  0.5546940000000 1.0
C      1  0.4477280000000  0.4920220000000  0.5743210000000 1.0
C      1  0.4420300000000  0.5192420000000  0.4432490000000 1.0
C      1  0.5300690000000  0.4812200000000  0.4363060000000 1.0
C      1  0.4269710000000  0.4347340000000  0.5117610000000 1.0
C      1  0.4158930000000  0.5584930000000  0.4835040000000 1.0
C      1  0.5646400000000  0.4631750000000  0.4806990000000 1.0
C      1  0.4857290000000  0.4471570000000  0.5541270000000 1.0
C      1  0.4884560000000  0.5750350000000  0.4405810000000 1.0
C      1  0.5174990000000  0.4321290000000  0.4612890000000 1.0
C      1  0.5648430000000  0.5196730000000  0.4326680000000 1.0
C      1  0.5743490000000  0.5557110000000  0.4893860000000 1.0
C      1  0.5163390000000  0.5626530000000  0.4393930000000 1.0
C      1  0.4407660000000  0.4848700000000  0.4268470000000 1.0
C      1  0.4431670000000  0.5167760000000  0.5583420000000 1.0
C      1  0.5644580000000  0.4835940000000  0.5617710000000 1.0
C      1  0.4381670000000  0.4282580000000  0.4835850000000 1.0
C      1  0.4305940000000  0.5600010000000  0.5192390000000 1.0
C      1  0.5659770000000  0.4361200000000  0.5151330000000 1.0
C      1  0.4917960000000  0.4235030000000  0.4440310000000 1.0
C      1  0.4741740000000  0.5664000000000  0.5614280000000 1.0
C      1  0.5113350000000  0.4280520000000  0.5554190000000 1.0
C      1  0.5751920000000  0.5097650000000  0.5222830000000 1.0
C      1  0.5232770000000  0.5680620000000  0.5105560000000 1.0
C      1  0.5258480000000  0.5381170000000  0.5643380000000 1.0
C      1  0.4365730000000  0.4765540000000  0.5285710000000 1.0
C      1  0.4332210000000  0.5133400000000  0.4730280000000 1.0
C      1  0.5868950000000  0.4822520000000  0.4709890000000 1.0
C      1  0.4767270000000  0.4216790000000  0.5126150000000 1.0
C      1  0.4653330000000  0.5650920000000  0.4800180000000 1.0
C      1  0.5227240000000  0.4114010000000  0.4821680000000 1.0
C      1  0.4928160000000  0.4764130000000  0.5675490000000 1.0
C      1  0.4890150000000  0.5255980000000  0.4225380000000 1.0
C      1  0.5128420000000  0.4746230000000  0.4124810000000 1.0
C      1  0.5742570000000  0.5106280000000  0.4682670000000 1.0
C      1  0.5223460000000  0.5830400000000  0.4846680000000 1.0
C      1  0.5168150000000  0.5321820000000  0.4350100000000 1.0
C      1  0.4321960000000  0.4838800000000  0.4750980000000 1.0
C      1  0.4363660000000  0.5100990000000  0.5296310000000 1.0
C      1  0.5672270000000  0.4818080000000  0.5315250000000 1.0
C      1  0.4679600000000  0.4250390000000  0.4842660000000 1.0
C      1  0.4622670000000  0.5651180000000  0.5136220000000 1.0
C      1  0.5295360000000  0.4248050000000  0.5092860000000 1.0
C      1  0.4846100000000  0.4736850000000  0.4248990000000 1.0
C      1  0.4947550000000  0.5393210000000  0.5742850000000 1.0
C      1  0.5189440000000  0.4763870000000  0.5829560000000 1.0
C      1  0.4784440000000  0.4926430000000  0.5188230000000 1.0
END
