TITL C-3577080-309-641 4.01846688288751e-08 125000 -587.395819246992 0 0 93 (Cs) n - 1
REM
REM in /home/bkarasulu/work/CARBON/AIRSS/Generating-Clusters/EDIP-Nigel-Params/with-SteepDescent/Higher-Symm/SD-CG/HFTN-CG
REM
REM
REM
REM
REM
REM ./C.cell (12c818d87b63d06a65506943cc24bca4)
REM
REM compiler GCC version 9.2.1 20190827 (Red Hat 9.2.1-1)
REM options -cpp -mtune=generic -march=x86-64 -g -O0 -fpre-include=/usr/include/finclude/math-vector-fortran.h
REM seed 261316065 -301170355 -1222976859 -1488167313 -847543751 -1349362563 -173167965 -1293956324 -508544107 -2139252644 -2012996571 1449938820 -198466137 358778474 96523722 2127726467 -22242237 1932802240 -37744578 262413636 -2138832154 -1912031296 -1683018665 362067047 -1986996859 1501062845 -1012695956 -1843086884 -1412625253 1679764337 -329235718 114024535 -1406204107
REM
CELL 1.54180   50.00000   50.00000   50.00000   90.00000   90.00000   90.00000
LATT -1
SFAC C  
C      1  0.4590030000000  0.4782960000000  0.4574740000000 1.0
C      1  0.4831040000000  0.4779510000000  0.5563840000000 1.0
C      1  0.5555550000000  0.4838280000000  0.4853880000000 1.0
C      1  0.4588980000000  0.5220490000000  0.4576510000000 1.0
C      1  0.4829990000000  0.5217090000000  0.5565610000000 1.0
C      1  0.5554760000000  0.5167530000000  0.4855220000000 1.0
C      1  0.5295430000000  0.5564830000000  0.4981800000000 1.0
C      1  0.4846410000000  0.5585020000000  0.4765800000000 1.0
C      1  0.4882240000000  0.5580400000000  0.5257580000000 1.0
C      1  0.5298130000000  0.4438730000000  0.4977240000000 1.0
C      1  0.4849200000000  0.4418140000000  0.4761080000000 1.0
C      1  0.4885020000000  0.4418960000000  0.5252880000000 1.0
C      1  0.4798320000000  0.4332520000000  0.5529110000000 1.0
C      1  0.5592400000000  0.4381790000000  0.4918150000000 1.0
C      1  0.4650690000000  0.4332520000000  0.4548540000000 1.0
C      1  0.4795120000000  0.5664180000000  0.5534490000000 1.0
C      1  0.5589430000000  0.5623670000000  0.4923180000000 1.0
C      1  0.4647480000000  0.5671410000000  0.4553960000000 1.0
C      1  0.4818020000000  0.5278390000000  0.4772460000000 1.0
C      1  0.4886120000000  0.5274170000000  0.5268900000000 1.0
C      1  0.5275830000000  0.5259420000000  0.4960160000000 1.0
C      1  0.4819340000000  0.4724570000000  0.4770220000000 1.0
C      1  0.4887440000000  0.4725100000000  0.5266680000000 1.0
C      1  0.5277070000000  0.4744220000000  0.4958080000000 1.0
C      1  0.5545200000000  0.4864540000000  0.4033420000000 1.0
C      1  0.3901420000000  0.4856810000000  0.4993570000000 1.0
C      1  0.5526790000000  0.4856540000000  0.5968270000000 1.0
C      1  0.5544520000000  0.5147870000000  0.4034570000000 1.0
C      1  0.3900740000000  0.5139950000000  0.4994720000000 1.0
C      1  0.5526110000000  0.5140120000000  0.5969420000000 1.0
C      1  0.4425310000000  0.5338220000000  0.5018550000000 1.0
C      1  0.5298260000000  0.5326140000000  0.5489620000000 1.0
C      1  0.5265860000000  0.5331440000000  0.4492220000000 1.0
C      1  0.4426940000000  0.4660870000000  0.5015810000000 1.0
C      1  0.5299820000000  0.4673320000000  0.5486980000000 1.0
C      1  0.5267430000000  0.4675940000000  0.4489570000000 1.0
C      1  0.5594200000000  0.4721100000000  0.5503120000000 1.0
C      1  0.5127060000000  0.4703740000000  0.4227090000000 1.0
C      1  0.4270120000000  0.4693910000000  0.5267380000000 1.0
C      1  0.5592860000000  0.5279640000000  0.5505380000000 1.0
C      1  0.5125620000000  0.5305090000000  0.4229520000000 1.0
C      1  0.4268660000000  0.5302390000000  0.5269840000000 1.0
C      1  0.5174570000000  0.4837280000000  0.5232890000000 1.0
C      1  0.5100000000000  0.4836920000000  0.4720180000000 1.0
C      1  0.4702390000000  0.4827850000000  0.5041540000000 1.0
C      1  0.5173790000000  0.5163650000000  0.5234210000000 1.0
C      1  0.5099200000000  0.5167800000000  0.4721520000000 1.0
C      1  0.4701560000000  0.5172360000000  0.5042940000000 1.0
C      1  0.4630140000000  0.5434510000000  0.4373190000000 1.0
C      1  0.4635520000000  0.5431350000000  0.5633920000000 1.0
C      1  0.5730590000000  0.5370790000000  0.5002030000000 1.0
C      1  0.4632210000000  0.4570790000000  0.4369700000000 1.0
C      1  0.4637600000000  0.4563770000000  0.5630410000000 1.0
C      1  0.5732350000000  0.4634690000000  0.4999050000000 1.0
C      1  0.4739000000000  0.4312290000000  0.5016740000000 1.0
C      1  0.5167460000000  0.4326970000000  0.5221930000000 1.0
C      1  0.5135970000000  0.4325950000000  0.4751850000000 1.0
C      1  0.4735700000000  0.5688270000000  0.5022300000000 1.0
C      1  0.5164230000000  0.5673990000000  0.5227380000000 1.0
C      1  0.5132730000000  0.5678660000000  0.4757330000000 1.0
C      1  0.4391420000000  0.4607310000000  0.5502480000000 1.0
C      1  0.5745000000000  0.4675360000000  0.5274490000000 1.0
C      1  0.4861880000000  0.4621310000000  0.4216940000000 1.0
C      1  0.4389550000000  0.5387670000000  0.5505640000000 1.0
C      1  0.5743440000000  0.5327960000000  0.5277130000000 1.0
C      1  0.4860040000000  0.5386330000000  0.4220030000000 1.0
C      1  0.5261530000000  0.4373180000000  0.5488320000000 1.0
C      1  0.5314990000000  0.4382500000000  0.4535280000000 1.0
C      1  0.4459400000000  0.4362470000000  0.4971930000000 1.0
C      1  0.5258520000000  0.5626080000000  0.5493390000000 1.0
C      1  0.5312010000000  0.5624720000000  0.4540310000000 1.0
C      1  0.4456340000000  0.5637120000000  0.4977090000000 1.0
C      1  0.4008520000000  0.5189570000000  0.5256930000000 1.0
C      1  0.5706040000000  0.5191890000000  0.5750860000000 1.0
C      1  0.5263090000000  0.5197820000000  0.4005580000000 1.0
C      1  0.4009440000000  0.4805580000000  0.5255380000000 1.0
C      1  0.5706970000000  0.4807400000000  0.5749310000000 1.0
C      1  0.5264010000000  0.4813480000000  0.4004020000000 1.0
C      1  0.5049700000000  0.4287270000000  0.5662170000000 1.0
C      1  0.5579300000000  0.4331210000000  0.4635460000000 1.0
C      1  0.4412440000000  0.4280010000000  0.4701200000000 1.0
C      1  0.5046300000000  0.5709560000000  0.5667930000000 1.0
C      1  0.5576070000000  0.5676470000000  0.4640900000000 1.0
C      1  0.4408990000000  0.5721540000000  0.4707030000000 1.0
C      1  0.5100660000000  0.5236090000000  0.5706620000000 1.0
C      1  0.5545080000000  0.5226720000000  0.4550280000000 1.0
C      1  0.4332800000000  0.5240770000000  0.4742280000000 1.0
C      1  0.5101800000000  0.4760670000000  0.5704690000000 1.0
C      1  0.5546140000000  0.4781520000000  0.4548480000000 1.0
C      1  0.4333950000000  0.4760110000000  0.4740330000000 1.0
C      1  0.5187380000000  0.4997950000000  0.5862820000000 1.0
C      1  0.4156930000000  0.4999990000000  0.4746970000000 1.0
C      1  0.5634370000000  0.5005020000000  0.4379460000000 1.0
END
