TITL C-3577077-324-171 -2.37612391677807e-06 125000 -704.620744285531 0 0 119 (C4) n - 1
REM
REM in /home/bkarasulu/work/CARBON/AIRSS/Generating-Clusters/EDIP-Nigel-Params/with-SteepDescent/Higher-Symm/SD-CG/HFTN-CG
REM
REM
REM
REM
REM
REM ./C.cell (12c818d87b63d06a65506943cc24bca4)
REM
REM compiler GCC version 9.2.1 20190827 (Red Hat 9.2.1-1)
REM options -cpp -mtune=generic -march=x86-64 -g -O0 -fpre-include=/usr/include/finclude/math-vector-fortran.h
REM seed -1724397482 17411900 -760865493 1953564633 1736071051 1254868501 -1185371862 969322058 680818084 -1606595440 -1748374766 1968326146 -795844849 -619179747 1424233716 548647576 -515424558 -12728003 1164197999 1631958030 763311432 -1087766891 -530451736 -1325122831 -21195508 2012321999 -213014563 742811527 -1259914116 -1551047499 1819783491 -1735625956 1634351082
REM
CELL 1.54180   50.00000   50.00000   50.00000   90.00000   90.00000   90.00000
LATT -1
SFAC C  
C      1  0.5257170000000  0.5247070000000  0.4820150000000 1.0
C      1  0.4819440000000  0.5247060000000  0.4739050000000 1.0
C      1  0.4738340000000  0.5247050000000  0.5176780000000 1.0
C      1  0.5176070000000  0.5247060000000  0.5257880000000 1.0
C      1  0.5242410000000  0.4755140000000  0.4807530000000 1.0
C      1  0.4806830000000  0.4755130000000  0.4753810000000 1.0
C      1  0.4753110000000  0.4755130000000  0.5189400000000 1.0
C      1  0.5188700000000  0.4755140000000  0.5243110000000 1.0
C      1  0.5115440000000  0.5142590000000  0.5526380000000 1.0
C      1  0.5525670000000  0.5142600000000  0.4880780000000 1.0
C      1  0.4880070000000  0.5142580000000  0.4470550000000 1.0
C      1  0.4469840000000  0.5142570000000  0.5116140000000 1.0
C      1  0.5117980000000  0.4850600000000  0.5517240000000 1.0
C      1  0.5516540000000  0.4850610000000  0.4878240000000 1.0
C      1  0.4877540000000  0.4850600000000  0.4479690000000 1.0
C      1  0.4478990000000  0.4850590000000  0.5118680000000 1.0
C      1  0.4319000000000  0.4259930000000  0.4998080000000 1.0
C      1  0.4997390000000  0.4259950000000  0.5677240000000 1.0
C      1  0.5676550000000  0.4259960000000  0.4998850000000 1.0
C      1  0.4998160000000  0.4259950000000  0.4319690000000 1.0
C      1  0.4315810000000  0.5742790000000  0.4993710000000 1.0
C      1  0.4992990000000  0.5742800000000  0.5680400000000 1.0
C      1  0.5679680000000  0.5742820000000  0.5003210000000 1.0
C      1  0.5002490000000  0.5742800000000  0.4316530000000 1.0
C      1  0.5498640000000  0.4781770000000  0.4384910000000 1.0
C      1  0.4384210000000  0.4781740000000  0.4497580000000 1.0
C      1  0.4496880000000  0.4781750000000  0.5612020000000 1.0
C      1  0.5611320000000  0.4781770000000  0.5499340000000 1.0
C      1  0.5497850000000  0.5226560000000  0.4390000000000 1.0
C      1  0.4389290000000  0.5226540000000  0.4498370000000 1.0
C      1  0.4497660000000  0.5226540000000  0.5606920000000 1.0
C      1  0.5606210000000  0.5226570000000  0.5498560000000 1.0
C      1  0.4084880000000  0.5139060000000  0.4905170000000 1.0
C      1  0.4904460000000  0.5139080000000  0.5911340000000 1.0
C      1  0.5910630000000  0.5139110000000  0.5091760000000 1.0
C      1  0.5091050000000  0.5139090000000  0.4085590000000 1.0
C      1  0.4095260000000  0.4861620000000  0.4904790000000 1.0
C      1  0.4904090000000  0.4861640000000  0.5900960000000 1.0
C      1  0.5900260000000  0.4861660000000  0.5092130000000 1.0
C      1  0.5091430000000  0.4861640000000  0.4095960000000 1.0
C      1  0.5824120000000  0.4561160000000  0.4713420000000 1.0
C      1  0.4712720000000  0.4561140000000  0.4172110000000 1.0
C      1  0.4171420000000  0.4561130000000  0.5283510000000 1.0
C      1  0.5282810000000  0.4561150000000  0.5824820000000 1.0
C      1  0.5826310000000  0.5442200000000  0.4718810000000 1.0
C      1  0.4718090000000  0.5442170000000  0.4169900000000 1.0
C      1  0.4169190000000  0.5442160000000  0.5278120000000 1.0
C      1  0.5277400000000  0.5442180000000  0.5827020000000 1.0
C      1  0.4843470000000  0.5832630000000  0.5432450000000 1.0
C      1  0.5431730000000  0.5832650000000  0.5152740000000 1.0
C      1  0.5152010000000  0.5832640000000  0.4564470000000 1.0
C      1  0.4563750000000  0.5832630000000  0.4844190000000 1.0
C      1  0.4845670000000  0.4172220000000  0.5430110000000 1.0
C      1  0.5429420000000  0.4172230000000  0.5150570000000 1.0
C      1  0.5149880000000  0.4172230000000  0.4566820000000 1.0
C      1  0.4566130000000  0.4172210000000  0.4846360000000 1.0
C      1  0.5062320000000  0.3963800000000  0.4786380000000 1.0
C      1  0.4785700000000  0.3963790000000  0.4933930000000 1.0
C      1  0.4933250000000  0.3963800000000  0.5210550000000 1.0
C      1  0.5209860000000  0.3963800000000  0.5063000000000 1.0
C      1  0.5062140000000  0.6037400000000  0.4786470000000 1.0
C      1  0.4785740000000  0.6037390000000  0.4934060000000 1.0
C      1  0.4933330000000  0.6037400000000  0.5210450000000 1.0
C      1  0.5209730000000  0.6037400000000  0.5062870000000 1.0
C      1  0.5489160000000  0.5296130000000  0.5234620000000 1.0
C      1  0.5233910000000  0.5296120000000  0.4507050000000 1.0
C      1  0.4506340000000  0.5296100000000  0.4762300000000 1.0
C      1  0.4761590000000  0.5296110000000  0.5489870000000 1.0
C      1  0.5496890000000  0.4706260000000  0.5234820000000 1.0
C      1  0.5234120000000  0.4706250000000  0.4499340000000 1.0
C      1  0.4498640000000  0.4706230000000  0.4762100000000 1.0
C      1  0.4761410000000  0.4706240000000  0.5497590000000 1.0
C      1  0.5684940000000  0.4808020000000  0.4619020000000 1.0
C      1  0.4618320000000  0.4808000000000  0.4311280000000 1.0
C      1  0.4310580000000  0.4807990000000  0.5377900000000 1.0
C      1  0.5377200000000  0.4808010000000  0.5685650000000 1.0
C      1  0.5688510000000  0.5195910000000  0.4620870000000 1.0
C      1  0.4620160000000  0.5195890000000  0.4307710000000 1.0
C      1  0.4307000000000  0.5195880000000  0.5376060000000 1.0
C      1  0.5375350000000  0.5195900000000  0.5689220000000 1.0
C      1  0.4991360000000  0.4593360000000  0.5850640000000 1.0
C      1  0.5849950000000  0.4593380000000  0.5004870000000 1.0
C      1  0.5004170000000  0.4593360000000  0.4146290000000 1.0
C      1  0.4145590000000  0.4593340000000  0.4992060000000 1.0
C      1  0.4984500000000  0.5408070000000  0.5850690000000 1.0
C      1  0.5849980000000  0.5408090000000  0.5011710000000 1.0
C      1  0.5011000000000  0.5408070000000  0.4146230000000 1.0
C      1  0.4145520000000  0.5408050000000  0.4985220000000 1.0
C      1  0.4336280000000  0.5691600000000  0.5285130000000 1.0
C      1  0.5284410000000  0.5691630000000  0.5659930000000 1.0
C      1  0.5659210000000  0.5691630000000  0.4711800000000 1.0
C      1  0.4711080000000  0.5691610000000  0.4337000000000 1.0
C      1  0.4338630000000  0.4313390000000  0.5287650000000 1.0
C      1  0.5286960000000  0.4313410000000  0.5657600000000 1.0
C      1  0.5656910000000  0.4313420000000  0.4709270000000 1.0
C      1  0.4708580000000  0.4313400000000  0.4339320000000 1.0
C      1  0.5297610000000  0.4470260000000  0.4922510000000 1.0
C      1  0.4921820000000  0.4470250000000  0.4698630000000 1.0
C      1  0.4697940000000  0.4470240000000  0.5074420000000 1.0
C      1  0.5073720000000  0.4470250000000  0.5298300000000 1.0
C      1  0.5299400000000  0.5538340000000  0.4923660000000 1.0
C      1  0.4922940000000  0.5538340000000  0.4696810000000 1.0
C      1  0.4696100000000  0.5538330000000  0.5073270000000 1.0
C      1  0.5072550000000  0.5538340000000  0.5300110000000 1.0
C      1  0.5370120000000  0.5632970000000  0.4639940000000 1.0
C      1  0.4639220000000  0.5632950000000  0.4626090000000 1.0
C      1  0.4625370000000  0.5632950000000  0.5356990000000 1.0
C      1  0.5356270000000  0.5632970000000  0.5370830000000 1.0
C      1  0.5368540000000  0.4373730000000  0.4640680000000 1.0
C      1  0.4639990000000  0.4373710000000  0.4627700000000 1.0
C      1  0.4627010000000  0.4373720000000  0.5356250000000 1.0
C      1  0.5355550000000  0.4373730000000  0.5369230000000 1.0
C      1  0.5499940000000  0.5006290000000  0.4214820000000 1.0
C      1  0.4214110000000  0.5006270000000  0.4496280000000 1.0
C      1  0.4495580000000  0.5006270000000  0.5782110000000 1.0
C      1  0.5781410000000  0.5006300000000  0.5500650000000 1.0
C      1  0.4997740000000  0.5654330000000  0.4998460000000 1.0
C      1  0.4997770000000  0.4346500000000  0.4998460000000 1.0
C      1  0.4997760000000  0.5055480000000  0.4998460000000 1.0
END
