TITL C-3578203-1966-367 -2.63063711528688e-06 125000 -1203.1840185971 0 0 192 (C3i) n - 1
REM
REM in /home/bkarasulu/work/CARBON/AIRSS/Generating-Clusters/EDIP-Nigel-Params/with-SteepDescent/Higher-Symm/SD-CG/HFTN-CG
REM
REM
REM
REM
REM
REM ./C.cell (12c818d87b63d06a65506943cc24bca4)
REM
REM compiler GCC version 9.2.1 20190827 (Red Hat 9.2.1-1)
REM options -cpp -mtune=generic -march=x86-64 -g -O0 -fpre-include=/usr/include/finclude/math-vector-fortran.h
REM seed 1277179949 -904688068 353679796 703732416 2085178441 -992487334 -953197675 1771716714 1710881468 223416919 -1394423805 -2080045629 1677228066 362868810 -479266566 1320577402 -549603391 1421075160 -1058741157 2001421336 1209909739 -1457564068 -1729880644 -856266850 -104006340 -1831712551 902558869 2035713568 336709024 94868188 -1307203019 263844573 -965736921
REM
CELL 1.54180   50.00000   50.00000   50.00000   90.00000   90.00000   90.00000
LATT -1
SFAC C  
C      1  0.4273910000000  0.5565310000000  0.4651760000000 1.0
C      1  0.4335420000000  0.4434630000000  0.5454690000000 1.0
C      1  0.5061440000000  0.5565370000000  0.5802890000000 1.0
C      1  0.5726090000000  0.4434690000000  0.5348240000000 1.0
C      1  0.5664580000000  0.5565370000000  0.4545310000000 1.0
C      1  0.4938560000000  0.4434630000000  0.4197110000000 1.0
C      1  0.5229980000000  0.4121260000000  0.5719670000000 1.0
C      1  0.5738170000000  0.5878800000000  0.5160670000000 1.0
C      1  0.5508310000000  0.4121250000000  0.4441060000000 1.0
C      1  0.4770020000000  0.5878740000000  0.4280330000000 1.0
C      1  0.4261830000000  0.4121200000000  0.4839330000000 1.0
C      1  0.4491690000000  0.5878750000000  0.5558940000000 1.0
C      1  0.4211240000000  0.4883910000000  0.5159460000000 1.0
C      1  0.4743710000000  0.5116060000000  0.5762810000000 1.0
C      1  0.5532480000000  0.4883980000000  0.5603360000000 1.0
C      1  0.5788760000000  0.5116090000000  0.4840540000000 1.0
C      1  0.5256290000000  0.4883940000000  0.4237190000000 1.0
C      1  0.4467520000000  0.5116020000000  0.4396640000000 1.0
C      1  0.5267630000000  0.3851580000000  0.4860140000000 1.0
C      1  0.5012600000000  0.6148420000000  0.4698300000000 1.0
C      1  0.4745110000000  0.3851560000000  0.4838240000000 1.0
C      1  0.4732370000000  0.6148420000000  0.5139860000000 1.0
C      1  0.4987400000000  0.3851580000000  0.5301700000000 1.0
C      1  0.5254890000000  0.6148440000000  0.5161760000000 1.0
C      1  0.4848070000000  0.4426710000000  0.5783860000000 1.0
C      1  0.5602830000000  0.5573340000000  0.5523500000000 1.0
C      1  0.5754830000000  0.4426720000000  0.4739690000000 1.0
C      1  0.5151930000000  0.5573290000000  0.4216140000000 1.0
C      1  0.4397170000000  0.4426660000000  0.4476500000000 1.0
C      1  0.4245170000000  0.5573280000000  0.5260310000000 1.0
C      1  0.5567750000000  0.4414570000000  0.4504410000000 1.0
C      1  0.4854630000000  0.5585420000000  0.4260520000000 1.0
C      1  0.4286960000000  0.4414520000000  0.4756160000000 1.0
C      1  0.4432250000000  0.5585430000000  0.5495590000000 1.0
C      1  0.5145370000000  0.4414580000000  0.5739480000000 1.0
C      1  0.5713040000000  0.5585480000000  0.5243840000000 1.0
C      1  0.4009130000000  0.5092810000000  0.4732230000000 1.0
C      1  0.4272680000000  0.4907130000000  0.5724240000000 1.0
C      1  0.5263540000000  0.5092890000000  0.5992000000000 1.0
C      1  0.5990870000000  0.4907190000000  0.5267770000000 1.0
C      1  0.5727320000000  0.5092870000000  0.4275760000000 1.0
C      1  0.4736460000000  0.4907110000000  0.4008000000000 1.0
C      1  0.5241560000000  0.4764070000000  0.4780490000000 1.0
C      1  0.4930660000000  0.5235920000000  0.4681050000000 1.0
C      1  0.4689130000000  0.4764050000000  0.4900580000000 1.0
C      1  0.4758440000000  0.5235930000000  0.5219510000000 1.0
C      1  0.5069340000000  0.4764080000000  0.5318950000000 1.0
C      1  0.5310870000000  0.5235950000000  0.5099420000000 1.0
C      1  0.4808090000000  0.4772610000000  0.5188610000000 1.0
C      1  0.5067360000000  0.5227390000000  0.5260500000000 1.0
C      1  0.5259300000000  0.4772630000000  0.5071910000000 1.0
C      1  0.5191910000000  0.5227390000000  0.4811390000000 1.0
C      1  0.4932640000000  0.4772610000000  0.4739500000000 1.0
C      1  0.4740700000000  0.5227370000000  0.4928090000000 1.0
C      1  0.4158150000000  0.4836360000000  0.4321700000000 1.0
C      1  0.3991630000000  0.5163550000000  0.5389920000000 1.0
C      1  0.4833510000000  0.4836430000000  0.6068230000000 1.0
C      1  0.5841850000000  0.5163640000000  0.5678300000000 1.0
C      1  0.6008370000000  0.4836450000000  0.4610080000000 1.0
C      1  0.5166490000000  0.5163570000000  0.3931770000000 1.0
C      1  0.4989150000000  0.4014500000000  0.5568510000000 1.0
C      1  0.5486840000000  0.5985540000000  0.5293650000000 1.0
C      1  0.5497810000000  0.4014500000000  0.4725210000000 1.0
C      1  0.5010850000000  0.5985500000000  0.4431490000000 1.0
C      1  0.4513160000000  0.4014460000000  0.4706350000000 1.0
C      1  0.4502190000000  0.5985500000000  0.5274790000000 1.0
C      1  0.6068370000000  0.5493280000000  0.4907560000000 1.0
C      1  0.5454170000000  0.4506760000000  0.4028550000000 1.0
C      1  0.4385740000000  0.5493190000000  0.4120950000000 1.0
C      1  0.3931630000000  0.4506720000000  0.5092440000000 1.0
C      1  0.4545830000000  0.5493240000000  0.5971450000000 1.0
C      1  0.5614260000000  0.4506810000000  0.5879050000000 1.0
C      1  0.5411190000000  0.5763230000000  0.4583120000000 1.0
C      1  0.4844630000000  0.4236760000000  0.4435460000000 1.0
C      1  0.4433340000000  0.5763200000000  0.4852280000000 1.0
C      1  0.4588810000000  0.4236770000000  0.5416880000000 1.0
C      1  0.5155370000000  0.5763240000000  0.5564540000000 1.0
C      1  0.5566660000000  0.4236800000000  0.5147720000000 1.0
C      1  0.4680210000000  0.5409690000000  0.4103640000000 1.0
C      1  0.4063870000000  0.4590230000000  0.4828760000000 1.0
C      1  0.4383600000000  0.5409720000000  0.5725100000000 1.0
C      1  0.5319790000000  0.4590310000000  0.5896360000000 1.0
C      1  0.5936130000000  0.5409770000000  0.5171240000000 1.0
C      1  0.5616400000000  0.4590280000000  0.4274900000000 1.0
C      1  0.5323650000000  0.5367890000000  0.5883270000000 1.0
C      1  0.5926790000000  0.4632190000000  0.5161350000000 1.0
C      1  0.5603090000000  0.5367860000000  0.4278050000000 1.0
C      1  0.4676350000000  0.4632110000000  0.4116730000000 1.0
C      1  0.4073210000000  0.5367810000000  0.4838650000000 1.0
C      1  0.4396910000000  0.4632140000000  0.5721950000000 1.0
C      1  0.5047110000000  0.4919550000000  0.5598570000000 1.0
C      1  0.5541920000000  0.5080490000000  0.5258490000000 1.0
C      1  0.5494830000000  0.4919550000000  0.4659930000000 1.0
C      1  0.4952890000000  0.5080450000000  0.4401430000000 1.0
C      1  0.4458080000000  0.4919510000000  0.4741510000000 1.0
C      1  0.4505170000000  0.5080450000000  0.5340070000000 1.0
C      1  0.4288750000000  0.4956450000000  0.4096800000000 1.0
C      1  0.3862180000000  0.5043460000000  0.5164360000000 1.0
C      1  0.4573430000000  0.4956510000000  0.6067560000000 1.0
C      1  0.5711250000000  0.5043550000000  0.5903200000000 1.0
C      1  0.6137820000000  0.4956540000000  0.4835640000000 1.0
C      1  0.5426570000000  0.5043490000000  0.3932440000000 1.0
C      1  0.5444180000000  0.5823150000000  0.5550160000000 1.0
C      1  0.5698610000000  0.4176910000000  0.4890410000000 1.0
C      1  0.5254330000000  0.5823110000000  0.4340190000000 1.0
C      1  0.4555820000000  0.4176850000000  0.4449840000000 1.0
C      1  0.4301390000000  0.5823090000000  0.5109590000000 1.0
C      1  0.4745670000000  0.4176890000000  0.5659810000000 1.0
C      1  0.4030940000000  0.4926470000000  0.5560070000000 1.0
C      1  0.5000500000000  0.5073530000000  0.6119260000000 1.0
C      1  0.5969570000000  0.4926550000000  0.5559200000000 1.0
C      1  0.5969060000000  0.5073530000000  0.4439930000000 1.0
C      1  0.4999500000000  0.4926470000000  0.3880740000000 1.0
C      1  0.4030430000000  0.5073450000000  0.4440800000000 1.0
C      1  0.5286670000000  0.4331220000000  0.5060520000000 1.0
C      1  0.5195690000000  0.5668800000000  0.4782000000000 1.0
C      1  0.4909110000000  0.4331200000000  0.4721530000000 1.0
C      1  0.4713330000000  0.5668780000000  0.4939480000000 1.0
C      1  0.4804310000000  0.4331200000000  0.5218000000000 1.0
C      1  0.5090890000000  0.5668800000000  0.5278470000000 1.0
C      1  0.4897890000000  0.5362830000000  0.5646100000000 1.0
C      1  0.5508510000000  0.4637220000000  0.5411480000000 1.0
C      1  0.5610570000000  0.5362840000000  0.4765360000000 1.0
C      1  0.5102110000000  0.4637170000000  0.4353900000000 1.0
C      1  0.4491490000000  0.5362780000000  0.4588520000000 1.0
C      1  0.4389430000000  0.4637160000000  0.5234640000000 1.0
C      1  0.5300940000000  0.4504440000000  0.4612550000000 1.0
C      1  0.4814890000000  0.5495550000000  0.4545650000000 1.0
C      1  0.4514000000000  0.4504410000000  0.4933140000000 1.0
C      1  0.4699060000000  0.5495560000000  0.5387450000000 1.0
C      1  0.5185110000000  0.4504450000000  0.5454350000000 1.0
C      1  0.5486000000000  0.5495590000000  0.5066860000000 1.0
C      1  0.4175380000000  0.4866800000000  0.4855370000000 1.0
C      1  0.4462420000000  0.5133150000000  0.5641820000000 1.0
C      1  0.5287060000000  0.4866870000000  0.5786470000000 1.0
C      1  0.5824620000000  0.5133200000000  0.5144630000000 1.0
C      1  0.5537580000000  0.4866850000000  0.4358180000000 1.0
C      1  0.4712940000000  0.5133130000000  0.4213530000000 1.0
C      1  0.4790150000000  0.5694770000000  0.5917920000000 1.0
C      1  0.5690080000000  0.4305290000000  0.5640690000000 1.0
C      1  0.5899830000000  0.5694790000000  0.4722720000000 1.0
C      1  0.5209850000000  0.4305230000000  0.4082080000000 1.0
C      1  0.4309920000000  0.5694710000000  0.4359310000000 1.0
C      1  0.4100170000000  0.4305210000000  0.5277280000000 1.0
C      1  0.5300360000000  0.5312090000000  0.4262550000000 1.0
C      1  0.4511560000000  0.4687870000000  0.4371160000000 1.0
C      1  0.4211160000000  0.5312060000000  0.5108580000000 1.0
C      1  0.4699640000000  0.4687910000000  0.5737450000000 1.0
C      1  0.5488440000000  0.5312130000000  0.5628840000000 1.0
C      1  0.5788840000000  0.4687940000000  0.4891420000000 1.0
C      1  0.4985090000000  0.6010610000000  0.5577100000000 1.0
C      1  0.5492410000000  0.3989430000000  0.5301470000000 1.0
C      1  0.5507200000000  0.6010620000000  0.4724290000000 1.0
C      1  0.5014910000000  0.3989390000000  0.4422900000000 1.0
C      1  0.4507590000000  0.6010570000000  0.4698530000000 1.0
C      1  0.4492800000000  0.3989380000000  0.5275710000000 1.0
C      1  0.4875300000000  0.4794630000000  0.4467580000000 1.0
C      1  0.4476540000000  0.5205320000000  0.4841790000000 1.0
C      1  0.4601270000000  0.4794640000000  0.5374220000000 1.0
C      1  0.5124700000000  0.5205370000000  0.5532420000000 1.0
C      1  0.5523460000000  0.4794680000000  0.5158210000000 1.0
C      1  0.5398730000000  0.5205360000000  0.4625780000000 1.0
C      1  0.4751790000000  0.6127600000000  0.4838430000000 1.0
C      1  0.4736060000000  0.3872380000000  0.5134170000000 1.0
C      1  0.4984130000000  0.6127620000000  0.5295660000000 1.0
C      1  0.5248210000000  0.3872400000000  0.5161570000000 1.0
C      1  0.5263940000000  0.6127620000000  0.4865830000000 1.0
C      1  0.5015870000000  0.3872380000000  0.4704340000000 1.0
C      1  0.5765030000000  0.5924370000000  0.4867590000000 1.0
C      1  0.5267920000000  0.4075660000000  0.4271260000000 1.0
C      1  0.4502780000000  0.5924300000000  0.4403600000000 1.0
C      1  0.4234970000000  0.4075630000000  0.5132410000000 1.0
C      1  0.4732080000000  0.5924340000000  0.5728740000000 1.0
C      1  0.5497220000000  0.4075700000000  0.5596400000000 1.0
C      1  0.5910730000000  0.4682100000000  0.5695580000000 1.0
C      1  0.6057730000000  0.5317990000000  0.4559070000000 1.0
C      1  0.5147040000000  0.4682020000000  0.3863510000000 1.0
C      1  0.4089270000000  0.5317900000000  0.4304420000000 1.0
C      1  0.3942270000000  0.4682010000000  0.5440930000000 1.0
C      1  0.4852960000000  0.5317980000000  0.6136490000000 1.0
C      1  0.4707510000000  0.4268210000000  0.4934790000000 1.0
C      1  0.4797220000000  0.5731770000000  0.5220700000000 1.0
C      1  0.5089800000000  0.4268230000000  0.5285970000000 1.0
C      1  0.5292490000000  0.5731790000000  0.5065210000000 1.0
C      1  0.5202780000000  0.4268230000000  0.4779300000000 1.0
C      1  0.4910200000000  0.5731770000000  0.4714030000000 1.0
C      1  0.3789630000000  0.4764670000000  0.5216110000000 1.0
C      1  0.4581950000000  0.5235300000000  0.6156270000000 1.0
C      1  0.5792350000000  0.4764770000000  0.5940180000000 1.0
C      1  0.6210370000000  0.5235330000000  0.4783890000000 1.0
C      1  0.5418050000000  0.4764700000000  0.3843730000000 1.0
C      1  0.4207650000000  0.5235230000000  0.4059820000000 1.0
END
