TITL C-3577091-527-66 1.78211653407454e-06 125000 -942.318486285992 0 0 154 (C1) n - 1
REM
REM in /home/bkarasulu/work/CARBON/AIRSS/Generating-Clusters/EDIP-Nigel-Params/with-SteepDescent/Higher-Symm/SD-CG/HFTN-CG
REM
REM
REM
REM
REM
REM ./C.cell (12c818d87b63d06a65506943cc24bca4)
REM
REM compiler GCC version 9.2.1 20190827 (Red Hat 9.2.1-1)
REM options -cpp -mtune=generic -march=x86-64 -g -O0 -fpre-include=/usr/include/finclude/math-vector-fortran.h
REM seed 1965455925 109232468 1437628090 -127907213 -1988817402 -1842569762 641443259 1943821860 1371834273 525745584 950887011 -2085467056 -1401312403 -489816952 590287194 1298540573 108086460 -178740369 -248130148 -1605129572 -1540647333 -687146880 29561785 -1429998120 -321656734 831540397 39642488 993494428 317237557 -595894010 1652422435 -514746366 923036771
REM
CELL 1.54180   50.00000   50.00000   50.00000   90.00000   90.00000   90.00000
LATT -1
SFAC C  
C      1  0.4714760000000  0.5055360000000  0.4520810000000 1.0
C      1  0.4723880000000  0.5320300000000  0.4628710000000 1.0
C      1  0.4996220000000  0.5467170000000  0.4632630000000 1.0
C      1  0.5214770000000  0.5283860000000  0.4571870000000 1.0
C      1  0.5214000000000  0.5034880000000  0.4712770000000 1.0
C      1  0.5346770000000  0.4807730000000  0.4606140000000 1.0
C      1  0.5206220000000  0.4546260000000  0.4653220000000 1.0
C      1  0.4916210000000  0.4580340000000  0.4580830000000 1.0
C      1  0.4699210000000  0.4769490000000  0.4657780000000 1.0
C      1  0.5940330000000  0.4900330000000  0.4860190000000 1.0
C      1  0.5717290000000  0.4327270000000  0.4931290000000 1.0
C      1  0.5170390000000  0.4098040000000  0.4960340000000 1.0
C      1  0.4525650000000  0.4292300000000  0.4866480000000 1.0
C      1  0.4139430000000  0.4803930000000  0.4912780000000 1.0
C      1  0.4166430000000  0.5405020000000  0.4972590000000 1.0
C      1  0.4592290000000  0.5823950000000  0.4990260000000 1.0
C      1  0.5189830000000  0.5903600000000  0.4952240000000 1.0
C      1  0.5706850000000  0.5498300000000  0.4943220000000 1.0
C      1  0.4480100000000  0.4521770000000  0.5726050000000 1.0
C      1  0.4239510000000  0.4976310000000  0.5740160000000 1.0
C      1  0.4394560000000  0.5493860000000  0.5773660000000 1.0
C      1  0.4801640000000  0.5794540000000  0.5712780000000 1.0
C      1  0.5281850000000  0.5635660000000  0.5721930000000 1.0
C      1  0.5654550000000  0.5274190000000  0.5637350000000 1.0
C      1  0.5674960000000  0.4783780000000  0.5794250000000 1.0
C      1  0.5372540000000  0.4327920000000  0.5795070000000 1.0
C      1  0.4918480000000  0.4259960000000  0.5630740000000 1.0
C      1  0.4930640000000  0.4563080000000  0.5388140000000 1.0
C      1  0.4655120000000  0.4728020000000  0.5455080000000 1.0
C      1  0.4519780000000  0.5013340000000  0.5479890000000 1.0
C      1  0.4644810000000  0.5312270000000  0.5541660000000 1.0
C      1  0.4919980000000  0.5478300000000  0.5521140000000 1.0
C      1  0.5222590000000  0.5360650000000  0.5457830000000 1.0
C      1  0.5376200000000  0.5077270000000  0.5453540000000 1.0
C      1  0.5322840000000  0.4833000000000  0.5651370000000 1.0
C      1  0.5213810000000  0.4566680000000  0.5533600000000 1.0
C      1  0.5642660000000  0.4051580000000  0.5019870000000 1.0
C      1  0.4885620000000  0.4001550000000  0.5027490000000 1.0
C      1  0.4252090000000  0.4330460000000  0.4968970000000 1.0
C      1  0.3915880000000  0.4991510000000  0.5008120000000 1.0
C      1  0.4126340000000  0.5695100000000  0.5046680000000 1.0
C      1  0.4765820000000  0.6057480000000  0.5066200000000 1.0
C      1  0.5471900000000  0.5903200000000  0.5011840000000 1.0
C      1  0.5929140000000  0.5335510000000  0.5027040000000 1.0
C      1  0.6066300000000  0.4634830000000  0.4881290000000 1.0
C      1  0.4814510000000  0.5496170000000  0.5021650000000 1.0
C      1  0.5109780000000  0.5367280000000  0.4992270000000 1.0
C      1  0.5166190000000  0.5065630000000  0.4996730000000 1.0
C      1  0.5546920000000  0.4733140000000  0.5114360000000 1.0
C      1  0.5365900000000  0.4519980000000  0.5125400000000 1.0
C      1  0.5172380000000  0.4410810000000  0.4940460000000 1.0
C      1  0.4678100000000  0.4821830000000  0.4966690000000 1.0
C      1  0.4458500000000  0.5026830000000  0.4976720000000 1.0
C      1  0.4549010000000  0.5333850000000  0.5034050000000 1.0
C      1  0.4728850000000  0.4249720000000  0.5077130000000 1.0
C      1  0.4231240000000  0.4589990000000  0.5123120000000 1.0
C      1  0.4082090000000  0.5192400000000  0.5181860000000 1.0
C      1  0.4381550000000  0.5735680000000  0.5210310000000 1.0
C      1  0.4997530000000  0.5916440000000  0.5188770000000 1.0
C      1  0.5542030000000  0.5644110000000  0.5143070000000 1.0
C      1  0.5835650000000  0.5064430000000  0.5099680000000 1.0
C      1  0.5930200000000  0.4472260000000  0.5079920000000 1.0
C      1  0.5394720000000  0.4062680000000  0.5209200000000 1.0
C      1  0.5353370000000  0.5331520000000  0.6102680000000 1.0
C      1  0.5308180000000  0.5069270000000  0.6075590000000 1.0
C      1  0.5178380000000  0.4902970000000  0.5898390000000 1.0
C      1  0.4969590000000  0.4747550000000  0.5990140000000 1.0
C      1  0.4725520000000  0.4779820000000  0.6097830000000 1.0
C      1  0.4634520000000  0.5030820000000  0.6067000000000 1.0
C      1  0.4717510000000  0.5267920000000  0.5973730000000 1.0
C      1  0.4920100000000  0.5443650000000  0.5955320000000 1.0
C      1  0.5188940000000  0.5511250000000  0.5970860000000 1.0
C      1  0.4844110000000  0.6187360000000  0.4819270000000 1.0
C      1  0.5622440000000  0.5950030000000  0.4760020000000 1.0
C      1  0.6105160000000  0.5306640000000  0.4795020000000 1.0
C      1  0.6045270000000  0.4494160000000  0.4615460000000 1.0
C      1  0.5592310000000  0.3916790000000  0.4770800000000 1.0
C      1  0.4760240000000  0.3872790000000  0.4799250000000 1.0
C      1  0.4080760000000  0.4300460000000  0.4739630000000 1.0
C      1  0.3814000000000  0.5097320000000  0.4750790000000 1.0
C      1  0.4120660000000  0.5828670000000  0.4785010000000 1.0
C      1  0.4478360000000  0.5891920000000  0.4705690000000 1.0
C      1  0.5150970000000  0.6007880000000  0.4662260000000 1.0
C      1  0.5755960000000  0.5624700000000  0.4675020000000 1.0
C      1  0.6037010000000  0.4987910000000  0.4582780000000 1.0
C      1  0.5755470000000  0.4365960000000  0.4627460000000 1.0
C      1  0.5223330000000  0.3961680000000  0.4671270000000 1.0
C      1  0.4534190000000  0.4125920000000  0.4616500000000 1.0
C      1  0.4045770000000  0.4670860000000  0.4630050000000 1.0
C      1  0.4073690000000  0.5352270000000  0.4690840000000 1.0
C      1  0.4975140000000  0.5474970000000  0.4121490000000 1.0
C      1  0.5249870000000  0.5359350000000  0.4105500000000 1.0
C      1  0.5272210000000  0.5106960000000  0.3987840000000 1.0
C      1  0.5328430000000  0.4855340000000  0.4093320000000 1.0
C      1  0.5139320000000  0.4663380000000  0.4023900000000 1.0
C      1  0.4892200000000  0.4550200000000  0.4090680000000 1.0
C      1  0.4669470000000  0.4743580000000  0.4093620000000 1.0
C      1  0.4740100000000  0.5015350000000  0.4029760000000 1.0
C      1  0.4740560000000  0.5294850000000  0.4081170000000 1.0
C      1  0.4213870000000  0.5106160000000  0.4560680000000 1.0
C      1  0.4417440000000  0.5680140000000  0.4491630000000 1.0
C      1  0.4926430000000  0.5931200000000  0.4464520000000 1.0
C      1  0.5522030000000  0.5630330000000  0.4471530000000 1.0
C      1  0.5884690000000  0.5197880000000  0.4428130000000 1.0
C      1  0.5716590000000  0.4648260000000  0.4365850000000 1.0
C      1  0.5368230000000  0.4100600000000  0.4439420000000 1.0
C      1  0.4778350000000  0.4132390000000  0.4416070000000 1.0
C      1  0.4246390000000  0.4553350000000  0.4420090000000 1.0
C      1  0.4254160000000  0.4692500000000  0.5634800000000 1.0
C      1  0.4222750000000  0.5273750000000  0.5670430000000 1.0
C      1  0.4520740000000  0.5727330000000  0.5644240000000 1.0
C      1  0.5081630000000  0.5864130000000  0.5648250000000 1.0
C      1  0.5573570000000  0.5557360000000  0.5627010000000 1.0
C      1  0.5775770000000  0.5002320000000  0.5621350000000 1.0
C      1  0.5607990000000  0.4503330000000  0.5727320000000 1.0
C      1  0.5188350000000  0.4144480000000  0.5653440000000 1.0
C      1  0.4633080000000  0.4308090000000  0.5588040000000 1.0
C      1  0.5669170000000  0.5687270000000  0.5398270000000 1.0
C      1  0.5907680000000  0.4917510000000  0.5368180000000 1.0
C      1  0.5696630000000  0.4430480000000  0.5462340000000 1.0
C      1  0.5282800000000  0.3952100000000  0.5462550000000 1.0
C      1  0.4559520000000  0.4267380000000  0.5316960000000 1.0
C      1  0.4120350000000  0.4610110000000  0.5394990000000 1.0
C      1  0.4079160000000  0.5347770000000  0.5433230000000 1.0
C      1  0.4376260000000  0.5887850000000  0.5458560000000 1.0
C      1  0.5114150000000  0.6035500000000  0.5426270000000 1.0
C      1  0.5978850000000  0.5442870000000  0.4566580000000 1.0
C      1  0.5995360000000  0.4717920000000  0.4425470000000 1.0
C      1  0.5651460000000  0.4089860000000  0.4534930000000 1.0
C      1  0.4927770000000  0.3921020000000  0.4569340000000 1.0
C      1  0.4263340000000  0.4263620000000  0.4507570000000 1.0
C      1  0.3964850000000  0.4952360000000  0.4535090000000 1.0
C      1  0.4136620000000  0.5624690000000  0.4564910000000 1.0
C      1  0.4702530000000  0.6069080000000  0.4595830000000 1.0
C      1  0.5425560000000  0.5915660000000  0.4536020000000 1.0
C      1  0.5432800000000  0.4350210000000  0.5347220000000 1.0
C      1  0.4926480000000  0.4474320000000  0.5091180000000 1.0
C      1  0.4530610000000  0.4632230000000  0.5180510000000 1.0
C      1  0.4325790000000  0.5019400000000  0.5245760000000 1.0
C      1  0.4435790000000  0.5438630000000  0.5319440000000 1.0
C      1  0.4882870000000  0.5644040000000  0.5267140000000 1.0
C      1  0.5289990000000  0.5484420000000  0.5195610000000 1.0
C      1  0.5452600000000  0.5015340000000  0.5155570000000 1.0
C      1  0.5789860000000  0.4645000000000  0.5275770000000 1.0
C      1  0.5605710000000  0.5142540000000  0.4373170000000 1.0
C      1  0.5500610000000  0.4856620000000  0.4351200000000 1.0
C      1  0.5258190000000  0.4365760000000  0.4397230000000 1.0
C      1  0.4929480000000  0.4388920000000  0.4344120000000 1.0
C      1  0.4484250000000  0.4723780000000  0.4338550000000 1.0
C      1  0.4444260000000  0.5015130000000  0.4404500000000 1.0
C      1  0.4624220000000  0.5481520000000  0.4391730000000 1.0
C      1  0.4916070000000  0.5635800000000  0.4379970000000 1.0
C      1  0.5404860000000  0.5364450000000  0.4366010000000 1.0
C      1  0.4930570000000  0.4916450000000  0.5072260000000 1.0
END
