TITL C-3578203-1966-417 4.02024976415606e-05 125000 -65.6256857980385 0 0 13 (Cs) n - 1
REM
REM in /home/bkarasulu/work/CARBON/AIRSS/Generating-Clusters/EDIP-Nigel-Params/with-SteepDescent/Higher-Symm/SD-CG/HFTN-CG
REM
REM
REM
REM
REM
REM ./C.cell (12c818d87b63d06a65506943cc24bca4)
REM
REM compiler GCC version 9.2.1 20190827 (Red Hat 9.2.1-1)
REM options -cpp -mtune=generic -march=x86-64 -g -O0 -fpre-include=/usr/include/finclude/math-vector-fortran.h
REM seed -986948204 -291609169 -1247450339 1570081106 1497300575 -554713393 689645258 -1638712329 -1639486924 -1789308566 -1692319389 -839154475 278614892 -311738397 -1423946897 2001598543 -1710617266 1715942712 1164332004 2142921404 -1133108161 401102277 -1497452377 -1018166836 -1672864204 -2107177098 1819151257 -1224210348 -538665926 -1357998599 -323537220 -184646349 498181275
REM
CELL 1.54180   50.00000   50.00000   50.00000   90.00000   90.00000   90.00000
LATT -1
SFAC C  
C      1  0.4631400000000  0.5073530000000  0.5277940000000 1.0
C      1  0.4663820000000  0.4780270000000  0.5229140000000 1.0
C      1  0.4631290000000  0.4754140000000  0.4933010000000 1.0
C      1  0.4873780000000  0.4857440000000  0.4798770000000 1.0
C      1  0.4829870000000  0.5129410000000  0.4716180000000 1.0
C      1  0.4829930000000  0.5318470000000  0.4920360000000 1.0
C      1  0.4873900000000  0.5215230000000  0.5185170000000 1.0
C      1  0.5029590000000  0.4979370000000  0.5044670000000 1.0
C      1  0.5300670000000  0.5038660000000  0.4989680000000 1.0
C      1  0.5810300000000  0.5114220000000  0.4919570000000 1.0
C      1  0.4227380000000  0.5028210000000  0.4999690000000 1.0
C      1  0.4499130000000  0.5041010000000  0.4987750000000 1.0
C      1  0.5560970000000  0.5072620000000  0.4958160000000 1.0
END
