TITL C-3577080-309-418 1.02705214862652e-06 125000 -718.271119228583 0 0 114 (C1) n - 1
REM
REM in /home/bkarasulu/work/CARBON/AIRSS/Generating-Clusters/EDIP-Nigel-Params/with-SteepDescent/Higher-Symm/SD-CG/HFTN-CG
REM
REM
REM
REM
REM
REM ./C.cell (12c818d87b63d06a65506943cc24bca4)
REM
REM compiler GCC version 9.2.1 20190827 (Red Hat 9.2.1-1)
REM options -cpp -mtune=generic -march=x86-64 -g -O0 -fpre-include=/usr/include/finclude/math-vector-fortran.h
REM seed 708273240 -1654512660 956413787 2084977174 -19271447 -1451363874 1809511564 -421446477 -233087043 1971039281 -1448846308 -1655378972 -829393498 -565359806 -929671390 1899382177 -937407047 -529396627 -2101660179 -1073764494 -1566944580 -1113523558 1285483983 660437143 -777656194 480206638 769268102 48607976 1967774929 -1624513404 1745692277 686290128 1532633372
REM
CELL 1.54180   50.00000   50.00000   50.00000   90.00000   90.00000   90.00000
LATT -1
SFAC C  
C      1  0.4741160000000  0.5278540000000  0.4863440000000 1.0
C      1  0.5238150000000  0.5169480000000  0.4815800000000 1.0
C      1  0.5003650000000  0.4739900000000  0.5311770000000 1.0
C      1  0.5247570000000  0.5266380000000  0.5103920000000 1.0
C      1  0.5296600000000  0.4742730000000  0.4926890000000 1.0
C      1  0.4628550000000  0.4650970000000  0.5015700000000 1.0
C      1  0.4750080000000  0.5159630000000  0.5144980000000 1.0
C      1  0.4715450000000  0.4835460000000  0.4798280000000 1.0
C      1  0.5267290000000  0.4824180000000  0.5203920000000 1.0
C      1  0.4952140000000  0.4784360000000  0.4654930000000 1.0
C      1  0.5013010000000  0.5180170000000  0.5274630000000 1.0
C      1  0.4973950000000  0.5225610000000  0.4678800000000 1.0
C      1  0.4304610000000  0.5397610000000  0.5293680000000 1.0
C      1  0.5422240000000  0.5277670000000  0.4314280000000 1.0
C      1  0.5322290000000  0.4273520000000  0.5412070000000 1.0
C      1  0.5718130000000  0.5396600000000  0.4714640000000 1.0
C      1  0.5708160000000  0.4597230000000  0.5302980000000 1.0
C      1  0.4262010000000  0.4596740000000  0.4702760000000 1.0
C      1  0.4584280000000  0.5295760000000  0.5715230000000 1.0
C      1  0.4576640000000  0.4704760000000  0.4299050000000 1.0
C      1  0.5421750000000  0.4682540000000  0.5719990000000 1.0
C      1  0.4690440000000  0.4329180000000  0.4642540000000 1.0
C      1  0.4692980000000  0.5707910000000  0.5400360000000 1.0
C      1  0.5328530000000  0.5697340000000  0.4598210000000 1.0
C      1  0.5106910000000  0.4085470000000  0.4607170000000 1.0
C      1  0.4096980000000  0.4595730000000  0.5144200000000 1.0
C      1  0.4555240000000  0.5137800000000  0.4078690000000 1.0
C      1  0.4871580000000  0.4068520000000  0.5383780000000 1.0
C      1  0.4866950000000  0.5881840000000  0.4606750000000 1.0
C      1  0.5118680000000  0.5945370000000  0.5420590000000 1.0
C      1  0.5897680000000  0.4584750000000  0.4857700000000 1.0
C      1  0.5906970000000  0.5411920000000  0.5159460000000 1.0
C      1  0.4073790000000  0.5419650000000  0.4863930000000 1.0
C      1  0.5369550000000  0.5139300000000  0.5909520000000 1.0
C      1  0.5418910000000  0.4851710000000  0.4080120000000 1.0
C      1  0.4582810000000  0.4845410000000  0.5918650000000 1.0
C      1  0.4437560000000  0.4281380000000  0.5279530000000 1.0
C      1  0.4302890000000  0.5298930000000  0.4452630000000 1.0
C      1  0.5263700000000  0.4432140000000  0.4307970000000 1.0
C      1  0.5573550000000  0.4268840000000  0.4700140000000 1.0
C      1  0.5561940000000  0.5721080000000  0.5300360000000 1.0
C      1  0.4411370000000  0.5719540000000  0.4702830000000 1.0
C      1  0.5652080000000  0.5297360000000  0.5554430000000 1.0
C      1  0.5642550000000  0.4699660000000  0.4473990000000 1.0
C      1  0.4372080000000  0.4698860000000  0.5521540000000 1.0
C      1  0.4736430000000  0.4423000000000  0.5675810000000 1.0
C      1  0.4676180000000  0.5574150000000  0.4284880000000 1.0
C      1  0.5275350000000  0.5580990000000  0.5698500000000 1.0
C      1  0.5047760000000  0.5504890000000  0.4237440000000 1.0
C      1  0.5575480000000  0.4201430000000  0.4992990000000 1.0
C      1  0.4272920000000  0.4960730000000  0.5492610000000 1.0
C      1  0.5007440000000  0.5563750000000  0.5795950000000 1.0
C      1  0.4981030000000  0.4439960000000  0.4214220000000 1.0
C      1  0.5009070000000  0.4427720000000  0.5796700000000 1.0
C      1  0.4394200000000  0.4214560000000  0.5010600000000 1.0
C      1  0.4426500000000  0.5796620000000  0.4992010000000 1.0
C      1  0.5565020000000  0.5797270000000  0.5012660000000 1.0
C      1  0.5753340000000  0.4957150000000  0.4507160000000 1.0
C      1  0.5741500000000  0.5030120000000  0.5520210000000 1.0
C      1  0.4218890000000  0.5030270000000  0.4489220000000 1.0
C      1  0.4537090000000  0.4634120000000  0.5743390000000 1.0
C      1  0.4635050000000  0.5764570000000  0.4506010000000 1.0
C      1  0.5752490000000  0.4493160000000  0.4639390000000 1.0
C      1  0.5468740000000  0.4641440000000  0.4253380000000 1.0
C      1  0.5430100000000  0.5339040000000  0.5727070000000 1.0
C      1  0.4497860000000  0.5347000000000  0.4252020000000 1.0
C      1  0.5322370000000  0.5764140000000  0.5478860000000 1.0
C      1  0.5324310000000  0.4237410000000  0.4523170000000 1.0
C      1  0.4721830000000  0.4317100000000  0.5383060000000 1.0
C      1  0.4262660000000  0.4500080000000  0.5347800000000 1.0
C      1  0.4227780000000  0.5498390000000  0.4647850000000 1.0
C      1  0.5737280000000  0.5494350000000  0.5362220000000 1.0
C      1  0.4159030000000  0.5259060000000  0.5074720000000 1.0
C      1  0.5282090000000  0.5088680000000  0.4123400000000 1.0
C      1  0.5107910000000  0.4137350000000  0.5250030000000 1.0
C      1  0.5847360000000  0.5252700000000  0.4938750000000 1.0
C      1  0.5836620000000  0.4745690000000  0.5077840000000 1.0
C      1  0.4137600000000  0.4757860000000  0.4920010000000 1.0
C      1  0.4722090000000  0.5083070000000  0.5879810000000 1.0
C      1  0.4707810000000  0.4909330000000  0.4117710000000 1.0
C      1  0.5301270000000  0.4872700000000  0.5904810000000 1.0
C      1  0.4906330000000  0.4177290000000  0.4777020000000 1.0
C      1  0.4901820000000  0.5869280000000  0.5262270000000 1.0
C      1  0.5129790000000  0.5887690000000  0.4694280000000 1.0
C      1  0.4734370000000  0.5588650000000  0.4888280000000 1.0
C      1  0.5473700000000  0.4949140000000  0.4781030000000 1.0
C      1  0.4935130000000  0.4749190000000  0.5597120000000 1.0
C      1  0.5259890000000  0.5578110000000  0.5096330000000 1.0
C      1  0.5290440000000  0.4446430000000  0.4898980000000 1.0
C      1  0.4855440000000  0.4518190000000  0.5173750000000 1.0
C      1  0.4521170000000  0.4936260000000  0.5192100000000 1.0
C      1  0.4506220000000  0.5066070000000  0.4753680000000 1.0
C      1  0.5478410000000  0.5066650000000  0.5233420000000 1.0
C      1  0.5071990000000  0.4764290000000  0.4398210000000 1.0
C      1  0.5033500000000  0.5250370000000  0.5567640000000 1.0
C      1  0.4904930000000  0.5269480000000  0.4374310000000 1.0
C      1  0.5651320000000  0.5220480000000  0.4486390000000 1.0
C      1  0.5254510000000  0.4452190000000  0.5645410000000 1.0
C      1  0.4468100000000  0.5634080000000  0.5228620000000 1.0
C      1  0.4396070000000  0.5215660000000  0.5504000000000 1.0
C      1  0.4342500000000  0.4771210000000  0.4474230000000 1.0
C      1  0.5621290000000  0.4770420000000  0.5523690000000 1.0
C      1  0.4743430000000  0.4473760000000  0.4380150000000 1.0
C      1  0.4764230000000  0.5524560000000  0.5635360000000 1.0
C      1  0.5302030000000  0.5539040000000  0.4351190000000 1.0
C      1  0.5547540000000  0.5633070000000  0.4775300000000 1.0
C      1  0.5546710000000  0.4354700000000  0.5238800000000 1.0
C      1  0.4482490000000  0.4433200000000  0.4839240000000 1.0
C      1  0.4991460000000  0.5004940000000  0.4218770000000 1.0
C      1  0.4983190000000  0.5012420000000  0.5749360000000 1.0
C      1  0.5038600000000  0.4317490000000  0.5013570000000 1.0
C      1  0.4306420000000  0.5007810000000  0.4984380000000 1.0
C      1  0.4994150000000  0.5731960000000  0.5006660000000 1.0
C      1  0.5681810000000  0.5005170000000  0.5007300000000 1.0
END
