TITL C-3578207-9274-161 0.00273282880820828 125000 -155.450789387925 0 0 27 (C1) n - 1
REM
REM in /home/bkarasulu/work/CARBON/AIRSS/Generating-Clusters/EDIP-Nigel-Params/with-SteepDescent/Higher-Symm/SD-CG/HFTN-CG
REM
REM
REM
REM
REM
REM ./C.cell (12c818d87b63d06a65506943cc24bca4)
REM
REM compiler GCC version 9.2.1 20190827 (Red Hat 9.2.1-1)
REM options -cpp -mtune=generic -march=x86-64 -g -O0 -fpre-include=/usr/include/finclude/math-vector-fortran.h
REM seed -214895139 -2070435343 -1894709983 1737263732 -934913937 -808313108 -1912799077 -2071164316 -1497855596 -1167659124 904518604 -969018828 -2118990226 585778857 -1952449254 -366712500 1152694206 2067762814 -1499349714 -2121076071 -1004931459 1485617053 463538267 950199813 -489475951 161811669 -1560514242 143988316 -15089269 447028537 -1831583320 -1653567521 -615442056
REM
CELL 1.54180   50.00000   50.00000   50.00000   90.00000   90.00000   90.00000
LATT -1
SFAC C  
C      1  0.5592810000000  0.4971360000000  0.5039430000000 1.0
C      1  0.4871110000000  0.4633010000000  0.4657750000000 1.0
C      1  0.5479430000000  0.4596710000000  0.5412370000000 1.0
C      1  0.5022870000000  0.4520910000000  0.5556580000000 1.0
C      1  0.5445960000000  0.5348310000000  0.4871640000000 1.0
C      1  0.4538900000000  0.4881580000000  0.4818680000000 1.0
C      1  0.4970820000000  0.4934200000000  0.5207870000000 1.0
C      1  0.4768510000000  0.5065680000000  0.4777030000000 1.0
C      1  0.4405320000000  0.4967450000000  0.5060390000000 1.0
C      1  0.5548070000000  0.4785440000000  0.5238380000000 1.0
C      1  0.5122050000000  0.4255990000000  0.5506750000000 1.0
C      1  0.4561600000000  0.5185220000000  0.5185570000000 1.0
C      1  0.5010500000000  0.5380030000000  0.5070300000000 1.0
C      1  0.5203950000000  0.4799410000000  0.4772720000000 1.0
C      1  0.4869830000000  0.5482600000000  0.4538740000000 1.0
C      1  0.5325370000000  0.4443050000000  0.5585800000000 1.0
C      1  0.5601770000000  0.5251890000000  0.5091740000000 1.0
C      1  0.4462400000000  0.5419700000000  0.4765640000000 1.0
C      1  0.5198050000000  0.5487140000000  0.4895940000000 1.0
C      1  0.5427210000000  0.4970050000000  0.4801420000000 1.0
C      1  0.4975150000000  0.4897950000000  0.4638780000000 1.0
C      1  0.4674440000000  0.5307580000000  0.4626300000000 1.0
C      1  0.4841860000000  0.5147420000000  0.5069220000000 1.0
C      1  0.5090000000000  0.5578410000000  0.4657800000000 1.0
C      1  0.4615000000000  0.4617220000000  0.4766500000000 1.0
C      1  0.4384830000000  0.5351730000000  0.5021970000000 1.0
C      1  0.4992210000000  0.4719970000000  0.5364680000000 1.0
END
