TITL C-3578200-9634-812 -1.0287009116862e-06 125000 -221.928093629714 0 0 38 (C1) n - 1
REM
REM in /home/bkarasulu/work/CARBON/AIRSS/Generating-Clusters/EDIP-Nigel-Params/with-SteepDescent/Higher-Symm/SD-CG/HFTN-CG
REM
REM
REM
REM
REM
REM ./C.cell (12c818d87b63d06a65506943cc24bca4)
REM
REM compiler GCC version 9.2.1 20190827 (Red Hat 9.2.1-1)
REM options -cpp -mtune=generic -march=x86-64 -g -O0 -fpre-include=/usr/include/finclude/math-vector-fortran.h
REM seed 1418028785 -919118443 -1367883106 -23427402 -151340201 172925930 -789016235 86726675 -1784534579 555592312 492452609 1384332179 2046674325 -1586616051 335025996 -764305727 55562406 222160579 -1205244704 -665019248 -222167763 -28012671 -1080453713 -1638602226 910642142 1786768740 1538853158 -1483713673 566713307 -1725222450 1500901357 -1661603680 1176318216
REM
CELL 1.54180   50.00000   50.00000   50.00000   90.00000   90.00000   90.00000
LATT -1
SFAC C  
C      1  0.5183250000000  0.5113450000000  0.4394290000000 1.0
C      1  0.5492780000000  0.5084570000000  0.5431120000000 1.0
C      1  0.4405800000000  0.5070690000000  0.5187720000000 1.0
C      1  0.4812340000000  0.5389440000000  0.4807790000000 1.0
C      1  0.5287070000000  0.5403160000000  0.4942400000000 1.0
C      1  0.4933490000000  0.5378490000000  0.5283940000000 1.0
C      1  0.4916470000000  0.4887340000000  0.4731280000000 1.0
C      1  0.5327920000000  0.4882810000000  0.5001540000000 1.0
C      1  0.4862280000000  0.4873730000000  0.5247770000000 1.0
C      1  0.4660400000000  0.4812420000000  0.4644350000000 1.0
C      1  0.5476010000000  0.4770390000000  0.4784950000000 1.0
C      1  0.4956280000000  0.4801030000000  0.5502980000000 1.0
C      1  0.4571170000000  0.4813700000000  0.5210260000000 1.0
C      1  0.5121790000000  0.4864680000000  0.4533960000000 1.0
C      1  0.5458720000000  0.4826800000000  0.5266430000000 1.0
C      1  0.5075930000000  0.5378450000000  0.5526950000000 1.0
C      1  0.4530110000000  0.5391090000000  0.4802620000000 1.0
C      1  0.5430610000000  0.5440900000000  0.4702320000000 1.0
C      1  0.5611190000000  0.5287830000000  0.5278050000000 1.0
C      1  0.4480320000000  0.5256480000000  0.5384580000000 1.0
C      1  0.4957980000000  0.5277740000000  0.4365150000000 1.0
C      1  0.4698800000000  0.5415690000000  0.5435730000000 1.0
C      1  0.4803850000000  0.5436010000000  0.4529470000000 1.0
C      1  0.5528190000000  0.5458250000000  0.5078650000000 1.0
C      1  0.5154940000000  0.4646250000000  0.5605170000000 1.0
C      1  0.4447900000000  0.4681790000000  0.4752530000000 1.0
C      1  0.5431010000000  0.4526720000000  0.4665750000000 1.0
C      1  0.4767280000000  0.4416230000000  0.4992700000000 1.0
C      1  0.5045210000000  0.4384500000000  0.4949630000000 1.0
C      1  0.5205680000000  0.4414610000000  0.5181600000000 1.0
C      1  0.4392570000000  0.5191840000000  0.4934860000000 1.0
C      1  0.5398370000000  0.5258750000000  0.4498120000000 1.0
C      1  0.5267560000000  0.5183400000000  0.5567730000000 1.0
C      1  0.5319520000000  0.4581650000000  0.5383340000000 1.0
C      1  0.4540850000000  0.4589230000000  0.5004540000000 1.0
C      1  0.5151500000000  0.4514730000000  0.4704840000000 1.0
C      1  0.5009450000000  0.5447720000000  0.5012830000000 1.0
C      1  0.5029810000000  0.4823370000000  0.4999150000000 1.0
END
