TITL C-3578204-4308-468 -1.60425984704439e-07 125000 -821.821556851235 0 0 130 (C1) n - 1
REM
REM in /home/bkarasulu/work/CARBON/AIRSS/Generating-Clusters/EDIP-Nigel-Params/with-SteepDescent/Higher-Symm/SD-CG/HFTN-CG
REM
REM
REM
REM
REM
REM ./C.cell (12c818d87b63d06a65506943cc24bca4)
REM
REM compiler GCC version 9.2.1 20190827 (Red Hat 9.2.1-1)
REM options -cpp -mtune=generic -march=x86-64 -g -O0 -fpre-include=/usr/include/finclude/math-vector-fortran.h
REM seed -1203634940 -1538355529 -767809056 -2122005925 -1416625585 266433345 -609234762 152550821 1283949744 -1677841667 298467127 343510429 1879859839 -2118449066 -1170918777 -589030216 -2073327317 -1518394730 -1415223350 687739045 2018144880 101617488 1124152424 -1160176213 1395078049 1294939219 388229356 -1769942452 -919464793 -802332637 1544261329 -1141233493 2129334717
REM
CELL 1.54180   50.00000   50.00000   50.00000   90.00000   90.00000   90.00000
LATT -1
SFAC C  
C      1  0.4477690000000  0.4120010000000  0.4986010000000 1.0
C      1  0.4817040000000  0.4130230000000  0.5496730000000 1.0
C      1  0.5396370000000  0.4134500000000  0.5309280000000 1.0
C      1  0.5425610000000  0.4135470000000  0.4697570000000 1.0
C      1  0.4842150000000  0.4128900000000  0.4498380000000 1.0
C      1  0.5702380000000  0.4609720000000  0.5164460000000 1.0
C      1  0.5408870000000  0.4587960000000  0.4370000000000 1.0
C      1  0.4526030000000  0.4575550000000  0.4406010000000 1.0
C      1  0.4327260000000  0.4602940000000  0.5281070000000 1.0
C      1  0.5025980000000  0.4601960000000  0.5751010000000 1.0
C      1  0.5279940000000  0.4358010000000  0.4545330000000 1.0
C      1  0.4653440000000  0.4351240000000  0.4587050000000 1.0
C      1  0.4466480000000  0.4334200000000  0.5229970000000 1.0
C      1  0.5016690000000  0.4360480000000  0.5541930000000 1.0
C      1  0.5551070000000  0.4345380000000  0.5120980000000 1.0
C      1  0.5825700000000  0.5063300000000  0.5370690000000 1.0
C      1  0.5611320000000  0.5070850000000  0.4329960000000 1.0
C      1  0.4560800000000  0.5061540000000  0.4214040000000 1.0
C      1  0.4118010000000  0.5060750000000  0.5182750000000 1.0
C      1  0.4896370000000  0.5077010000000  0.5910050000000 1.0
C      1  0.5112990000000  0.4925220000000  0.4129040000000 1.0
C      1  0.4215640000000  0.4914290000000  0.4634970000000 1.0
C      1  0.4416000000000  0.4922500000000  0.5650210000000 1.0
C      1  0.5424730000000  0.4918560000000  0.5756060000000 1.0
C      1  0.5859030000000  0.4929520000000  0.4817890000000 1.0
C      1  0.4537290000000  0.4225920000000  0.5500600000000 1.0
C      1  0.5293720000000  0.4246900000000  0.5561690000000 1.0
C      1  0.5651190000000  0.4236890000000  0.4859990000000 1.0
C      1  0.5073950000000  0.4242260000000  0.4357170000000 1.0
C      1  0.4412440000000  0.4235170000000  0.4722250000000 1.0
C      1  0.4990750000000  0.4502550000000  0.5262820000000 1.0
C      1  0.5227630000000  0.4407060000000  0.5071450000000 1.0
C      1  0.5138690000000  0.4502650000000  0.4786730000000 1.0
C      1  0.4817390000000  0.4500920000000  0.4803800000000 1.0
C      1  0.4755510000000  0.4389470000000  0.5088690000000 1.0
C      1  0.4458810000000  0.4950080000000  0.5938170000000 1.0
C      1  0.5714340000000  0.4927040000000  0.5784220000000 1.0
C      1  0.5988610000000  0.4951330000000  0.4556070000000 1.0
C      1  0.4901320000000  0.4946270000000  0.3925830000000 1.0
C      1  0.3964100000000  0.4928170000000  0.4781700000000 1.0
C      1  0.4752310000000  0.5186990000000  0.4017170000000 1.0
C      1  0.3991420000000  0.5177230000000  0.4938050000000 1.0
C      1  0.4622180000000  0.5198130000000  0.5949060000000 1.0
C      1  0.5785500000000  0.5176510000000  0.5643800000000 1.0
C      1  0.5857700000000  0.5194630000000  0.4450280000000 1.0
C      1  0.5287310000000  0.5603770000000  0.5754180000000 1.0
C      1  0.5806260000000  0.5608950000000  0.4962010000000 1.0
C      1  0.5212300000000  0.5609990000000  0.4222110000000 1.0
C      1  0.4326100000000  0.5601240000000  0.4558950000000 1.0
C      1  0.4372460000000  0.5600550000000  0.5506460000000 1.0
C      1  0.5911320000000  0.4716130000000  0.4404840000000 1.0
C      1  0.4734550000000  0.4710530000000  0.3952660000000 1.0
C      1  0.3941870000000  0.4693870000000  0.4949490000000 1.0
C      1  0.4608150000000  0.4719900000000  0.6028470000000 1.0
C      1  0.5825380000000  0.4691950000000  0.5658240000000 1.0
C      1  0.4849160000000  0.5124600000000  0.5419030000000 1.0
C      1  0.5347350000000  0.5137450000000  0.5272740000000 1.0
C      1  0.5372570000000  0.5137450000000  0.4753130000000 1.0
C      1  0.4883960000000  0.5136770000000  0.4573130000000 1.0
C      1  0.4565050000000  0.5131710000000  0.4982020000000 1.0
C      1  0.4908220000000  0.5356300000000  0.5233290000000 1.0
C      1  0.5192100000000  0.5365970000000  0.5161460000000 1.0
C      1  0.5213410000000  0.5364400000000  0.4868370000000 1.0
C      1  0.4942470000000  0.5364270000000  0.4758600000000 1.0
C      1  0.4754000000000  0.5362870000000  0.4983830000000 1.0
C      1  0.5597570000000  0.5615790000000  0.5441250000000 1.0
C      1  0.5600370000000  0.5623220000000  0.4571940000000 1.0
C      1  0.4777630000000  0.5618080000000  0.4296160000000 1.0
C      1  0.4263900000000  0.5610510000000  0.4995500000000 1.0
C      1  0.4768430000000  0.5617120000000  0.5700580000000 1.0
C      1  0.5513840000000  0.5412510000000  0.5663560000000 1.0
C      1  0.5788400000000  0.5421410000000  0.4716330000000 1.0
C      1  0.4975990000000  0.5417330000000  0.4163090000000 1.0
C      1  0.4200790000000  0.5407810000000  0.4766470000000 1.0
C      1  0.4533550000000  0.5412060000000  0.5693330000000 1.0
C      1  0.4334240000000  0.5479980000000  0.5244410000000 1.0
C      1  0.5026720000000  0.5486820000000  0.5700760000000 1.0
C      1  0.5689640000000  0.5486130000000  0.5198840000000 1.0
C      1  0.5399970000000  0.5490990000000  0.4409880000000 1.0
C      1  0.4562010000000  0.5484040000000  0.4435450000000 1.0
C      1  0.5370120000000  0.5202300000000  0.4447170000000 1.0
C      1  0.4592880000000  0.5196470000000  0.4478740000000 1.0
C      1  0.4383500000000  0.5191640000000  0.5231860000000 1.0
C      1  0.5027200000000  0.5196350000000  0.5665260000000 1.0
C      1  0.5640840000000  0.5198430000000  0.5176820000000 1.0
C      1  0.4470560000000  0.5918390000000  0.4927810000000 1.0
C      1  0.4763400000000  0.5922320000000  0.5482090000000 1.0
C      1  0.5385070000000  0.5920930000000  0.5372500000000 1.0
C      1  0.5470460000000  0.5926710000000  0.4753180000000 1.0
C      1  0.4906000000000  0.5923470000000  0.4477000000000 1.0
C      1  0.5216500000000  0.5944530000000  0.4887360000000 1.0
C      1  0.4955950000000  0.5944210000000  0.4759680000000 1.0
C      1  0.4754570000000  0.5942790000000  0.4968380000000 1.0
C      1  0.4891020000000  0.5940780000000  0.5224460000000 1.0
C      1  0.5177110000000  0.5944540000000  0.5174780000000 1.0
C      1  0.5220950000000  0.4873760000000  0.4850060000000 1.0
C      1  0.4921200000000  0.4878630000000  0.4751420000000 1.0
C      1  0.4747070000000  0.4887110000000  0.4996530000000 1.0
C      1  0.4929490000000  0.4852460000000  0.5242280000000 1.0
C      1  0.5214460000000  0.4893040000000  0.5151040000000 1.0
C      1  0.4113480000000  0.4768140000000  0.5165650000000 1.0
C      1  0.4867530000000  0.4783160000000  0.5922470000000 1.0
C      1  0.5814940000000  0.4770170000000  0.5383540000000 1.0
C      1  0.5634630000000  0.4778510000000  0.4356400000000 1.0
C      1  0.4604420000000  0.4771580000000  0.4201740000000 1.0
C      1  0.5311910000000  0.4650410000000  0.5743950000000 1.0
C      1  0.5793910000000  0.4657080000000  0.4896370000000 1.0
C      1  0.5172530000000  0.4650530000000  0.4213540000000 1.0
C      1  0.4303550000000  0.4641060000000  0.4581200000000 1.0
C      1  0.4411980000000  0.4649980000000  0.5551360000000 1.0
C      1  0.4543230000000  0.5149260000000  0.5495370000000 1.0
C      1  0.5325800000000  0.5152520000000  0.5591510000000 1.0
C      1  0.5666080000000  0.5158990000000  0.4868690000000 1.0
C      1  0.5088230000000  0.5155380000000  0.4328930000000 1.0
C      1  0.4395340000000  0.5148060000000  0.4712410000000 1.0
C      1  0.5328830000000  0.5858780000000  0.5640270000000 1.0
C      1  0.5704260000000  0.5862950000000  0.4894420000000 1.0
C      1  0.5111800000000  0.5863010000000  0.4296250000000 1.0
C      1  0.4364280000000  0.5855050000000  0.4676050000000 1.0
C      1  0.4491580000000  0.5856050000000  0.5504600000000 1.0
C      1  0.4193680000000  0.4413490000000  0.4710530000000 1.0
C      1  0.4483040000000  0.4419460000000  0.5700540000000 1.0
C      1  0.5468110000000  0.4418580000000  0.5700330000000 1.0
C      1  0.5817010000000  0.4427110000000  0.4730760000000 1.0
C      1  0.5013660000000  0.4423860000000  0.4147340000000 1.0
C      1  0.5201600000000  0.4017150000000  0.4861610000000 1.0
C      1  0.4927580000000  0.3983270000000  0.4749380000000 1.0
C      1  0.4738570000000  0.3967450000000  0.4985000000000 1.0
C      1  0.4901630000000  0.3998590000000  0.5234280000000 1.0
C      1  0.5189000000000  0.3982750000000  0.5155560000000 1.0
END
