TITL C-3578201-9217-273 -2.91361634424747e-06 125000 -1173.61879824501 0 0 186 (C1) n - 1
REM
REM in /home/bkarasulu/work/CARBON/AIRSS/Generating-Clusters/EDIP-Nigel-Params/with-SteepDescent/Higher-Symm/SD-CG/HFTN-CG
REM
REM
REM
REM
REM
REM ./C.cell (12c818d87b63d06a65506943cc24bca4)
REM
REM compiler GCC version 9.2.1 20190827 (Red Hat 9.2.1-1)
REM options -cpp -mtune=generic -march=x86-64 -g -O0 -fpre-include=/usr/include/finclude/math-vector-fortran.h
REM seed -1761670098 1330530094 348785904 460959764 -953228622 -975260792 -156567751 -451308779 680936806 914463029 1660568961 -866740352 2046531854 1185364346 -466873309 236112530 1529155315 703886787 -829878450 910427891 155251496 1888714587 514355986 -752275789 -2115101631 -1582379971 497833450 1309154822 526827298 792093355 876753835 191755609 -168754626
REM
CELL 1.54180   50.00000   50.00000   50.00000   90.00000   90.00000   90.00000
LATT -1
SFAC C  
C      1  0.4194820000000  0.5104890000000  0.5800580000000 1.0
C      1  0.4750650000000  0.5660350000000  0.5738520000000 1.0
C      1  0.5722140000000  0.5415970000000  0.5792570000000 1.0
C      1  0.5542970000000  0.4444830000000  0.5805260000000 1.0
C      1  0.4724940000000  0.4253130000000  0.5781660000000 1.0
C      1  0.4450640000000  0.5446450000000  0.5025390000000 1.0
C      1  0.4998190000000  0.5691280000000  0.5146460000000 1.0
C      1  0.5573470000000  0.5161780000000  0.5193020000000 1.0
C      1  0.5367600000000  0.4339920000000  0.5093160000000 1.0
C      1  0.4638260000000  0.4528430000000  0.5092010000000 1.0
C      1  0.5248270000000  0.5083760000000  0.4799350000000 1.0
C      1  0.5119980000000  0.4797640000000  0.4757900000000 1.0
C      1  0.4852950000000  0.4792840000000  0.4616560000000 1.0
C      1  0.4709870000000  0.5127350000000  0.4642050000000 1.0
C      1  0.5129550000000  0.5302450000000  0.4645880000000 1.0
C      1  0.4873810000000  0.4824490000000  0.5346680000000 1.0
C      1  0.4678890000000  0.4987690000000  0.5200110000000 1.0
C      1  0.4851170000000  0.5227910000000  0.5116330000000 1.0
C      1  0.5136840000000  0.5115280000000  0.5082790000000 1.0
C      1  0.5117810000000  0.4841540000000  0.5193210000000 1.0
C      1  0.5371810000000  0.4573790000000  0.6007290000000 1.0
C      1  0.4726310000000  0.4473010000000  0.5979070000000 1.0
C      1  0.4483270000000  0.5112220000000  0.5888080000000 1.0
C      1  0.4901490000000  0.5480000000000  0.5938620000000 1.0
C      1  0.5427780000000  0.5212870000000  0.5926600000000 1.0
C      1  0.6118330000000  0.5103160000000  0.5089440000000 1.0
C      1  0.5524220000000  0.3857140000000  0.5202410000000 1.0
C      1  0.4250090000000  0.4314430000000  0.5073620000000 1.0
C      1  0.3878420000000  0.5597570000000  0.5200340000000 1.0
C      1  0.5126500000000  0.6055630000000  0.5111280000000 1.0
C      1  0.5095500000000  0.4239520000000  0.4422650000000 1.0
C      1  0.4248990000000  0.4600090000000  0.4380050000000 1.0
C      1  0.4491770000000  0.5592500000000  0.4423460000000 1.0
C      1  0.5422760000000  0.5678680000000  0.4388310000000 1.0
C      1  0.5766930000000  0.4853500000000  0.4443340000000 1.0
C      1  0.5373030000000  0.4144660000000  0.4386230000000 1.0
C      1  0.4274180000000  0.4296960000000  0.4376480000000 1.0
C      1  0.4232010000000  0.5465870000000  0.4458860000000 1.0
C      1  0.5260610000000  0.5921420000000  0.4315950000000 1.0
C      1  0.5964530000000  0.5078600000000  0.4394660000000 1.0
C      1  0.5724910000000  0.4144560000000  0.4870920000000 1.0
C      1  0.4519890000000  0.4012800000000  0.4841510000000 1.0
C      1  0.3878320000000  0.5243580000000  0.4872130000000 1.0
C      1  0.4722740000000  0.6162080000000  0.4901790000000 1.0
C      1  0.6004810000000  0.5464010000000  0.4841000000000 1.0
C      1  0.5078330000000  0.3870490000000  0.4877070000000 1.0
C      1  0.3938330000000  0.4626160000000  0.4911210000000 1.0
C      1  0.4210800000000  0.5921660000000  0.4980560000000 1.0
C      1  0.5625910000000  0.5976280000000  0.4898320000000 1.0
C      1  0.6087940000000  0.4655740000000  0.4916250000000 1.0
C      1  0.4985010000000  0.4767060000000  0.4338280000000 1.0
C      1  0.4778900000000  0.4948120000000  0.4202310000000 1.0
C      1  0.4810180000000  0.5206920000000  0.4356610000000 1.0
C      1  0.5141890000000  0.5223630000000  0.4375510000000 1.0
C      1  0.5245410000000  0.4934540000000  0.4362770000000 1.0
C      1  0.4576090000000  0.4079910000000  0.5349640000000 1.0
C      1  0.3953330000000  0.5173530000000  0.5374130000000 1.0
C      1  0.4741040000000  0.5972360000000  0.5367890000000 1.0
C      1  0.5916730000000  0.5485760000000  0.5353420000000 1.0
C      1  0.5684510000000  0.4252590000000  0.5368370000000 1.0
C      1  0.5061280000000  0.5596170000000  0.4642780000000 1.0
C      1  0.5578210000000  0.5158180000000  0.4721410000000 1.0
C      1  0.5288010000000  0.4557990000000  0.4669170000000 1.0
C      1  0.4655180000000  0.4510170000000  0.4647310000000 1.0
C      1  0.4424520000000  0.5077160000000  0.4648030000000 1.0
C      1  0.4904620000000  0.3911940000000  0.4655280000000 1.0
C      1  0.3895600000000  0.4826810000000  0.4719900000000 1.0
C      1  0.4287750000000  0.6139800000000  0.4817240000000 1.0
C      1  0.5777570000000  0.5819360000000  0.4709740000000 1.0
C      1  0.5982270000000  0.4479240000000  0.4721450000000 1.0
C      1  0.4809920000000  0.4790540000000  0.3848260000000 1.0
C      1  0.4763270000000  0.5114800000000  0.3851050000000 1.0
C      1  0.5048860000000  0.5234150000000  0.3871230000000 1.0
C      1  0.5253950000000  0.5017190000000  0.3887070000000 1.0
C      1  0.5119650000000  0.4747790000000  0.3865340000000 1.0
C      1  0.6080430000000  0.4929010000000  0.5319520000000 1.0
C      1  0.5280120000000  0.3869360000000  0.5337570000000 1.0
C      1  0.4164400000000  0.4463090000000  0.5301580000000 1.0
C      1  0.4041780000000  0.5731530000000  0.5384900000000 1.0
C      1  0.5320400000000  0.5997480000000  0.5309090000000 1.0
C      1  0.5941420000000  0.5032950000000  0.5563730000000 1.0
C      1  0.5274490000000  0.4024280000000  0.5593030000000 1.0
C      1  0.4282320000000  0.4413650000000  0.5563320000000 1.0
C      1  0.4190530000000  0.5569550000000  0.5579240000000 1.0
C      1  0.5197520000000  0.5850490000000  0.5529160000000 1.0
C      1  0.5357430000000  0.5616170000000  0.5581690000000 1.0
C      1  0.5684350000000  0.4875340000000  0.5566260000000 1.0
C      1  0.5230100000000  0.4560760000000  0.5518440000000 1.0
C      1  0.4609950000000  0.4661440000000  0.5663740000000 1.0
C      1  0.4507780000000  0.5270890000000  0.5537310000000 1.0
C      1  0.4213040000000  0.5165390000000  0.4458930000000 1.0
C      1  0.4994490000000  0.5779940000000  0.4367900000000 1.0
C      1  0.5745530000000  0.5296400000000  0.4444330000000 1.0
C      1  0.5518600000000  0.4398240000000  0.4448020000000 1.0
C      1  0.4583670000000  0.4289040000000  0.4423170000000 1.0
C      1  0.5009280000000  0.4459740000000  0.4234310000000 1.0
C      1  0.4394380000000  0.4753670000000  0.4172470000000 1.0
C      1  0.4667730000000  0.5444300000000  0.4222470000000 1.0
C      1  0.5323460000000  0.5436580000000  0.4229270000000 1.0
C      1  0.5519210000000  0.4843810000000  0.4257430000000 1.0
C      1  0.5359330000000  0.6000750000000  0.4743490000000 1.0
C      1  0.6057560000000  0.4950640000000  0.4829260000000 1.0
C      1  0.5292130000000  0.4073020000000  0.4814300000000 1.0
C      1  0.4150340000000  0.4424090000000  0.4816840000000 1.0
C      1  0.4323180000000  0.5665060000000  0.4862470000000 1.0
C      1  0.5311880000000  0.5268160000000  0.5262060000000 1.0
C      1  0.5340220000000  0.4668860000000  0.5265020000000 1.0
C      1  0.4759190000000  0.4545830000000  0.5376990000000 1.0
C      1  0.4451440000000  0.5034790000000  0.5373330000000 1.0
C      1  0.4841540000000  0.5454370000000  0.5324400000000 1.0
C      1  0.4102520000000  0.4848990000000  0.5676890000000 1.0
C      1  0.4450050000000  0.5702800000000  0.5692930000000 1.0
C      1  0.5636450000000  0.5664050000000  0.5654360000000 1.0
C      1  0.5756520000000  0.4602420000000  0.5662800000000 1.0
C      1  0.4967010000000  0.4129020000000  0.5607460000000 1.0
C      1  0.3856260000000  0.5326400000000  0.5142550000000 1.0
C      1  0.4853640000000  0.6104100000000  0.5138410000000 1.0
C      1  0.6052840000000  0.5383040000000  0.5110350000000 1.0
C      1  0.5701150000000  0.4062440000000  0.5144220000000 1.0
C      1  0.4455660000000  0.4123170000000  0.5087710000000 1.0
C      1  0.5478570000000  0.4511580000000  0.4876950000000 1.0
C      1  0.4784110000000  0.4343100000000  0.4893100000000 1.0
C      1  0.4381610000000  0.4861070000000  0.4823940000000 1.0
C      1  0.4851020000000  0.5633610000000  0.4850650000000 1.0
C      1  0.5655040000000  0.5328900000000  0.4947840000000 1.0
C      1  0.3932640000000  0.4885050000000  0.5419230000000 1.0
C      1  0.4467370000000  0.5879630000000  0.5425700000000 1.0
C      1  0.5771160000000  0.5740710000000  0.5394760000000 1.0
C      1  0.5867760000000  0.4474990000000  0.5415210000000 1.0
C      1  0.4827750000000  0.3946940000000  0.5394470000000 1.0
C      1  0.5041770000000  0.3956790000000  0.5175400000000 1.0
C      1  0.4002690000000  0.4684550000000  0.5205310000000 1.0
C      1  0.4209390000000  0.5945770000000  0.5276090000000 1.0
C      1  0.5583630000000  0.5897230000000  0.5200660000000 1.0
C      1  0.6003100000000  0.4661400000000  0.5216490000000 1.0
C      1  0.5122180000000  0.5486770000000  0.4007670000000 1.0
C      1  0.5525540000000  0.5043290000000  0.4033790000000 1.0
C      1  0.5224730000000  0.4514300000000  0.4026580000000 1.0
C      1  0.4603140000000  0.4603600000000  0.4008080000000 1.0
C      1  0.4525800000000  0.5250670000000  0.4018300000000 1.0
C      1  0.5490260000000  0.4559290000000  0.4174880000000 1.0
C      1  0.4730070000000  0.4378250000000  0.4157950000000 1.0
C      1  0.4348970000000  0.5054900000000  0.4176680000000 1.0
C      1  0.4891430000000  0.5627660000000  0.4131660000000 1.0
C      1  0.5579470000000  0.5305990000000  0.4169090000000 1.0
C      1  0.5225530000000  0.5402900000000  0.5744980000000 1.0
C      1  0.5404630000000  0.4995890000000  0.5688230000000 1.0
C      1  0.5171400000000  0.4791790000000  0.5706290000000 1.0
C      1  0.4895560000000  0.4920900000000  0.5623950000000 1.0
C      1  0.4825850000000  0.5239210000000  0.5637540000000 1.0
C      1  0.5110510000000  0.4314060000000  0.4708770000000 1.0
C      1  0.4354900000000  0.4609600000000  0.4679840000000 1.0
C      1  0.4562070000000  0.5755090000000  0.4689990000000 1.0
C      1  0.5341690000000  0.5700810000000  0.4695630000000 1.0
C      1  0.5750570000000  0.4913970000000  0.4747440000000 1.0
C      1  0.4533440000000  0.5512870000000  0.5308530000000 1.0
C      1  0.5293820000000  0.5572220000000  0.5197120000000 1.0
C      1  0.5607190000000  0.4857220000000  0.5252770000000 1.0
C      1  0.5005500000000  0.4377720000000  0.5422660000000 1.0
C      1  0.4353790000000  0.4789050000000  0.5521150000000 1.0
C      1  0.5780680000000  0.4302200000000  0.4635650000000 1.0
C      1  0.4657630000000  0.4035080000000  0.4599150000000 1.0
C      1  0.3948230000000  0.5090470000000  0.4642280000000 1.0
C      1  0.4540720000000  0.6059340000000  0.4720100000000 1.0
C      1  0.5861170000000  0.5561720000000  0.4611220000000 1.0
C      1  0.4113370000000  0.5568750000000  0.4687490000000 1.0
C      1  0.5336680000000  0.6131370000000  0.4492070000000 1.0
C      1  0.6178060000000  0.5051620000000  0.4581020000000 1.0
C      1  0.5442250000000  0.3958790000000  0.4585760000000 1.0
C      1  0.4108940000000  0.4222920000000  0.4600630000000 1.0
C      1  0.4610260000000  0.4804500000000  0.4987360000000 1.0
C      1  0.4714160000000  0.5356720000000  0.4886830000000 1.0
C      1  0.5465780000000  0.5563950000000  0.4943100000000 1.0
C      1  0.5652840000000  0.4730020000000  0.4958110000000 1.0
C      1  0.5063930000000  0.4264100000000  0.5144920000000 1.0
C      1  0.4935420000000  0.5195850000000  0.6061120000000 1.0
C      1  0.5206560000000  0.5071900000000  0.6106870000000 1.0
C      1  0.5158650000000  0.4761070000000  0.6106410000000 1.0
C      1  0.4863530000000  0.4729110000000  0.6015690000000 1.0
C      1  0.4722890000000  0.4998060000000  0.6022020000000 1.0
C      1  0.5500290000000  0.4221150000000  0.5601810000000 1.0
C      1  0.4508630000000  0.4240160000000  0.5580950000000 1.0
C      1  0.4074970000000  0.5302320000000  0.5612220000000 1.0
C      1  0.4906520000000  0.5829010000000  0.5552040000000 1.0
C      1  0.5917660000000  0.5325290000000  0.5597510000000 1.0
C      1  0.5230750000000  0.5192440000000  0.5533580000000 1.0
END
