TITL C-3578203-1966-342 -9.52990204201032e-08 125000 -55.3787301826807 0 0 10 (D5h) n - 1
REM
REM in /home/bkarasulu/work/CARBON/AIRSS/Generating-Clusters/EDIP-Nigel-Params/with-SteepDescent/Higher-Symm/SD-CG/HFTN-CG
REM
REM
REM
REM
REM
REM ./C.cell (12c818d87b63d06a65506943cc24bca4)
REM
REM compiler GCC version 9.2.1 20190827 (Red Hat 9.2.1-1)
REM options -cpp -mtune=generic -march=x86-64 -g -O0 -fpre-include=/usr/include/finclude/math-vector-fortran.h
REM seed -2096975752 1378758527 1730057386 630323443 -386923367 -549550686 1371710100 -1708309644 352365715 -1833863350 -1404543059 -1308500354 -1583520965 959957748 -1254731558 -719164411 -2117033410 -1486822083 2120367241 1965964398 -2081825879 1426306155 56886637 -1976384177 1826161246 1643523908 -1711641102 136427974 953817517 -1550476750 1066685509 761458580 872984901
REM
CELL 1.54180   50.00000   50.00000   50.00000   90.00000   90.00000   90.00000
LATT -1
SFAC C  
C      1  0.4840400000000  0.5149520000000  0.4785480000000 1.0
C      1  0.4840390000000  0.4842190000000  0.4791510000000 1.0
C      1  0.4840390000000  0.4752950000000  0.5085660000000 1.0
C      1  0.4840400000000  0.5005130000000  0.5261440000000 1.0
C      1  0.4840400000000  0.5250230000000  0.5075910000000 1.0
C      1  0.5159600000000  0.4752940000000  0.5085660000000 1.0
C      1  0.5159610000000  0.5005120000000  0.5261430000000 1.0
C      1  0.5159610000000  0.5250220000000  0.5075910000000 1.0
C      1  0.5159610000000  0.5149520000000  0.4785480000000 1.0
C      1  0.5159600000000  0.4842180000000  0.4791510000000 1.0
END
