TITL C-3578202-4305-152 1.41553088260056e-06 125000 -745.216553176841 0 0 122 (C1) n - 1
REM
REM in /home/bkarasulu/work/CARBON/AIRSS/Generating-Clusters/EDIP-Nigel-Params/with-SteepDescent/Higher-Symm/SD-CG/HFTN-CG
REM
REM
REM
REM
REM
REM ./C.cell (12c818d87b63d06a65506943cc24bca4)
REM
REM compiler GCC version 9.2.1 20190827 (Red Hat 9.2.1-1)
REM options -cpp -mtune=generic -march=x86-64 -g -O0 -fpre-include=/usr/include/finclude/math-vector-fortran.h
REM seed -1497505482 2136384396 798966100 -173617727 -575879334 -876399170 1321987151 -866493101 -1867452433 -1823478933 -1733693059 -19082090 -557670503 141883420 -719159239 -1996902785 -570776270 763913835 -1153650508 1906928992 220579208 1033901931 481545946 406160774 2008040397 43583388 -409183633 -2102301847 277954941 1251700045 -219908431 2078562241 1181232834
REM
CELL 1.54180   50.00000   50.00000   50.00000   90.00000   90.00000   90.00000
LATT -1
SFAC C  
C      1  0.5746570000000  0.5270290000000  0.4690590000000 1.0
C      1  0.5736920000000  0.5158660000000  0.5272900000000 1.0
C      1  0.5231750000000  0.4959950000000  0.4224520000000 1.0
C      1  0.5248830000000  0.4991190000000  0.5863450000000 1.0
C      1  0.5471510000000  0.4795450000000  0.4630060000000 1.0
C      1  0.5512570000000  0.4717540000000  0.5364480000000 1.0
C      1  0.5666550000000  0.4627930000000  0.5797080000000 1.0
C      1  0.5663410000000  0.4626300000000  0.4234840000000 1.0
C      1  0.4766150000000  0.5016430000000  0.5681520000000 1.0
C      1  0.4739010000000  0.5013820000000  0.4323670000000 1.0
C      1  0.5224890000000  0.4302700000000  0.4609070000000 1.0
C      1  0.5239400000000  0.4273050000000  0.5419460000000 1.0
C      1  0.4770300000000  0.4600190000000  0.5455900000000 1.0
C      1  0.4730040000000  0.4596010000000  0.4566170000000 1.0
C      1  0.5291340000000  0.5173350000000  0.5270220000000 1.0
C      1  0.5184590000000  0.5255710000000  0.4716760000000 1.0
C      1  0.4292290000000  0.4491040000000  0.4592200000000 1.0
C      1  0.4300450000000  0.4486020000000  0.5434200000000 1.0
C      1  0.4815720000000  0.5155950000000  0.5398230000000 1.0
C      1  0.4737920000000  0.5063570000000  0.4633110000000 1.0
C      1  0.4436190000000  0.4302210000000  0.4752210000000 1.0
C      1  0.4446610000000  0.4299730000000  0.5276590000000 1.0
C      1  0.5700870000000  0.4561700000000  0.5524160000000 1.0
C      1  0.5694080000000  0.4641380000000  0.4515210000000 1.0
C      1  0.5303080000000  0.5793830000000  0.4765540000000 1.0
C      1  0.5477780000000  0.5864970000000  0.5203500000000 1.0
C      1  0.5501110000000  0.5086940000000  0.5700640000000 1.0
C      1  0.5600230000000  0.5218250000000  0.4444090000000 1.0
C      1  0.4971660000000  0.4171690000000  0.4722700000000 1.0
C      1  0.4980790000000  0.4165310000000  0.5285720000000 1.0
C      1  0.4953090000000  0.6062500000000  0.4740230000000 1.0
C      1  0.5001050000000  0.6009380000000  0.5175490000000 1.0
C      1  0.4568740000000  0.5604860000000  0.5471370000000 1.0
C      1  0.4676750000000  0.5361880000000  0.4701860000000 1.0
C      1  0.5510930000000  0.5014940000000  0.5406960000000 1.0
C      1  0.5371760000000  0.5041090000000  0.4492630000000 1.0
C      1  0.5247440000000  0.4387670000000  0.5711510000000 1.0
C      1  0.5246290000000  0.4376180000000  0.4315820000000 1.0
C      1  0.5502530000000  0.4199370000000  0.5298790000000 1.0
C      1  0.5473480000000  0.4242410000000  0.4752420000000 1.0
C      1  0.5518950000000  0.5387570000000  0.5658720000000 1.0
C      1  0.5508590000000  0.5482350000000  0.4381740000000 1.0
C      1  0.5743570000000  0.4372320000000  0.4640650000000 1.0
C      1  0.5707920000000  0.4285010000000  0.5469490000000 1.0
C      1  0.5080330000000  0.5627250000000  0.5511200000000 1.0
C      1  0.5006280000000  0.5626790000000  0.4408110000000 1.0
C      1  0.5006890000000  0.4837790000000  0.5744390000000 1.0
C      1  0.4967540000000  0.4826720000000  0.4273820000000 1.0
C      1  0.4318700000000  0.5417220000000  0.5401000000000 1.0
C      1  0.4436960000000  0.5467010000000  0.4562130000000 1.0
C      1  0.5019990000000  0.4347570000000  0.5867150000000 1.0
C      1  0.5013500000000  0.4342210000000  0.4166720000000 1.0
C      1  0.5239860000000  0.5489710000000  0.4263780000000 1.0
C      1  0.5236170000000  0.5484790000000  0.5721040000000 1.0
C      1  0.4894460000000  0.4597620000000  0.5881850000000 1.0
C      1  0.4867460000000  0.4579830000000  0.4143590000000 1.0
C      1  0.5049510000000  0.5026220000000  0.5257320000000 1.0
C      1  0.5009190000000  0.5026910000000  0.4745740000000 1.0
C      1  0.4576390000000  0.4821290000000  0.4721000000000 1.0
C      1  0.4593150000000  0.4803340000000  0.5304070000000 1.0
C      1  0.4790190000000  0.5249210000000  0.5865560000000 1.0
C      1  0.4828960000000  0.5262970000000  0.4151740000000 1.0
C      1  0.5734510000000  0.5560950000000  0.4688350000000 1.0
C      1  0.5686720000000  0.5435810000000  0.5386950000000 1.0
C      1  0.4742980000000  0.4361790000000  0.5272990000000 1.0
C      1  0.4730290000000  0.4361570000000  0.4750840000000 1.0
C      1  0.4594320000000  0.5462170000000  0.5822820000000 1.0
C      1  0.4754000000000  0.5542800000000  0.4229780000000 1.0
C      1  0.5116910000000  0.5890560000000  0.4550670000000 1.0
C      1  0.5190070000000  0.5789520000000  0.5267640000000 1.0
C      1  0.5092010000000  0.5277630000000  0.5891270000000 1.0
C      1  0.5129060000000  0.5243090000000  0.4133880000000 1.0
C      1  0.4339620000000  0.5397220000000  0.5698460000000 1.0
C      1  0.4483890000000  0.5570230000000  0.4308530000000 1.0
C      1  0.5385970000000  0.4630660000000  0.5821660000000 1.0
C      1  0.5385850000000  0.4613380000000  0.4203340000000 1.0
C      1  0.4962760000000  0.5460070000000  0.4647040000000 1.0
C      1  0.4841220000000  0.5474430000000  0.5402200000000 1.0
C      1  0.4337750000000  0.4767190000000  0.5473770000000 1.0
C      1  0.4323170000000  0.4773940000000  0.4543270000000 1.0
C      1  0.4185440000000  0.5462430000000  0.4716710000000 1.0
C      1  0.4091560000000  0.5437720000000  0.5194870000000 1.0
C      1  0.4648550000000  0.4578170000000  0.5727460000000 1.0
C      1  0.4613700000000  0.4560680000000  0.4287800000000 1.0
C      1  0.4474470000000  0.4830900000000  0.4278660000000 1.0
C      1  0.4494640000000  0.4836840000000  0.5731770000000 1.0
C      1  0.5155350000000  0.5595060000000  0.5020450000000 1.0
C      1  0.6103260000000  0.5158350000000  0.5026960000000 1.0
C      1  0.4798640000000  0.4504190000000  0.5010810000000 1.0
C      1  0.5470280000000  0.4870230000000  0.4909650000000 1.0
C      1  0.4284920000000  0.5022550000000  0.5026270000000 1.0
C      1  0.5691230000000  0.5101220000000  0.4957070000000 1.0
C      1  0.5605240000000  0.5600100000000  0.5146340000000 1.0
C      1  0.5107080000000  0.4894630000000  0.4987310000000 1.0
C      1  0.5430830000000  0.4620140000000  0.5098140000000 1.0
C      1  0.4446010000000  0.5667500000000  0.5055510000000 1.0
C      1  0.4063430000000  0.5199960000000  0.4970330000000 1.0
C      1  0.5847810000000  0.4401630000000  0.4931500000000 1.0
C      1  0.4947880000000  0.4022640000000  0.5004710000000 1.0
C      1  0.4807520000000  0.5908800000000  0.4962010000000 1.0
C      1  0.6052610000000  0.4900620000000  0.4949340000000 1.0
C      1  0.4876490000000  0.5497890000000  0.5112150000000 1.0
C      1  0.5080790000000  0.4600920000000  0.5016160000000 1.0
C      1  0.4536890000000  0.5150220000000  0.5127250000000 1.0
C      1  0.4617300000000  0.4731230000000  0.5011030000000 1.0
C      1  0.4309160000000  0.4223820000000  0.5017050000000 1.0
C      1  0.5164110000000  0.6166640000000  0.4964550000000 1.0
C      1  0.3824320000000  0.5030290000000  0.4969410000000 1.0
C      1  0.5979040000000  0.4642220000000  0.4976330000000 1.0
C      1  0.4532780000000  0.5929920000000  0.4993250000000 1.0
C      1  0.4622760000000  0.5416370000000  0.4992230000000 1.0
C      1  0.5343580000000  0.5341510000000  0.5015690000000 1.0
C      1  0.4173510000000  0.5620660000000  0.4967330000000 1.0
C      1  0.6027820000000  0.5420670000000  0.5013980000000 1.0
C      1  0.5555320000000  0.4351140000000  0.5040210000000 1.0
C      1  0.4177790000000  0.4747240000000  0.5060110000000 1.0
C      1  0.4059670000000  0.4460080000000  0.5015980000000 1.0
C      1  0.5832020000000  0.5614830000000  0.4954420000000 1.0
C      1  0.3891530000000  0.4752990000000  0.4990670000000 1.0
C      1  0.4407740000000  0.3943870000000  0.5013230000000 1.0
C      1  0.4680860000000  0.3918140000000  0.5007060000000 1.0
C      1  0.5419750000000  0.6007690000000  0.4940080000000 1.0
END
