TITL C-3578207-9274-507 -4.70488468981061e-06 125000 -607.70551354794 0 0 102 (D6) n - 1
REM
REM in /home/bkarasulu/work/CARBON/AIRSS/Generating-Clusters/EDIP-Nigel-Params/with-SteepDescent/Higher-Symm/SD-CG/HFTN-CG
REM
REM
REM
REM
REM
REM ./C.cell (12c818d87b63d06a65506943cc24bca4)
REM
REM compiler GCC version 9.2.1 20190827 (Red Hat 9.2.1-1)
REM options -cpp -mtune=generic -march=x86-64 -g -O0 -fpre-include=/usr/include/finclude/math-vector-fortran.h
REM seed -135498777 1090217175 -1553392183 993652745 1717085644 508677691 -221471618 -1168322068 1219865916 -1472359215 2120475484 -119733157 -1510820139 -1562462452 -1506131523 -1048122475 11872866 1520674180 -324974300 -15397561 -948357701 1876234855 -1100542233 -491471831 1850414739 -564526737 496390458 1802917244 63918940 -444127022 2061585912 233980791 92112358
REM
CELL 1.54180   50.00000   50.00000   50.00000   90.00000   90.00000   90.00000
LATT -1
SFAC C  
C      1  0.5699170000000  0.5186980000000  0.5215470000000 1.0
C      1  0.5699170000000  0.4906880000000  0.5269670000000 1.0
C      1  0.5699170000000  0.4719890000000  0.5054200000000 1.0
C      1  0.5699170000000  0.4813010000000  0.4784520000000 1.0
C      1  0.5699170000000  0.5093110000000  0.4730320000000 1.0
C      1  0.5699170000000  0.5280100000000  0.4945800000000 1.0
C      1  0.4292130000000  0.4813020000000  0.5215480000000 1.0
C      1  0.4292130000000  0.5093130000000  0.5269670000000 1.0
C      1  0.4292130000000  0.5280110000000  0.5054190000000 1.0
C      1  0.4292130000000  0.5186980000000  0.4784520000000 1.0
C      1  0.4292130000000  0.4906880000000  0.4730330000000 1.0
C      1  0.4292130000000  0.4719900000000  0.4945810000000 1.0
C      1  0.4378400000000  0.5179310000000  0.5518780000000 1.0
C      1  0.4378390000000  0.4640380000000  0.5414670000000 1.0
C      1  0.4378390000000  0.4461080000000  0.4895900000000 1.0
C      1  0.4378390000000  0.4820700000000  0.4481230000000 1.0
C      1  0.4378390000000  0.5359620000000  0.4585330000000 1.0
C      1  0.4378400000000  0.5538930000000  0.5104100000000 1.0
C      1  0.5612910000000  0.4820710000000  0.5518780000000 1.0
C      1  0.5612910000000  0.5359630000000  0.5414660000000 1.0
C      1  0.5612910000000  0.5538920000000  0.4895880000000 1.0
C      1  0.5612910000000  0.5179290000000  0.4481220000000 1.0
C      1  0.5612910000000  0.4640360000000  0.4585340000000 1.0
C      1  0.5612910000000  0.4461070000000  0.5104120000000 1.0
C      1  0.5379210000000  0.4435080000000  0.5476740000000 1.0
C      1  0.5379210000000  0.4304670000000  0.4749140000000 1.0
C      1  0.5379210000000  0.4869590000000  0.4272400000000 1.0
C      1  0.5379220000000  0.5564920000000  0.4523260000000 1.0
C      1  0.5379220000000  0.5695330000000  0.5250860000000 1.0
C      1  0.5379220000000  0.5130410000000  0.5727600000000 1.0
C      1  0.4612090000000  0.5564930000000  0.5476720000000 1.0
C      1  0.4612090000000  0.5695320000000  0.4749110000000 1.0
C      1  0.4612090000000  0.5130390000000  0.4272390000000 1.0
C      1  0.4612090000000  0.4435070000000  0.4523280000000 1.0
C      1  0.4612090000000  0.4304680000000  0.5250890000000 1.0
C      1  0.4612090000000  0.4869620000000  0.5727610000000 1.0
C      1  0.5297520000000  0.5334180000000  0.5116760000000 1.0
C      1  0.5297520000000  0.5065970000000  0.5347790000000 1.0
C      1  0.5297520000000  0.4731790000000  0.5231020000000 1.0
C      1  0.5297520000000  0.4665820000000  0.4883240000000 1.0
C      1  0.5297520000000  0.4934030000000  0.4652210000000 1.0
C      1  0.5297520000000  0.5268210000000  0.4768970000000 1.0
C      1  0.4693790000000  0.4665830000000  0.5116770000000 1.0
C      1  0.4693790000000  0.4934040000000  0.5347790000000 1.0
C      1  0.4693790000000  0.5268220000000  0.5231020000000 1.0
C      1  0.4693790000000  0.5334170000000  0.4883230000000 1.0
C      1  0.4693790000000  0.5065960000000  0.4652210000000 1.0
C      1  0.4693790000000  0.4731790000000  0.4768980000000 1.0
C      1  0.4776060000000  0.4206160000000  0.4415870000000 1.0
C      1  0.4776070000000  0.5108950000000  0.4020440000000 1.0
C      1  0.4776070000000  0.5902800000000  0.4604580000000 1.0
C      1  0.4776070000000  0.5793850000000  0.5584130000000 1.0
C      1  0.4776070000000  0.4891050000000  0.5979560000000 1.0
C      1  0.4776060000000  0.4097200000000  0.5395420000000 1.0
C      1  0.5215240000000  0.5793830000000  0.4415840000000 1.0
C      1  0.5215230000000  0.4891020000000  0.4020450000000 1.0
C      1  0.5215230000000  0.4097190000000  0.4604610000000 1.0
C      1  0.5215230000000  0.4206170000000  0.5584160000000 1.0
C      1  0.5215240000000  0.5108980000000  0.5979550000000 1.0
C      1  0.5215240000000  0.5902810000000  0.5395390000000 1.0
C      1  0.4812360000000  0.4518760000000  0.5510000000000 1.0
C      1  0.4812360000000  0.4317710000000  0.4838230000000 1.0
C      1  0.4812360000000  0.4798950000000  0.4328230000000 1.0
C      1  0.4812360000000  0.5481250000000  0.4490000000000 1.0
C      1  0.4812360000000  0.5682290000000  0.5161770000000 1.0
C      1  0.4812360000000  0.5201050000000  0.5671770000000 1.0
C      1  0.5178950000000  0.5481260000000  0.5509980000000 1.0
C      1  0.5178950000000  0.5682290000000  0.4838210000000 1.0
C      1  0.5178950000000  0.5201030000000  0.4328220000000 1.0
C      1  0.5178940000000  0.4518740000000  0.4490020000000 1.0
C      1  0.5178940000000  0.4317710000000  0.5161790000000 1.0
C      1  0.5178950000000  0.4798970000000  0.5671780000000 1.0
C      1  0.5075830000000  0.4816330000000  0.5966620000000 1.0
C      1  0.5075830000000  0.4071050000000  0.5324250000000 1.0
C      1  0.5075830000000  0.4254720000000  0.4357630000000 1.0
C      1  0.5075830000000  0.5183670000000  0.4033380000000 1.0
C      1  0.5075840000000  0.5928950000000  0.4675750000000 1.0
C      1  0.5075840000000  0.5745280000000  0.5642370000000 1.0
C      1  0.4915480000000  0.5183700000000  0.5966610000000 1.0
C      1  0.4915480000000  0.5928960000000  0.5324220000000 1.0
C      1  0.4915480000000  0.5745260000000  0.4357610000000 1.0
C      1  0.4915470000000  0.4816300000000  0.4033390000000 1.0
C      1  0.4915470000000  0.4071040000000  0.4675780000000 1.0
C      1  0.4915470000000  0.4254740000000  0.5642390000000 1.0
C      1  0.5430110000000  0.5342920000000  0.4354480000000 1.0
C      1  0.5430120000000  0.5730490000000  0.4974220000000 1.0
C      1  0.5430110000000  0.5387570000000  0.5619740000000 1.0
C      1  0.5430110000000  0.4657070000000  0.5645510000000 1.0
C      1  0.5430110000000  0.4269500000000  0.5025780000000 1.0
C      1  0.5430110000000  0.4612430000000  0.4380260000000 1.0
C      1  0.4561190000000  0.4657060000000  0.4354500000000 1.0
C      1  0.4561190000000  0.4269510000000  0.4974250000000 1.0
C      1  0.4561190000000  0.4612450000000  0.5619750000000 1.0
C      1  0.4561200000000  0.5342950000000  0.5645500000000 1.0
C      1  0.4561200000000  0.5730500000000  0.5025750000000 1.0
C      1  0.4561190000000  0.5387550000000  0.4380250000000 1.0
C      1  0.4995650000000  0.4755150000000  0.5424100000000 1.0
C      1  0.4995650000000  0.5244860000000  0.5424090000000 1.0
C      1  0.4995660000000  0.5489710000000  0.4999990000000 1.0
C      1  0.4995650000000  0.5244850000000  0.4575900000000 1.0
C      1  0.4995650000000  0.4510290000000  0.5000010000000 1.0
C      1  0.4995650000000  0.4755140000000  0.4575910000000 1.0
END
