TITL C-3577079-311-229 -1.23394922445065e-06 125000 -665.291226055522 0 0 104 (C1) n - 1
REM
REM in /home/bkarasulu/work/CARBON/AIRSS/Generating-Clusters/EDIP-Nigel-Params/with-SteepDescent/Higher-Symm/SD-CG/HFTN-CG
REM
REM
REM
REM
REM
REM ./C.cell (12c818d87b63d06a65506943cc24bca4)
REM
REM compiler GCC version 9.2.1 20190827 (Red Hat 9.2.1-1)
REM options -cpp -mtune=generic -march=x86-64 -g -O0 -fpre-include=/usr/include/finclude/math-vector-fortran.h
REM seed -982526166 -2080724734 1947883345 -1872624164 1290005313 -1788330992 1834841577 2021493585 -1921923447 1883262115 -1125106298 -2041404397 -128152947 1516902109 1990138242 787413598 -1937405578 16409712 -2103484405 -1496081611 -23779241 747529098 -657255614 182415483 401644113 -437490806 1744756588 -1157537958 236624933 -235505190 1840718810 -671470087 1735948717
REM
CELL 1.54180   50.00000   50.00000   50.00000   90.00000   90.00000   90.00000
LATT -1
SFAC C  
C      1  0.4538600000000  0.4755200000000  0.5680710000000 1.0
C      1  0.4318070000000  0.4736630000000  0.4527260000000 1.0
C      1  0.5452590000000  0.4751050000000  0.4304810000000 1.0
C      1  0.5696470000000  0.4746940000000  0.5443980000000 1.0
C      1  0.4532340000000  0.4744220000000  0.4342980000000 1.0
C      1  0.4341370000000  0.4759730000000  0.5466890000000 1.0
C      1  0.5486770000000  0.4752590000000  0.5641390000000 1.0
C      1  0.5644210000000  0.4755980000000  0.4518850000000 1.0
C      1  0.5357590000000  0.5506110000000  0.5160310000000 1.0
C      1  0.4849030000000  0.5507100000000  0.5358050000000 1.0
C      1  0.4639210000000  0.5500810000000  0.4842390000000 1.0
C      1  0.5157460000000  0.5503220000000  0.4643930000000 1.0
C      1  0.5361530000000  0.5377090000000  0.4857590000000 1.0
C      1  0.4851770000000  0.5373480000000  0.4635590000000 1.0
C      1  0.4641210000000  0.5380110000000  0.5144500000000 1.0
C      1  0.5147320000000  0.5377850000000  0.5364100000000 1.0
C      1  0.5161600000000  0.4488310000000  0.5360410000000 1.0
C      1  0.4636830000000  0.4487950000000  0.5158450000000 1.0
C      1  0.4838720000000  0.4481270000000  0.4632140000000 1.0
C      1  0.5360790000000  0.4485470000000  0.4835320000000 1.0
C      1  0.5143470000000  0.4608760000000  0.4627120000000 1.0
C      1  0.4625160000000  0.4605930000000  0.4850810000000 1.0
C      1  0.4854080000000  0.4614690000000  0.5364920000000 1.0
C      1  0.5368970000000  0.4610740000000  0.5140060000000 1.0
C      1  0.5124200000000  0.4600320000000  0.5851810000000 1.0
C      1  0.4134660000000  0.4479100000000  0.5149990000000 1.0
C      1  0.4904460000000  0.4600310000000  0.4147920000000 1.0
C      1  0.5841980000000  0.4602230000000  0.4887480000000 1.0
C      1  0.5136960000000  0.4444280000000  0.4138690000000 1.0
C      1  0.4117640000000  0.4598740000000  0.4898440000000 1.0
C      1  0.4878380000000  0.4467170000000  0.5845110000000 1.0
C      1  0.5855000000000  0.4443340000000  0.5117650000000 1.0
C      1  0.4347500000000  0.4520040000000  0.4725160000000 1.0
C      1  0.5283450000000  0.4522760000000  0.4363750000000 1.0
C      1  0.5634760000000  0.4521420000000  0.5271310000000 1.0
C      1  0.4716840000000  0.4529450000000  0.5627060000000 1.0
C      1  0.4365400000000  0.4517980000000  0.5300770000000 1.0
C      1  0.5305410000000  0.4520690000000  0.5633750000000 1.0
C      1  0.5634840000000  0.4520850000000  0.4696710000000 1.0
C      1  0.4711050000000  0.4512160000000  0.4353050000000 1.0
C      1  0.4383490000000  0.5476660000000  0.5277240000000 1.0
C      1  0.4721910000000  0.5456320000000  0.4371820000000 1.0
C      1  0.5627680000000  0.5461790000000  0.4737590000000 1.0
C      1  0.5271490000000  0.5458660000000  0.5629880000000 1.0
C      1  0.4361510000000  0.5468730000000  0.4713390000000 1.0
C      1  0.4713420000000  0.5490410000000  0.5633780000000 1.0
C      1  0.5630180000000  0.5487100000000  0.5301820000000 1.0
C      1  0.5300260000000  0.5486290000000  0.4374230000000 1.0
C      1  0.4627380000000  0.4927960000000  0.4848220000000 1.0
C      1  0.5143550000000  0.4931710000000  0.4627010000000 1.0
C      1  0.5370470000000  0.4933050000000  0.5142770000000 1.0
C      1  0.4850940000000  0.4936480000000  0.5367430000000 1.0
C      1  0.4630990000000  0.5057490000000  0.5150710000000 1.0
C      1  0.5153880000000  0.5053480000000  0.5360740000000 1.0
C      1  0.5359460000000  0.5053130000000  0.4845540000000 1.0
C      1  0.4844200000000  0.5049440000000  0.4634540000000 1.0
C      1  0.5636550000000  0.4993270000000  0.4702720000000 1.0
C      1  0.5303420000000  0.4990120000000  0.5638620000000 1.0
C      1  0.4348470000000  0.5013370000000  0.5301030000000 1.0
C      1  0.4704670000000  0.4989450000000  0.4355500000000 1.0
C      1  0.5665170000000  0.4999920000000  0.5288230000000 1.0
C      1  0.5293460000000  0.5001920000000  0.4335210000000 1.0
C      1  0.4344280000000  0.4974940000000  0.4704080000000 1.0
C      1  0.4706860000000  0.5000480000000  0.5655930000000 1.0
C      1  0.4867710000000  0.5799490000000  0.5309870000000 1.0
C      1  0.4683080000000  0.5794910000000  0.4858900000000 1.0
C      1  0.5133510000000  0.5795620000000  0.4688500000000 1.0
C      1  0.5311050000000  0.5799480000000  0.5137880000000 1.0
C      1  0.4875040000000  0.5892280000000  0.4686260000000 1.0
C      1  0.4696080000000  0.5894540000000  0.5115810000000 1.0
C      1  0.5123420000000  0.5903060000000  0.5311800000000 1.0
C      1  0.5303030000000  0.5897730000000  0.4880360000000 1.0
C      1  0.4542440000000  0.5253880000000  0.5663330000000 1.0
C      1  0.4331810000000  0.5233980000000  0.4538420000000 1.0
C      1  0.5472700000000  0.5249530000000  0.4346990000000 1.0
C      1  0.5659070000000  0.5246410000000  0.5469480000000 1.0
C      1  0.4536880000000  0.5237460000000  0.4318320000000 1.0
C      1  0.4328890000000  0.5259260000000  0.5465390000000 1.0
C      1  0.5456430000000  0.5241400000000  0.5685980000000 1.0
C      1  0.5687310000000  0.5245760000000  0.4552480000000 1.0
C      1  0.5149450000000  0.5547430000000  0.4147070000000 1.0
C      1  0.5864960000000  0.5569070000000  0.5171180000000 1.0
C      1  0.4844000000000  0.5572580000000  0.5868580000000 1.0
C      1  0.4128040000000  0.5547100000000  0.4846880000000 1.0
C      1  0.5105740000000  0.5533640000000  0.5837590000000 1.0
C      1  0.5831600000000  0.5535840000000  0.4908640000000 1.0
C      1  0.4883160000000  0.5531900000000  0.4159740000000 1.0
C      1  0.4174050000000  0.5544320000000  0.5109450000000 1.0
C      1  0.5119570000000  0.4097110000000  0.4690000000000 1.0
C      1  0.5306840000000  0.4101300000000  0.5117200000000 1.0
C      1  0.4881160000000  0.4102310000000  0.5308130000000 1.0
C      1  0.4693790000000  0.4099640000000  0.4880730000000 1.0
C      1  0.5140560000000  0.4195560000000  0.5316190000000 1.0
C      1  0.5317260000000  0.4192620000000  0.4857100000000 1.0
C      1  0.4859840000000  0.4189430000000  0.4679750000000 1.0
C      1  0.4683800000000  0.4195250000000  0.5139310000000 1.0
C      1  0.4117080000000  0.4900230000000  0.4887580000000 1.0
C      1  0.5132830000000  0.5035930000000  0.4095920000000 1.0
C      1  0.5902010000000  0.5032000000000  0.5123830000000 1.0
C      1  0.4878180000000  0.5014620000000  0.5884820000000 1.0
C      1  0.4118210000000  0.5019400000000  0.5133500000000 1.0
C      1  0.5123440000000  0.4897130000000  0.5856380000000 1.0
C      1  0.5842780000000  0.4897970000000  0.4892350000000 1.0
C      1  0.4901770000000  0.4898600000000  0.4149040000000 1.0
END
