TITL C-3578203-1966-5 4.05978998323337e-07 125000 -817.487778239063 0 0 132 (C1) n - 1
REM
REM in /home/bkarasulu/work/CARBON/AIRSS/Generating-Clusters/EDIP-Nigel-Params/with-SteepDescent/Higher-Symm/SD-CG/HFTN-CG
REM
REM
REM
REM
REM
REM ./C.cell (12c818d87b63d06a65506943cc24bca4)
REM
REM compiler GCC version 9.2.1 20190827 (Red Hat 9.2.1-1)
REM options -cpp -mtune=generic -march=x86-64 -g -O0 -fpre-include=/usr/include/finclude/math-vector-fortran.h
REM seed 1373138844 -1619158852 -1897705609 -246103277 510706213 1345843737 -1591334685 20149114 637800804 -1151473556 1703083874 547151150 1988060830 1188668775 -917476629 -437181036 -621397430 1400256474 -1935270191 -1182245651 -347135695 203087680 1773383654 -2062070748 -484627317 474480455 1669378906 1500931623 -1915117454 1152532678 -1908769649 -595099838 1639773144
REM
CELL 1.54180   50.00000   50.00000   50.00000   90.00000   90.00000   90.00000
LATT -1
SFAC C  
C      1  0.5661840000000  0.4590070000000  0.5176190000000 1.0
C      1  0.4716620000000  0.5052170000000  0.5447920000000 1.0
C      1  0.5060150000000  0.5744090000000  0.4754920000000 1.0
C      1  0.4328010000000  0.4640090000000  0.4862690000000 1.0
C      1  0.4401740000000  0.5354810000000  0.5035150000000 1.0
C      1  0.5741460000000  0.5297930000000  0.4882680000000 1.0
C      1  0.5202900000000  0.5059760000000  0.4684140000000 1.0
C      1  0.5392590000000  0.4895600000000  0.5505920000000 1.0
C      1  0.4600150000000  0.4899830000000  0.4291610000000 1.0
C      1  0.4889160000000  0.5681840000000  0.5221370000000 1.0
C      1  0.4952130000000  0.4330140000000  0.4731440000000 1.0
C      1  0.5092810000000  0.4270510000000  0.5257900000000 1.0
C      1  0.4186150000000  0.4906240000000  0.5222290000000 1.0
C      1  0.4960040000000  0.5327350000000  0.4330190000000 1.0
C      1  0.5317190000000  0.3993370000000  0.4998420000000 1.0
C      1  0.5997640000000  0.4924100000000  0.4773500000000 1.0
C      1  0.5873080000000  0.5050810000000  0.5276670000000 1.0
C      1  0.4016570000000  0.4955440000000  0.4655000000000 1.0
C      1  0.5053060000000  0.5319300000000  0.5627440000000 1.0
C      1  0.5040520000000  0.4793450000000  0.4211340000000 1.0
C      1  0.4985920000000  0.4756770000000  0.5778440000000 1.0
C      1  0.4697320000000  0.4138790000000  0.5026400000000 1.0
C      1  0.4618760000000  0.5897970000000  0.4900050000000 1.0
C      1  0.5356340000000  0.5903910000000  0.5115640000000 1.0
C      1  0.5639800000000  0.5205310000000  0.5158370000000 1.0
C      1  0.5130490000000  0.5283930000000  0.5308150000000 1.0
C      1  0.5169300000000  0.5566000000000  0.5176660000000 1.0
C      1  0.4544620000000  0.5225980000000  0.4738620000000 1.0
C      1  0.4426340000000  0.4743860000000  0.5132420000000 1.0
C      1  0.5634590000000  0.4769930000000  0.4892350000000 1.0
C      1  0.4812230000000  0.5355580000000  0.4645790000000 1.0
C      1  0.4913770000000  0.4802900000000  0.5483930000000 1.0
C      1  0.5010830000000  0.4887350000000  0.4513590000000 1.0
C      1  0.4774160000000  0.5652300000000  0.4762640000000 1.0
C      1  0.4827680000000  0.4389210000000  0.5150040000000 1.0
C      1  0.5219300000000  0.4376830000000  0.4949900000000 1.0
C      1  0.5583550000000  0.4295750000000  0.4719630000000 1.0
C      1  0.4304140000000  0.4688530000000  0.5602160000000 1.0
C      1  0.4641040000000  0.5636850000000  0.4346980000000 1.0
C      1  0.4342070000000  0.4262520000000  0.5330300000000 1.0
C      1  0.4251070000000  0.5708980000000  0.4659540000000 1.0
C      1  0.5749550000000  0.5715480000000  0.5319050000000 1.0
C      1  0.5714320000000  0.4693570000000  0.4464010000000 1.0
C      1  0.5761180000000  0.5299030000000  0.5625350000000 1.0
C      1  0.4290050000000  0.5273580000000  0.4385580000000 1.0
C      1  0.5369150000000  0.5631070000000  0.5621100000000 1.0
C      1  0.5291390000000  0.4430920000000  0.4351780000000 1.0
C      1  0.4707740000000  0.4389310000000  0.5669580000000 1.0
C      1  0.5070830000000  0.3974400000000  0.5285560000000 1.0
C      1  0.4149200000000  0.5179260000000  0.5075040000000 1.0
C      1  0.5266100000000  0.5189140000000  0.4320960000000 1.0
C      1  0.4853030000000  0.4044420000000  0.4767660000000 1.0
C      1  0.4852750000000  0.5958210000000  0.5087590000000 1.0
C      1  0.5110110000000  0.5975480000000  0.4942770000000 1.0
C      1  0.6038170000000  0.5222520000000  0.4902210000000 1.0
C      1  0.5908260000000  0.4765570000000  0.5165410000000 1.0
C      1  0.4045100000000  0.4717700000000  0.4830740000000 1.0
C      1  0.4803880000000  0.5172970000000  0.5703140000000 1.0
C      1  0.4801950000000  0.4911040000000  0.4060690000000 1.0
C      1  0.5264590000000  0.4914900000000  0.5786070000000 1.0
C      1  0.5836070000000  0.5015350000000  0.5657620000000 1.0
C      1  0.5086380000000  0.5695590000000  0.5686490000000 1.0
C      1  0.5625090000000  0.5769340000000  0.5046260000000 1.0
C      1  0.4185420000000  0.4995380000000  0.4400960000000 1.0
C      1  0.4227510000000  0.4967130000000  0.5594300000000 1.0
C      1  0.5818710000000  0.4955610000000  0.4541920000000 1.0
C      1  0.4929800000000  0.5693820000000  0.4281450000000 1.0
C      1  0.4993910000000  0.4446670000000  0.5736020000000 1.0
C      1  0.5017270000000  0.4489760000000  0.4258170000000 1.0
C      1  0.4243730000000  0.5816790000000  0.4931630000000 1.0
C      1  0.4317650000000  0.4165300000000  0.5058580000000 1.0
C      1  0.5584350000000  0.4141860000000  0.4966070000000 1.0
C      1  0.5492690000000  0.5580910000000  0.4577600000000 1.0
C      1  0.5662960000000  0.4530660000000  0.5664640000000 1.0
C      1  0.4581230000000  0.5760740000000  0.5589650000000 1.0
C      1  0.4343600000000  0.5676750000000  0.5426890000000 1.0
C      1  0.4388370000000  0.4217080000000  0.4579400000000 1.0
C      1  0.5621140000000  0.4183310000000  0.5441790000000 1.0
C      1  0.4304200000000  0.4512720000000  0.4339030000000 1.0
C      1  0.4381050000000  0.5427370000000  0.5578910000000 1.0
C      1  0.5493160000000  0.5311790000000  0.4467310000000 1.0
C      1  0.5401130000000  0.5794340000000  0.4418210000000 1.0
C      1  0.5468410000000  0.4332830000000  0.5619400000000 1.0
C      1  0.4542610000000  0.4349230000000  0.4376790000000 1.0
C      1  0.4601030000000  0.4181050000000  0.5467280000000 1.0
C      1  0.4211960000000  0.5405210000000  0.4638870000000 1.0
C      1  0.5450950000000  0.4680400000000  0.4345130000000 1.0
C      1  0.5345640000000  0.4228740000000  0.4562050000000 1.0
C      1  0.5544000000000  0.5833060000000  0.5508600000000 1.0
C      1  0.4471360000000  0.5827320000000  0.4494110000000 1.0
C      1  0.5896280000000  0.5463770000000  0.5409220000000 1.0
C      1  0.5811430000000  0.4474110000000  0.4634860000000 1.0
C      1  0.4173120000000  0.4503600000000  0.5405070000000 1.0
C      1  0.4546820000000  0.4626720000000  0.5756430000000 1.0
C      1  0.4519640000000  0.5389520000000  0.4237150000000 1.0
C      1  0.5487540000000  0.5377640000000  0.5703440000000 1.0
C      1  0.5671870000000  0.5587410000000  0.4816430000000 1.0
C      1  0.5663340000000  0.4796390000000  0.5568080000000 1.0
C      1  0.4850330000000  0.5695880000000  0.5513950000000 1.0
C      1  0.4347780000000  0.5639460000000  0.5129260000000 1.0
C      1  0.4358440000000  0.4339610000000  0.4834770000000 1.0
C      1  0.5692470000000  0.4293710000000  0.5192600000000 1.0
C      1  0.4327250000000  0.4783650000000  0.4248120000000 1.0
C      1  0.4419670000000  0.5157000000000  0.5487850000000 1.0
C      1  0.5625000000000  0.5138290000000  0.4654100000000 1.0
C      1  0.5125790000000  0.5804870000000  0.4469610000000 1.0
C      1  0.5196960000000  0.4419580000000  0.5511300000000 1.0
C      1  0.4803310000000  0.4473180000000  0.4478740000000 1.0
C      1  0.4579190000000  0.4922040000000  0.4762980000000 1.0
C      1  0.4735300000000  0.4787190000000  0.4539840000000 1.0
C      1  0.4878940000000  0.4650950000000  0.5016590000000 1.0
C      1  0.5373040000000  0.5087680000000  0.5217830000000 1.0
C      1  0.5344160000000  0.4907780000000  0.4944730000000 1.0
C      1  0.4687030000000  0.4867370000000  0.5044130000000 1.0
C      1  0.5189410000000  0.4699730000000  0.5377800000000 1.0
C      1  0.5040540000000  0.5266810000000  0.4810130000000 1.0
C      1  0.4857680000000  0.5181190000000  0.5201910000000 1.0
C      1  0.5173260000000  0.4682990000000  0.5067150000000 1.0
C      1  0.5186440000000  0.5505020000000  0.4885820000000 1.0
C      1  0.4730370000000  0.5429190000000  0.5078430000000 1.0
C      1  0.5321040000000  0.4907580000000  0.4195660000000 1.0
C      1  0.4769920000000  0.3967730000000  0.5279330000000 1.0
C      1  0.4033120000000  0.5214260000000  0.4805090000000 1.0
C      1  0.4713300000000  0.4852270000000  0.5874810000000 1.0
C      1  0.4749410000000  0.5217640000000  0.4134250000000 1.0
C      1  0.5267920000000  0.5206860000000  0.5798720000000 1.0
C      1  0.5176890000000  0.4008810000000  0.4722990000000 1.0
C      1  0.5390570000000  0.6035040000000  0.5373630000000 1.0
C      1  0.4598820000000  0.6040420000000  0.4641850000000 1.0
C      1  0.6097360000000  0.5239770000000  0.5194820000000 1.0
C      1  0.6007070000000  0.4614350000000  0.4821800000000 1.0
C      1  0.3996320000000  0.4662140000000  0.5200890000000 1.0
END
