TITL C-3577077-324-229 1.13495585259928e-06 125000 -1040.11496084401 0 0 165 (C1) n - 1
REM
REM in /home/bkarasulu/work/CARBON/AIRSS/Generating-Clusters/EDIP-Nigel-Params/with-SteepDescent/Higher-Symm/SD-CG/HFTN-CG
REM
REM
REM
REM
REM
REM ./C.cell (12c818d87b63d06a65506943cc24bca4)
REM
REM compiler GCC version 9.2.1 20190827 (Red Hat 9.2.1-1)
REM options -cpp -mtune=generic -march=x86-64 -g -O0 -fpre-include=/usr/include/finclude/math-vector-fortran.h
REM seed 284530338 -729970657 372981544 -1974485266 199651877 1274391705 125413381 126110128 1496982541 -1511951938 -357342270 548341162 1729686946 1097366215 1718528367 408063382 1151202496 -1922905153 -509727854 -1108322645 -218185101 -1035955378 -1272108837 -778154128 919302611 1678322103 1081180669 -1091736487 -870262762 7967000 39944575 94765377 -1758634801
REM
CELL 1.54180   50.00000   50.00000   50.00000   90.00000   90.00000   90.00000
LATT -1
SFAC C  
C      1  0.4946620000000  0.3902430000000  0.5444930000000 1.0
C      1  0.4689250000000  0.3983000000000  0.5383480000000 1.0
C      1  0.4588990000000  0.3903030000000  0.5138010000000 1.0
C      1  0.4560110000000  0.3989040000000  0.4876250000000 1.0
C      1  0.4759190000000  0.3905080000000  0.4701820000000 1.0
C      1  0.4920510000000  0.3999930000000  0.4495350000000 1.0
C      1  0.5217460000000  0.4024690000000  0.4537960000000 1.0
C      1  0.5327280000000  0.3935650000000  0.4777310000000 1.0
C      1  0.5457560000000  0.4036710000000  0.4999810000000 1.0
C      1  0.5371030000000  0.3936900000000  0.5242910000000 1.0
C      1  0.5203750000000  0.4004190000000  0.5452550000000 1.0
C      1  0.5587610000000  0.4865010000000  0.6096510000000 1.0
C      1  0.4926890000000  0.4839010000000  0.6265930000000 1.0
C      1  0.4262810000000  0.4836580000000  0.6033380000000 1.0
C      1  0.3907110000000  0.4850540000000  0.5433660000000 1.0
C      1  0.3813060000000  0.4841090000000  0.4739640000000 1.0
C      1  0.4159220000000  0.4849630000000  0.4151100000000 1.0
C      1  0.4723960000000  0.4869060000000  0.3754050000000 1.0
C      1  0.5409330000000  0.4852630000000  0.3850420000000 1.0
C      1  0.5972270000000  0.4864640000000  0.4251780000000 1.0
C      1  0.6221520000000  0.4854770000000  0.4902630000000 1.0
C      1  0.6077140000000  0.4842440000000  0.5583620000000 1.0
C      1  0.4080870000000  0.4734100000000  0.5611550000000 1.0
C      1  0.3891270000000  0.4737790000000  0.4982000000000 1.0
C      1  0.4058610000000  0.4741170000000  0.4381470000000 1.0
C      1  0.4589730000000  0.4792980000000  0.3986250000000 1.0
C      1  0.5157370000000  0.4747440000000  0.3879700000000 1.0
C      1  0.5738520000000  0.4767270000000  0.4142650000000 1.0
C      1  0.6069200000000  0.4758830000000  0.4695220000000 1.0
C      1  0.6064770000000  0.4761040000000  0.5320630000000 1.0
C      1  0.5698680000000  0.4776770000000  0.5860080000000 1.0
C      1  0.5120110000000  0.4762240000000  0.6081650000000 1.0
C      1  0.4523820000000  0.4742100000000  0.6027400000000 1.0
C      1  0.4750770000000  0.5206920000000  0.5951650000000 1.0
C      1  0.4295470000000  0.5207460000000  0.5674200000000 1.0
C      1  0.4090480000000  0.5190690000000  0.5127550000000 1.0
C      1  0.4128070000000  0.5200050000000  0.4596540000000 1.0
C      1  0.4495930000000  0.5214030000000  0.4232120000000 1.0
C      1  0.4997110000000  0.5221200000000  0.4014980000000 1.0
C      1  0.5520920000000  0.5221880000000  0.4160180000000 1.0
C      1  0.5846860000000  0.5204440000000  0.4592900000000 1.0
C      1  0.5976000000000  0.5227200000000  0.5116120000000 1.0
C      1  0.5755910000000  0.5213910000000  0.5597930000000 1.0
C      1  0.5266570000000  0.5195800000000  0.5857870000000 1.0
C      1  0.4591710000000  0.4692370000000  0.5159390000000 1.0
C      1  0.4655060000000  0.4804560000000  0.4921160000000 1.0
C      1  0.4679760000000  0.4706360000000  0.4666740000000 1.0
C      1  0.4836010000000  0.4876370000000  0.4488890000000 1.0
C      1  0.5092340000000  0.4865220000000  0.4623760000000 1.0
C      1  0.5270410000000  0.4742330000000  0.4795990000000 1.0
C      1  0.5348570000000  0.4874140000000  0.5028740000000 1.0
C      1  0.5254050000000  0.4714970000000  0.5238270000000 1.0
C      1  0.5154180000000  0.4830910000000  0.5488890000000 1.0
C      1  0.4902070000000  0.4705590000000  0.5555850000000 1.0
C      1  0.4708420000000  0.4796410000000  0.5382970000000 1.0
C      1  0.4562370000000  0.5888280000000  0.4780440000000 1.0
C      1  0.4710750000000  0.5930020000000  0.4507470000000 1.0
C      1  0.4999410000000  0.5866050000000  0.4458710000000 1.0
C      1  0.5292040000000  0.5877330000000  0.4536580000000 1.0
C      1  0.5510740000000  0.5886760000000  0.4740470000000 1.0
C      1  0.5528160000000  0.5877180000000  0.5038610000000 1.0
C      1  0.5391130000000  0.5889880000000  0.5310820000000 1.0
C      1  0.5157540000000  0.5887250000000  0.5507710000000 1.0
C      1  0.4855920000000  0.5897270000000  0.5520450000000 1.0
C      1  0.4591560000000  0.5882080000000  0.5377240000000 1.0
C      1  0.4478420000000  0.5910650000000  0.5100420000000 1.0
C      1  0.4242710000000  0.4515090000000  0.5506180000000 1.0
C      1  0.4098170000000  0.4528960000000  0.5003730000000 1.0
C      1  0.4233030000000  0.4537980000000  0.4510020000000 1.0
C      1  0.4600880000000  0.4527520000000  0.4122500000000 1.0
C      1  0.5107240000000  0.4567880000000  0.4107140000000 1.0
C      1  0.5567970000000  0.4606690000000  0.4316670000000 1.0
C      1  0.5830810000000  0.4598790000000  0.4753900000000 1.0
C      1  0.5837110000000  0.4590210000000  0.5250820000000 1.0
C      1  0.5583950000000  0.4553030000000  0.5705370000000 1.0
C      1  0.5134220000000  0.4487220000000  0.5965980000000 1.0
C      1  0.4613660000000  0.4493360000000  0.5875130000000 1.0
C      1  0.5753300000000  0.5754910000000  0.4627770000000 1.0
C      1  0.5785940000000  0.5718650000000  0.5072360000000 1.0
C      1  0.5589930000000  0.5718640000000  0.5470750000000 1.0
C      1  0.5240630000000  0.5742470000000  0.5753610000000 1.0
C      1  0.4795750000000  0.5718550000000  0.5764970000000 1.0
C      1  0.4395940000000  0.5729470000000  0.5553590000000 1.0
C      1  0.4274710000000  0.5679650000000  0.5124390000000 1.0
C      1  0.4343750000000  0.5679810000000  0.4686420000000 1.0
C      1  0.4552590000000  0.5777710000000  0.4295150000000 1.0
C      1  0.4994560000000  0.5713220000000  0.4200700000000 1.0
C      1  0.5431290000000  0.5716530000000  0.4318190000000 1.0
C      1  0.4456410000000  0.4368740000000  0.5649810000000 1.0
C      1  0.4154130000000  0.4399940000000  0.5256890000000 1.0
C      1  0.4211750000000  0.4392920000000  0.4770760000000 1.0
C      1  0.4410290000000  0.4418030000000  0.4317530000000 1.0
C      1  0.4864790000000  0.4410120000000  0.4160630000000 1.0
C      1  0.5331740000000  0.4454750000000  0.4248850000000 1.0
C      1  0.5693670000000  0.4480610000000  0.4536610000000 1.0
C      1  0.5781080000000  0.4455850000000  0.5001020000000 1.0
C      1  0.5702190000000  0.4460310000000  0.5463470000000 1.0
C      1  0.5341350000000  0.4396380000000  0.5766700000000 1.0
C      1  0.4873040000000  0.4361010000000  0.5925870000000 1.0
C      1  0.4470000000000  0.5359860000000  0.5898540000000 1.0
C      1  0.4124040000000  0.5328260000000  0.5422850000000 1.0
C      1  0.4014960000000  0.5350500000000  0.4857700000000 1.0
C      1  0.4245570000000  0.5360950000000  0.4338310000000 1.0
C      1  0.4708350000000  0.5358470000000  0.4051330000000 1.0
C      1  0.5286190000000  0.5368580000000  0.3994830000000 1.0
C      1  0.5763620000000  0.5354310000000  0.4324560000000 1.0
C      1  0.6000840000000  0.5357530000000  0.4822170000000 1.0
C      1  0.5957270000000  0.5377830000000  0.5399920000000 1.0
C      1  0.5533980000000  0.5340460000000  0.5779630000000 1.0
C      1  0.5033450000000  0.5350260000000  0.5999140000000 1.0
C      1  0.4388940000000  0.4978630000000  0.4071640000000 1.0
C      1  0.4970280000000  0.4965420000000  0.3836650000000 1.0
C      1  0.5604890000000  0.4976190000000  0.3996790000000 1.0
C      1  0.6028290000000  0.4971730000000  0.4499940000000 1.0
C      1  0.6149130000000  0.4973180000000  0.5138320000000 1.0
C      1  0.5883150000000  0.4968270000000  0.5733700000000 1.0
C      1  0.5332280000000  0.4955650000000  0.6037260000000 1.0
C      1  0.4716940000000  0.4945480000000  0.6120110000000 1.0
C      1  0.4205660000000  0.4931350000000  0.5781370000000 1.0
C      1  0.3904150000000  0.4950570000000  0.5177900000000 1.0
C      1  0.3940460000000  0.4961470000000  0.4529570000000 1.0
C      1  0.4877780000000  0.4296580000000  0.4441750000000 1.0
C      1  0.5231120000000  0.4327570000000  0.4503530000000 1.0
C      1  0.5372180000000  0.4469340000000  0.4746110000000 1.0
C      1  0.5495920000000  0.4335270000000  0.5003820000000 1.0
C      1  0.5367290000000  0.4445510000000  0.5272610000000 1.0
C      1  0.5208730000000  0.4296530000000  0.5506620000000 1.0
C      1  0.4915870000000  0.4405430000000  0.5548670000000 1.0
C      1  0.4649700000000  0.4274340000000  0.5429890000000 1.0
C      1  0.4525800000000  0.4407790000000  0.5162960000000 1.0
C      1  0.4489920000000  0.4282180000000  0.4860220000000 1.0
C      1  0.4647420000000  0.4419100000000  0.4619560000000 1.0
C      1  0.4380780000000  0.5079930000000  0.4708660000000 1.0
C      1  0.4632380000000  0.5126850000000  0.4524390000000 1.0
C      1  0.5045920000000  0.5160220000000  0.4312410000000 1.0
C      1  0.5354930000000  0.5149300000000  0.4407690000000 1.0
C      1  0.5575230000000  0.5103940000000  0.4726080000000 1.0
C      1  0.5679610000000  0.5155350000000  0.5096540000000 1.0
C      1  0.5564840000000  0.5140480000000  0.5382760000000 1.0
C      1  0.5107850000000  0.5112600000000  0.5583000000000 1.0
C      1  0.4797400000000  0.5124390000000  0.5659900000000 1.0
C      1  0.4536570000000  0.5180520000000  0.5498830000000 1.0
C      1  0.4377660000000  0.5138650000000  0.5004450000000 1.0
C      1  0.5513560000000  0.5439650000000  0.5062110000000 1.0
C      1  0.5399220000000  0.5395060000000  0.5359250000000 1.0
C      1  0.5110550000000  0.5320420000000  0.5367350000000 1.0
C      1  0.4859590000000  0.5463090000000  0.5477920000000 1.0
C      1  0.4574490000000  0.5441760000000  0.5362220000000 1.0
C      1  0.4530670000000  0.5390480000000  0.5062810000000 1.0
C      1  0.4673510000000  0.5524500000000  0.4835090000000 1.0
C      1  0.4794080000000  0.5344340000000  0.4643820000000 1.0
C      1  0.5005130000000  0.5423830000000  0.4460720000000 1.0
C      1  0.5298310000000  0.5436820000000  0.4556030000000 1.0
C      1  0.5380660000000  0.5317390000000  0.4817240000000 1.0
C      1  0.4168150000000  0.5612950000000  0.5394870000000 1.0
C      1  0.4116060000000  0.5626420000000  0.4874530000000 1.0
C      1  0.4307190000000  0.5642710000000  0.4399090000000 1.0
C      1  0.4727430000000  0.5646990000000  0.4091690000000 1.0
C      1  0.5262970000000  0.5647360000000  0.4076860000000 1.0
C      1  0.5718950000000  0.5642080000000  0.4357290000000 1.0
C      1  0.5940180000000  0.5644060000000  0.4828640000000 1.0
C      1  0.5865610000000  0.5655030000000  0.5357240000000 1.0
C      1  0.5500150000000  0.5620590000000  0.5729460000000 1.0
C      1  0.5028630000000  0.5636360000000  0.5930820000000 1.0
C      1  0.4508600000000  0.5643000000000  0.5825460000000 1.0
END
