TITL C-3578198-8939-339 -1.73804113317263e-06 125000 -1160.93210239544 0 0 191 (C1) n - 1
REM
REM in /home/bkarasulu/work/CARBON/AIRSS/Generating-Clusters/EDIP-Nigel-Params/with-SteepDescent/Higher-Symm/SD-CG/HFTN-CG
REM
REM
REM
REM
REM
REM ./C.cell (12c818d87b63d06a65506943cc24bca4)
REM
REM compiler GCC version 9.2.1 20190827 (Red Hat 9.2.1-1)
REM options -cpp -mtune=generic -march=x86-64 -g -O0 -fpre-include=/usr/include/finclude/math-vector-fortran.h
REM seed -643410364 874487611 -1656159837 -557678981 -1173946853 1290352555 -1326863451 -543779200 -465727297 -15819649 1559590182 -347212911 -1536773823 -651031843 1591259380 -1600506935 -1052722852 14446513 -1006924051 2077476419 -210173952 669548248 745655094 1733798425 -798153792 1862985379 -501772512 1034974865 -1534360336 1748879907 291921166 -184466863 -951933194
REM
CELL 1.54180   50.00000   50.00000   50.00000   90.00000   90.00000   90.00000
LATT -1
SFAC C  
C      1  0.3929440000000  0.4918460000000  0.4601060000000 1.0
C      1  0.3928210000000  0.5354920000000  0.4804010000000 1.0
C      1  0.3930430000000  0.5297430000000  0.5280830000000 1.0
C      1  0.3943300000000  0.4830560000000  0.5431710000000 1.0
C      1  0.3925370000000  0.4596680000000  0.4972050000000 1.0
C      1  0.6063730000000  0.4907010000000  0.4616930000000 1.0
C      1  0.6046510000000  0.5389380000000  0.4764730000000 1.0
C      1  0.6038480000000  0.5368450000000  0.5294220000000 1.0
C      1  0.6056630000000  0.4856670000000  0.5366950000000 1.0
C      1  0.6050320000000  0.4544270000000  0.4977660000000 1.0
C      1  0.4371860000000  0.4985650000000  0.4447390000000 1.0
C      1  0.4372610000000  0.5517140000000  0.4812360000000 1.0
C      1  0.4374240000000  0.5347130000000  0.5432620000000 1.0
C      1  0.4369460000000  0.4676490000000  0.5547810000000 1.0
C      1  0.4363150000000  0.4483190000000  0.4830800000000 1.0
C      1  0.5637070000000  0.5003680000000  0.4454220000000 1.0
C      1  0.5627970000000  0.5590760000000  0.4741790000000 1.0
C      1  0.5630940000000  0.5424910000000  0.5498060000000 1.0
C      1  0.5627520000000  0.4687010000000  0.5458940000000 1.0
C      1  0.5630290000000  0.4377370000000  0.4865460000000 1.0
C      1  0.5384330000000  0.3901020000000  0.4669690000000 1.0
C      1  0.5312820000000  0.4986100000000  0.3793990000000 1.0
C      1  0.5354700000000  0.6093590000000  0.4612820000000 1.0
C      1  0.5365120000000  0.5684540000000  0.5943420000000 1.0
C      1  0.5284710000000  0.4307570000000  0.5961630000000 1.0
C      1  0.4701170000000  0.3876840000000  0.4626460000000 1.0
C      1  0.4638020000000  0.4980970000000  0.3798710000000 1.0
C      1  0.4676290000000  0.6104810000000  0.4622570000000 1.0
C      1  0.4692570000000  0.5713730000000  0.5934420000000 1.0
C      1  0.4611650000000  0.4343530000000  0.5930750000000 1.0
C      1  0.5225120000000  0.4074160000000  0.5093940000000 1.0
C      1  0.5219940000000  0.4633980000000  0.4127010000000 1.0
C      1  0.5230640000000  0.5694320000000  0.4370980000000 1.0
C      1  0.5221780000000  0.5817120000000  0.5487350000000 1.0
C      1  0.5207060000000  0.4786020000000  0.5922110000000 1.0
C      1  0.4783470000000  0.4068650000000  0.5073300000000 1.0
C      1  0.4778680000000  0.4641340000000  0.4139380000000 1.0
C      1  0.4787960000000  0.5694720000000  0.4379810000000 1.0
C      1  0.4780000000000  0.5816160000000  0.5468550000000 1.0
C      1  0.4765400000000  0.4810730000000  0.5918380000000 1.0
C      1  0.4860630000000  0.6057480000000  0.4849480000000 1.0
C      1  0.4873420000000  0.5478560000000  0.5945000000000 1.0
C      1  0.4804820000000  0.4251530000000  0.5727970000000 1.0
C      1  0.4883990000000  0.4063700000000  0.4491380000000 1.0
C      1  0.4822200000000  0.5197720000000  0.3868760000000 1.0
C      1  0.5163110000000  0.6027540000000  0.4829730000000 1.0
C      1  0.5176570000000  0.5461150000000  0.5952300000000 1.0
C      1  0.5108640000000  0.4241310000000  0.5734270000000 1.0
C      1  0.5188410000000  0.4053130000000  0.4506200000000 1.0
C      1  0.5116810000000  0.5165830000000  0.3925710000000 1.0
C      1  0.4507100000000  0.4973750000000  0.4726850000000 1.0
C      1  0.4523730000000  0.5258430000000  0.4889190000000 1.0
C      1  0.4525810000000  0.5190960000000  0.5208110000000 1.0
C      1  0.4506950000000  0.4870880000000  0.5241280000000 1.0
C      1  0.4503710000000  0.4735670000000  0.4941440000000 1.0
C      1  0.5508590000000  0.4981650000000  0.4740680000000 1.0
C      1  0.5504060000000  0.5259310000000  0.4902870000000 1.0
C      1  0.5503100000000  0.5189080000000  0.5218440000000 1.0
C      1  0.5485250000000  0.4861630000000  0.5248090000000 1.0
C      1  0.5511670000000  0.4735470000000  0.4957490000000 1.0
C      1  0.4798210000000  0.5282950000000  0.5322320000000 1.0
C      1  0.4763210000000  0.4775470000000  0.5373860000000 1.0
C      1  0.4787020000000  0.4599990000000  0.4895910000000 1.0
C      1  0.4787880000000  0.4956640000000  0.4598110000000 1.0
C      1  0.4797250000000  0.5393360000000  0.4839150000000 1.0
C      1  0.5242010000000  0.5285970000000  0.5343670000000 1.0
C      1  0.5206920000000  0.4780100000000  0.5363800000000 1.0
C      1  0.5242000000000  0.4597690000000  0.4895540000000 1.0
C      1  0.5225470000000  0.4964200000000  0.4606270000000 1.0
C      1  0.5241680000000  0.5405410000000  0.4846860000000 1.0
C      1  0.4556930000000  0.4161170000000  0.4428220000000 1.0
C      1  0.4521330000000  0.5272990000000  0.4016160000000 1.0
C      1  0.4540540000000  0.5999220000000  0.4957050000000 1.0
C      1  0.4558080000000  0.5363550000000  0.5944950000000 1.0
C      1  0.4501370000000  0.4197360000000  0.5599400000000 1.0
C      1  0.5493730000000  0.4164180000000  0.4422430000000 1.0
C      1  0.5437160000000  0.5263530000000  0.3999270000000 1.0
C      1  0.5467700000000  0.6027900000000  0.4963610000000 1.0
C      1  0.5488160000000  0.5327450000000  0.5966980000000 1.0
C      1  0.5430950000000  0.4203640000000  0.5631860000000 1.0
C      1  0.6161100000000  0.5190160000000  0.4571560000000 1.0
C      1  0.6092380000000  0.5508020000000  0.5034320000000 1.0
C      1  0.6094250000000  0.5131730000000  0.5464940000000 1.0
C      1  0.6163470000000  0.4597950000000  0.5248200000000 1.0
C      1  0.6104420000000  0.4626510000000  0.4699600000000 1.0
C      1  0.3832180000000  0.5189040000000  0.4584480000000 1.0
C      1  0.3830950000000  0.5455180000000  0.5056180000000 1.0
C      1  0.3827020000000  0.5102240000000  0.5471950000000 1.0
C      1  0.3888350000000  0.4590920000000  0.5265860000000 1.0
C      1  0.3833560000000  0.4658060000000  0.4693980000000 1.0
C      1  0.5443100000000  0.3953450000000  0.5464250000000 1.0
C      1  0.5473020000000  0.4271310000000  0.4140120000000 1.0
C      1  0.5444430000000  0.5566100000000  0.4003670000000 1.0
C      1  0.5442140000000  0.6123100000000  0.5251160000000 1.0
C      1  0.5472840000000  0.5074930000000  0.6129320000000 1.0
C      1  0.4519010000000  0.3960640000000  0.5412670000000 1.0
C      1  0.4535290000000  0.4271470000000  0.4147090000000 1.0
C      1  0.4515460000000  0.5575050000000  0.4048460000000 1.0
C      1  0.4514940000000  0.6091450000000  0.5243770000000 1.0
C      1  0.4548970000000  0.5131120000000  0.6137430000000 1.0
C      1  0.5229690000000  0.5192410000000  0.4418210000000 1.0
C      1  0.5271370000000  0.5641700000000  0.5017970000000 1.0
C      1  0.5267570000000  0.5184920000000  0.5619060000000 1.0
C      1  0.5215940000000  0.4485420000000  0.5379670000000 1.0
C      1  0.5284890000000  0.4501180000000  0.4615850000000 1.0
C      1  0.4788230000000  0.5188440000000  0.4412300000000 1.0
C      1  0.4792440000000  0.5642890000000  0.4994810000000 1.0
C      1  0.4783870000000  0.5205970000000  0.5607310000000 1.0
C      1  0.4726550000000  0.4483020000000  0.5359370000000 1.0
C      1  0.4784200000000  0.4476010000000  0.4623960000000 1.0
C      1  0.5859550000000  0.5497110000000  0.4334400000000 1.0
C      1  0.5845460000000  0.5805750000000  0.5319430000000 1.0
C      1  0.5851120000000  0.4897850000000  0.5808190000000 1.0
C      1  0.5840310000000  0.4226610000000  0.5262830000000 1.0
C      1  0.5846330000000  0.4613480000000  0.4296270000000 1.0
C      1  0.4109500000000  0.5538900000000  0.4413240000000 1.0
C      1  0.4112200000000  0.5735370000000  0.5328980000000 1.0
C      1  0.4161700000000  0.5007010000000  0.5814700000000 1.0
C      1  0.4148850000000  0.4208820000000  0.5139330000000 1.0
C      1  0.4115470000000  0.4604140000000  0.4303010000000 1.0
C      1  0.5877020000000  0.4315300000000  0.4989800000000 1.0
C      1  0.5898390000000  0.4912320000000  0.4361930000000 1.0
C      1  0.5880340000000  0.5571790000000  0.4613700000000 1.0
C      1  0.5881720000000  0.5552200000000  0.5458650000000 1.0
C      1  0.5895080000000  0.4701640000000  0.5574510000000 1.0
C      1  0.4098540000000  0.4366710000000  0.4877340000000 1.0
C      1  0.4097340000000  0.4912460000000  0.4358760000000 1.0
C      1  0.4096150000000  0.5581600000000  0.4722200000000 1.0
C      1  0.4099410000000  0.5456480000000  0.5462940000000 1.0
C      1  0.4123480000000  0.4773740000000  0.5648310000000 1.0
C      1  0.3978200000000  0.4461140000000  0.4524290000000 1.0
C      1  0.3980590000000  0.5280710000000  0.4346630000000 1.0
C      1  0.3979270000000  0.5712080000000  0.5065150000000 1.0
C      1  0.3964580000000  0.5209930000000  0.5717290000000 1.0
C      1  0.4049020000000  0.4365190000000  0.5355370000000 1.0
C      1  0.5948960000000  0.4463680000000  0.4514710000000 1.0
C      1  0.6041530000000  0.5261800000000  0.4304360000000 1.0
C      1  0.5944110000000  0.5759490000000  0.5053370000000 1.0
C      1  0.5945890000000  0.5150080000000  0.5715700000000 1.0
C      1  0.6037850000000  0.4384960000000  0.5424310000000 1.0
C      1  0.4511910000000  0.4397890000000  0.4599390000000 1.0
C      1  0.4524930000000  0.5183530000000  0.4301850000000 1.0
C      1  0.4514260000000  0.5709110000000  0.4973460000000 1.0
C      1  0.4505340000000  0.5251050000000  0.5672750000000 1.0
C      1  0.4424850000000  0.4425240000000  0.5410040000000 1.0
C      1  0.5571780000000  0.4414770000000  0.4580190000000 1.0
C      1  0.5479730000000  0.5179520000000  0.4285620000000 1.0
C      1  0.5563420000000  0.5734750000000  0.4988590000000 1.0
C      1  0.5567240000000  0.5217480000000  0.5692810000000 1.0
C      1  0.5491660000000  0.4432230000000  0.5447850000000 1.0
C      1  0.4796100000000  0.3925750000000  0.5329420000000 1.0
C      1  0.4806130000000  0.4356970000000  0.4068500000000 1.0
C      1  0.4792950000000  0.5656940000000  0.4091060000000 1.0
C      1  0.4788430000000  0.6083170000000  0.5346370000000 1.0
C      1  0.4809330000000  0.5001770000000  0.6137040000000 1.0
C      1  0.5182670000000  0.3921300000000  0.5339040000000 1.0
C      1  0.5192780000000  0.4344790000000  0.4080580000000 1.0
C      1  0.5179750000000  0.5657590000000  0.4084200000000 1.0
C      1  0.5175170000000  0.6076590000000  0.5357210000000 1.0
C      1  0.5195880000000  0.4986060000000  0.6136350000000 1.0
C      1  0.5163440000000  0.5444480000000  0.4551530000000 1.0
C      1  0.5171200000000  0.5580230000000  0.5292060000000 1.0
C      1  0.5152590000000  0.4908170000000  0.5636190000000 1.0
C      1  0.5147160000000  0.4375940000000  0.5114350000000 1.0
C      1  0.5172470000000  0.4703870000000  0.4434000000000 1.0
C      1  0.4867220000000  0.5438280000000  0.4548620000000 1.0
C      1  0.4871360000000  0.5578120000000  0.5275030000000 1.0
C      1  0.4851990000000  0.4918030000000  0.5635140000000 1.0
C      1  0.4844190000000  0.4376400000000  0.5105750000000 1.0
C      1  0.4865660000000  0.4694110000000  0.4441090000000 1.0
C      1  0.4356040000000  0.4004000000000  0.5170130000000 1.0
C      1  0.4351260000000  0.4510210000000  0.4138570000000 1.0
C      1  0.4340800000000  0.5664960000000  0.4273300000000 1.0
C      1  0.4347650000000  0.5904410000000  0.5404420000000 1.0
C      1  0.4353060000000  0.4939410000000  0.6034310000000 1.0
C      1  0.5651940000000  0.3992580000000  0.5260170000000 1.0
C      1  0.5644750000000  0.4511600000000  0.4107760000000 1.0
C      1  0.5641710000000  0.5659700000000  0.4203070000000 1.0
C      1  0.5629720000000  0.5977290000000  0.5422530000000 1.0
C      1  0.5635850000000  0.4862380000000  0.6005240000000 1.0
C      1  0.5423650000000  0.5817830000000  0.5697680000000 1.0
C      1  0.5392910000000  0.4571500000000  0.5982600000000 1.0
C      1  0.5451830000000  0.3980790000000  0.4938970000000 1.0
C      1  0.5407420000000  0.4756340000000  0.3939720000000 1.0
C      1  0.5438700000000  0.5888160000000  0.4429670000000 1.0
C      1  0.4584630000000  0.5801220000000  0.5682790000000 1.0
C      1  0.4548410000000  0.4622050000000  0.5964480000000 1.0
C      1  0.4599550000000  0.3941560000000  0.4886420000000 1.0
C      1  0.4566430000000  0.4777130000000  0.3988870000000 1.0
C      1  0.4585930000000  0.5886580000000  0.4459050000000 1.0
C      1  0.5012770000000  0.4815580000000  0.4890270000000 1.0
END
