TITL C-3577078-809-429 -2.15878885999591e-06 125000 -920.446571343155 0 0 149 (C1) n - 1
REM
REM in /home/bkarasulu/work/CARBON/AIRSS/Generating-Clusters/EDIP-Nigel-Params/with-SteepDescent/Higher-Symm/SD-CG/HFTN-CG
REM
REM
REM
REM
REM
REM ./C.cell (12c818d87b63d06a65506943cc24bca4)
REM
REM compiler GCC version 9.2.1 20190827 (Red Hat 9.2.1-1)
REM options -cpp -mtune=generic -march=x86-64 -g -O0 -fpre-include=/usr/include/finclude/math-vector-fortran.h
REM seed 1865819578 -1573003069 2017333395 1810712160 1329767937 -411751592 1536494674 -839527564 -778299338 739129527 1636516035 -1147170977 -323690198 -1329445006 -1276934221 1194038558 1820843734 -1603318214 -1916929767 -196174255 -487135817 -723712885 -1564473928 1834870509 -769506989 -1803852002 -2104995664 -1055679240 563644147 -1368462125 791306139 -1814702815 679338514
REM
CELL 1.54180   50.00000   50.00000   50.00000   90.00000   90.00000   90.00000
LATT -1
SFAC C  
C      1  0.3947250000000  0.4591130000000  0.5016530000000 1.0
C      1  0.4103410000000  0.4596940000000  0.4783720000000 1.0
C      1  0.4072100000000  0.4810590000000  0.4590620000000 1.0
C      1  0.3945940000000  0.5055320000000  0.4646390000000 1.0
C      1  0.4038250000000  0.5319690000000  0.4615760000000 1.0
C      1  0.4025920000000  0.5493700000000  0.4836250000000 1.0
C      1  0.4026980000000  0.5497960000000  0.5225130000000 1.0
C      1  0.4063170000000  0.5350330000000  0.5471520000000 1.0
C      1  0.3999430000000  0.5091810000000  0.5575960000000 1.0
C      1  0.4045720000000  0.4722640000000  0.5471410000000 1.0
C      1  0.4063020000000  0.4528750000000  0.5263820000000 1.0
C      1  0.4824910000000  0.4423550000000  0.5039640000000 1.0
C      1  0.4745070000000  0.4497860000000  0.4751580000000 1.0
C      1  0.4740510000000  0.4852210000000  0.4592110000000 1.0
C      1  0.4749650000000  0.5140480000000  0.4480780000000 1.0
C      1  0.4593780000000  0.5302200000000  0.4707300000000 1.0
C      1  0.4774130000000  0.5475100000000  0.4899440000000 1.0
C      1  0.4675060000000  0.5545820000000  0.5183020000000 1.0
C      1  0.4776360000000  0.5352920000000  0.5397000000000 1.0
C      1  0.4609810000000  0.5105500000000  0.5429740000000 1.0
C      1  0.4777950000000  0.4859200000000  0.5309360000000 1.0
C      1  0.4678400000000  0.4576620000000  0.5271440000000 1.0
C      1  0.5469400000000  0.4517800000000  0.4251540000000 1.0
C      1  0.5460160000000  0.4992210000000  0.4091460000000 1.0
C      1  0.5425540000000  0.5547830000000  0.4214530000000 1.0
C      1  0.5437600000000  0.5876340000000  0.4614110000000 1.0
C      1  0.5461140000000  0.5917630000000  0.5126670000000 1.0
C      1  0.5440840000000  0.5705260000000  0.5570840000000 1.0
C      1  0.5448710000000  0.5283250000000  0.5859310000000 1.0
C      1  0.5406610000000  0.4772950000000  0.5878060000000 1.0
C      1  0.5459330000000  0.4291610000000  0.5680900000000 1.0
C      1  0.5378500000000  0.4088600000000  0.5164630000000 1.0
C      1  0.5296200000000  0.4277520000000  0.4643690000000 1.0
C      1  0.4964550000000  0.4950360000000  0.5824320000000 1.0
C      1  0.4925120000000  0.4409090000000  0.5520910000000 1.0
C      1  0.4946800000000  0.3992640000000  0.5384260000000 1.0
C      1  0.4933160000000  0.3961910000000  0.4710770000000 1.0
C      1  0.4899240000000  0.4429180000000  0.4278430000000 1.0
C      1  0.4972990000000  0.4845980000000  0.4172390000000 1.0
C      1  0.4990100000000  0.5357030000000  0.4142530000000 1.0
C      1  0.4967390000000  0.5736310000000  0.4516450000000 1.0
C      1  0.4919950000000  0.5861930000000  0.5039960000000 1.0
C      1  0.4959110000000  0.5752130000000  0.5455870000000 1.0
C      1  0.4887000000000  0.5402790000000  0.5821130000000 1.0
C      1  0.5137310000000  0.5485020000000  0.4603230000000 1.0
C      1  0.5065580000000  0.5470590000000  0.4905120000000 1.0
C      1  0.5156690000000  0.5536050000000  0.5203790000000 1.0
C      1  0.5060800000000  0.5322350000000  0.5424670000000 1.0
C      1  0.5133810000000  0.5045480000000  0.5564680000000 1.0
C      1  0.5070320000000  0.4838740000000  0.5363030000000 1.0
C      1  0.5157720000000  0.4541220000000  0.5345150000000 1.0
C      1  0.5108030000000  0.4477260000000  0.5064000000000 1.0
C      1  0.4992310000000  0.4575750000000  0.4535660000000 1.0
C      1  0.5147270000000  0.4857730000000  0.4439110000000 1.0
C      1  0.5039590000000  0.5232960000000  0.4425340000000 1.0
C      1  0.5145980000000  0.3903980000000  0.5188180000000 1.0
C      1  0.5127170000000  0.4077050000000  0.4519030000000 1.0
C      1  0.5239790000000  0.4419690000000  0.4085200000000 1.0
C      1  0.5245020000000  0.4947690000000  0.3890420000000 1.0
C      1  0.5154070000000  0.5611890000000  0.4111490000000 1.0
C      1  0.5156070000000  0.5985220000000  0.4596530000000 1.0
C      1  0.5220440000000  0.6092670000000  0.5130750000000 1.0
C      1  0.5174700000000  0.5808810000000  0.5676900000000 1.0
C      1  0.5220100000000  0.5389990000000  0.6026000000000 1.0
C      1  0.5118270000000  0.4707640000000  0.5921690000000 1.0
C      1  0.5198330000000  0.4210560000000  0.5808410000000 1.0
C      1  0.4293730000000  0.5340360000000  0.4458820000000 1.0
C      1  0.4245210000000  0.5677690000000  0.4883230000000 1.0
C      1  0.4252890000000  0.5682400000000  0.5166570000000 1.0
C      1  0.4346180000000  0.5383810000000  0.5478100000000 1.0
C      1  0.4187660000000  0.5004800000000  0.5783640000000 1.0
C      1  0.4224000000000  0.4727480000000  0.5696280000000 1.0
C      1  0.4298060000000  0.4362160000000  0.5230020000000 1.0
C      1  0.4297430000000  0.4200830000000  0.4987130000000 1.0
C      1  0.4273580000000  0.4360180000000  0.4740370000000 1.0
C      1  0.4267340000000  0.4839480000000  0.4381290000000 1.0
C      1  0.4294290000000  0.5110730000000  0.4275480000000 1.0
C      1  0.4459900000000  0.5573370000000  0.5667980000000 1.0
C      1  0.4477760000000  0.5116910000000  0.5794070000000 1.0
C      1  0.4510680000000  0.4678390000000  0.5666020000000 1.0
C      1  0.4476000000000  0.4229840000000  0.5423690000000 1.0
C      1  0.4533780000000  0.4017670000000  0.4985990000000 1.0
C      1  0.4549960000000  0.4312610000000  0.4614120000000 1.0
C      1  0.4492120000000  0.4673070000000  0.4278840000000 1.0
C      1  0.4553230000000  0.5126400000000  0.4143390000000 1.0
C      1  0.4518410000000  0.5540330000000  0.4351880000000 1.0
C      1  0.4498250000000  0.5801190000000  0.4782830000000 1.0
C      1  0.4469910000000  0.5869380000000  0.5261720000000 1.0
C      1  0.5048160000000  0.6033290000000  0.5382610000000 1.0
C      1  0.5066820000000  0.5647160000000  0.5906260000000 1.0
C      1  0.4988960000000  0.5178310000000  0.6013910000000 1.0
C      1  0.5014090000000  0.4442460000000  0.5816770000000 1.0
C      1  0.5061750000000  0.4020590000000  0.5644250000000 1.0
C      1  0.5035380000000  0.3840380000000  0.4939700000000 1.0
C      1  0.5029600000000  0.4162420000000  0.4258270000000 1.0
C      1  0.5097920000000  0.4659410000000  0.3961230000000 1.0
C      1  0.5063650000000  0.5171770000000  0.3927850000000 1.0
C      1  0.5044330000000  0.5836240000000  0.4254850000000 1.0
C      1  0.5057570000000  0.6074630000000  0.4865820000000 1.0
C      1  0.6125820000000  0.4762390000000  0.5367420000000 1.0
C      1  0.6013310000000  0.4577420000000  0.5193700000000 1.0
C      1  0.6092000000000  0.4595040000000  0.4928450000000 1.0
C      1  0.5967290000000  0.4591150000000  0.4679490000000 1.0
C      1  0.5950050000000  0.4845770000000  0.4531650000000 1.0
C      1  0.6104310000000  0.5061190000000  0.4621560000000 1.0
C      1  0.6044280000000  0.5322560000000  0.4699030000000 1.0
C      1  0.6156820000000  0.5415340000000  0.4934750000000 1.0
C      1  0.6049780000000  0.5427890000000  0.5189440000000 1.0
C      1  0.6137620000000  0.5235940000000  0.5370230000000 1.0
C      1  0.6032280000000  0.5000610000000  0.5473700000000 1.0
C      1  0.5749430000000  0.5446780000000  0.5177940000000 1.0
C      1  0.5623840000000  0.5284240000000  0.5408940000000 1.0
C      1  0.5731740000000  0.5001880000000  0.5476930000000 1.0
C      1  0.5620480000000  0.4715110000000  0.5457200000000 1.0
C      1  0.5718210000000  0.4517710000000  0.5242890000000 1.0
C      1  0.5571720000000  0.4487400000000  0.4973180000000 1.0
C      1  0.5670430000000  0.4548450000000  0.4700400000000 1.0
C      1  0.5651470000000  0.4908430000000  0.4539800000000 1.0
C      1  0.5629500000000  0.5199380000000  0.4481160000000 1.0
C      1  0.5761120000000  0.5421900000000  0.4640110000000 1.0
C      1  0.5646450000000  0.5534930000000  0.4899180000000 1.0
C      1  0.4657640000000  0.5712100000000  0.4545330000000 1.0
C      1  0.4629880000000  0.5940870000000  0.5012430000000 1.0
C      1  0.4637040000000  0.5760070000000  0.5507290000000 1.0
C      1  0.4587680000000  0.5402480000000  0.5866920000000 1.0
C      1  0.4666240000000  0.4886580000000  0.5804320000000 1.0
C      1  0.4619830000000  0.4406650000000  0.5617110000000 1.0
C      1  0.4691800000000  0.4115830000000  0.5240840000000 1.0
C      1  0.4649720000000  0.4041230000000  0.4712240000000 1.0
C      1  0.4596290000000  0.4399800000000  0.4325760000000 1.0
C      1  0.4676830000000  0.4857910000000  0.4150570000000 1.0
C      1  0.4684830000000  0.5402200000000  0.4138730000000 1.0
C      1  0.5421500000000  0.5024880000000  0.5702240000000 1.0
C      1  0.5559870000000  0.4581850000000  0.5716700000000 1.0
C      1  0.5423260000000  0.4330710000000  0.5380090000000 1.0
C      1  0.5328680000000  0.4313780000000  0.4944980000000 1.0
C      1  0.5526980000000  0.4377930000000  0.4501560000000 1.0
C      1  0.5440980000000  0.4805870000000  0.4327750000000 1.0
C      1  0.5496140000000  0.5255980000000  0.4228960000000 1.0
C      1  0.5433140000000  0.5588820000000  0.4519900000000 1.0
C      1  0.5567370000000  0.5817100000000  0.4875140000000 1.0
C      1  0.5440860000000  0.5658400000000  0.5271140000000 1.0
C      1  0.5556750000000  0.5445710000000  0.5644130000000 1.0
C      1  0.4701980000000  0.4915560000000  0.4877900000000 1.0
C      1  0.5472040000000  0.4991950000000  0.4924540000000 1.0
C      1  0.5215840000000  0.4992100000000  0.4852780000000 1.0
C      1  0.4492930000000  0.5103090000000  0.4896270000000 1.0
C      1  0.4961520000000  0.5003250000000  0.4938270000000 1.0
C      1  0.5692470000000  0.5041000000000  0.5051010000000 1.0
END
