TITL C-3578208-4450-17 -3.29221834531772e-06 125000 -1140.18479197441 0 0 182 (C1) n - 1
REM
REM in /home/bkarasulu/work/CARBON/AIRSS/Generating-Clusters/EDIP-Nigel-Params/with-SteepDescent/Higher-Symm/SD-CG/HFTN-CG
REM
REM
REM
REM
REM
REM ./C.cell (12c818d87b63d06a65506943cc24bca4)
REM
REM compiler GCC version 9.2.1 20190827 (Red Hat 9.2.1-1)
REM options -cpp -mtune=generic -march=x86-64 -g -O0 -fpre-include=/usr/include/finclude/math-vector-fortran.h
REM seed 114116033 1411108167 -961928205 475596876 -379163544 106534568 29071433 -1311945815 1580835949 -216489258 1120640015 1583829447 842121951 1496158437 -1524777798 -1521512149 1187279661 -1512979836 494908544 639064449 785587684 -1881158204 377693119 364665056 1723977148 -581870112 -1535561667 -325888425 744327976 1337461758 72922275 2135319036 -962751564
REM
CELL 1.54180   50.00000   50.00000   50.00000   90.00000   90.00000   90.00000
LATT -1
SFAC C  
C      1  0.5995990000000  0.4624550000000  0.4708730000000 1.0
C      1  0.3955040000000  0.5331620000000  0.5289110000000 1.0
C      1  0.5177600000000  0.4905720000000  0.4804890000000 1.0
C      1  0.4794800000000  0.5065460000000  0.5216620000000 1.0
C      1  0.5469840000000  0.5466140000000  0.4611030000000 1.0
C      1  0.4578420000000  0.4594620000000  0.5362610000000 1.0
C      1  0.5040990000000  0.3944100000000  0.4702130000000 1.0
C      1  0.4969550000000  0.6049930000000  0.5285850000000 1.0
C      1  0.5922300000000  0.5283210000000  0.4540690000000 1.0
C      1  0.4089400000000  0.4727130000000  0.5468260000000 1.0
C      1  0.4935300000000  0.5283880000000  0.3943130000000 1.0
C      1  0.4985890000000  0.4740660000000  0.6046040000000 1.0
C      1  0.5914560000000  0.4299620000000  0.5067580000000 1.0
C      1  0.4063190000000  0.5664330000000  0.4927540000000 1.0
C      1  0.3991130000000  0.4432280000000  0.4901700000000 1.0
C      1  0.6040360000000  0.5553260000000  0.5128680000000 1.0
C      1  0.5379380000000  0.4627530000000  0.5144890000000 1.0
C      1  0.4616730000000  0.5382050000000  0.4874230000000 1.0
C      1  0.4547160000000  0.4366550000000  0.4254870000000 1.0
C      1  0.5466240000000  0.5618200000000  0.5760660000000 1.0
C      1  0.4857590000000  0.4359320000000  0.4634380000000 1.0
C      1  0.5170110000000  0.5629780000000  0.5372550000000 1.0
C      1  0.5092960000000  0.5042890000000  0.3863190000000 1.0
C      1  0.4845080000000  0.4992550000000  0.6093580000000 1.0
C      1  0.4857070000000  0.3911980000000  0.4947730000000 1.0
C      1  0.5159060000000  0.6069800000000  0.5051540000000 1.0
C      1  0.5503350000000  0.3936310000000  0.4869500000000 1.0
C      1  0.4509160000000  0.6043890000000  0.5088640000000 1.0
C      1  0.5000810000000  0.5548810000000  0.4735030000000 1.0
C      1  0.5037050000000  0.4432520000000  0.5324630000000 1.0
C      1  0.4670710000000  0.5681970000000  0.5735990000000 1.0
C      1  0.5314610000000  0.4341190000000  0.4228660000000 1.0
C      1  0.4629850000000  0.4661730000000  0.5701830000000 1.0
C      1  0.5300750000000  0.5385980000000  0.4246040000000 1.0
C      1  0.5607860000000  0.4520500000000  0.4842430000000 1.0
C      1  0.4445370000000  0.5611870000000  0.5136380000000 1.0
C      1  0.4692040000000  0.4860700000000  0.4035130000000 1.0
C      1  0.5262730000000  0.5134320000000  0.5951560000000 1.0
C      1  0.5563850000000  0.5071290000000  0.5337730000000 1.0
C      1  0.4441000000000  0.4912550000000  0.4655950000000 1.0
C      1  0.5727200000000  0.4323800000000  0.4391840000000 1.0
C      1  0.4268740000000  0.5759020000000  0.5565510000000 1.0
C      1  0.4414870000000  0.4024280000000  0.5347450000000 1.0
C      1  0.5611820000000  0.5978430000000  0.4675290000000 1.0
C      1  0.5802660000000  0.4715550000000  0.5452700000000 1.0
C      1  0.4194380000000  0.5264290000000  0.4558160000000 1.0
C      1  0.4809100000000  0.5179320000000  0.4949220000000 1.0
C      1  0.5148110000000  0.4779710000000  0.5066600000000 1.0
C      1  0.5583900000000  0.5729900000000  0.4273150000000 1.0
C      1  0.4450620000000  0.4257770000000  0.5754530000000 1.0
C      1  0.5875940000000  0.4799710000000  0.5150060000000 1.0
C      1  0.4136830000000  0.5194990000000  0.4868180000000 1.0
C      1  0.6046210000000  0.5176410000000  0.5433090000000 1.0
C      1  0.3956750000000  0.4786810000000  0.4576830000000 1.0
C      1  0.4850480000000  0.4073740000000  0.4518380000000 1.0
C      1  0.5152730000000  0.5920570000000  0.5478970000000 1.0
C      1  0.5772210000000  0.3912870000000  0.4792550000000 1.0
C      1  0.4253750000000  0.5998630000000  0.5181790000000 1.0
C      1  0.4431540000000  0.5001880000000  0.5462630000000 1.0
C      1  0.5470180000000  0.5087790000000  0.4520010000000 1.0
C      1  0.4280710000000  0.4231000000000  0.5520880000000 1.0
C      1  0.5763430000000  0.5781350000000  0.4501810000000 1.0
C      1  0.4931000000000  0.5751950000000  0.4517320000000 1.0
C      1  0.5106960000000  0.4197700000000  0.5500910000000 1.0
C      1  0.5503000000000  0.4799520000000  0.4031590000000 1.0
C      1  0.4448480000000  0.5264200000000  0.5971390000000 1.0
C      1  0.5275370000000  0.5578040000000  0.4821140000000 1.0
C      1  0.4769340000000  0.4412590000000  0.5203460000000 1.0
C      1  0.5760020000000  0.5531900000000  0.5393550000000 1.0
C      1  0.4261220000000  0.4444700000000  0.4626870000000 1.0
C      1  0.5966980000000  0.5014130000000  0.4698080000000 1.0
C      1  0.4025320000000  0.4954320000000  0.5287470000000 1.0
C      1  0.5216230000000  0.3981520000000  0.5310570000000 1.0
C      1  0.4791180000000  0.5980050000000  0.4665570000000 1.0
C      1  0.5316020000000  0.5962790000000  0.4602260000000 1.0
C      1  0.4708520000000  0.4028150000000  0.5413680000000 1.0
C      1  0.4685670000000  0.5948110000000  0.5298760000000 1.0
C      1  0.5330310000000  0.4038940000000  0.4656060000000 1.0
C      1  0.4712060000000  0.5426870000000  0.5870500000000 1.0
C      1  0.5261280000000  0.4601040000000  0.4112390000000 1.0
C      1  0.5076340000000  0.5780590000000  0.4156790000000 1.0
C      1  0.4935830000000  0.4263900000000  0.5842400000000 1.0
C      1  0.6085360000000  0.5266230000000  0.5169470000000 1.0
C      1  0.3935570000000  0.4713630000000  0.4845940000000 1.0
C      1  0.5376600000000  0.5028380000000  0.3912450000000 1.0
C      1  0.4558860000000  0.5021580000000  0.6079250000000 1.0
C      1  0.4433450000000  0.4497240000000  0.4877460000000 1.0
C      1  0.5599920000000  0.5492290000000  0.5135210000000 1.0
C      1  0.4850100000000  0.4546230000000  0.5876000000000 1.0
C      1  0.5128030000000  0.5511830000000  0.4038700000000 1.0
C      1  0.5312370000000  0.5854520000000  0.4328150000000 1.0
C      1  0.4714600000000  0.4130530000000  0.5694550000000 1.0
C      1  0.5018470000000  0.4671060000000  0.5486620000000 1.0
C      1  0.5032250000000  0.5293000000000  0.4583420000000 1.0
C      1  0.5251110000000  0.4827800000000  0.5945670000000 1.0
C      1  0.4652720000000  0.5162080000000  0.3989520000000 1.0
C      1  0.5770420000000  0.5233300000000  0.5507550000000 1.0
C      1  0.4232030000000  0.4730720000000  0.4502300000000 1.0
C      1  0.4919530000000  0.5518070000000  0.5272230000000 1.0
C      1  0.5137420000000  0.4433220000000  0.4708720000000 1.0
C      1  0.5956170000000  0.5059330000000  0.5002060000000 1.0
C      1  0.4070690000000  0.4922070000000  0.5001630000000 1.0
C      1  0.4376980000000  0.5293350000000  0.5025390000000 1.0
C      1  0.5615660000000  0.4773310000000  0.5014580000000 1.0
C      1  0.5462240000000  0.4203950000000  0.4421680000000 1.0
C      1  0.4546020000000  0.5864490000000  0.5559170000000 1.0
C      1  0.5649790000000  0.4461040000000  0.5450260000000 1.0
C      1  0.4350320000000  0.5514260000000  0.4548280000000 1.0
C      1  0.5125890000000  0.4776560000000  0.4323830000000 1.0
C      1  0.4844160000000  0.5228160000000  0.5672600000000 1.0
C      1  0.4278560000000  0.5124530000000  0.4301180000000 1.0
C      1  0.5749960000000  0.4828940000000  0.5730160000000 1.0
C      1  0.4727910000000  0.4515890000000  0.4410420000000 1.0
C      1  0.5275620000000  0.5482530000000  0.5605490000000 1.0
C      1  0.4899400000000  0.5463590000000  0.6088830000000 1.0
C      1  0.5078280000000  0.4567180000000  0.3892420000000 1.0
C      1  0.4262990000000  0.5243350000000  0.5501180000000 1.0
C      1  0.5689100000000  0.4875870000000  0.4506580000000 1.0
C      1  0.5801550000000  0.5235890000000  0.4270620000000 1.0
C      1  0.4164450000000  0.4812820000000  0.5749370000000 1.0
C      1  0.5769150000000  0.5526110000000  0.4662360000000 1.0
C      1  0.4278190000000  0.4488800000000  0.5356760000000 1.0
C      1  0.5458630000000  0.5968360000000  0.5426990000000 1.0
C      1  0.4554890000000  0.4021140000000  0.4587120000000 1.0
C      1  0.5431650000000  0.5938270000000  0.5123140000000 1.0
C      1  0.4592160000000  0.4054620000000  0.4889850000000 1.0
C      1  0.5690720000000  0.5925750000000  0.4956000000000 1.0
C      1  0.4338420000000  0.4074870000000  0.5067640000000 1.0
C      1  0.5251330000000  0.5065500000000  0.4277070000000 1.0
C      1  0.4636200000000  0.4972640000000  0.5703530000000 1.0
C      1  0.5542340000000  0.5211350000000  0.5979850000000 1.0
C      1  0.4430210000000  0.4733850000000  0.4011260000000 1.0
C      1  0.5083420000000  0.6075190000000  0.4764920000000 1.0
C      1  0.4927720000000  0.3902170000000  0.5234990000000 1.0
C      1  0.4711330000000  0.4991430000000  0.4513460000000 1.0
C      1  0.5288030000000  0.5023260000000  0.5477680000000 1.0
C      1  0.5241370000000  0.4684360000000  0.4594350000000 1.0
C      1  0.4757820000000  0.5314190000000  0.5400780000000 1.0
C      1  0.5301390000000  0.4244630000000  0.5726970000000 1.0
C      1  0.4779650000000  0.5575360000000  0.4299020000000 1.0
C      1  0.4536830000000  0.5916820000000  0.4825450000000 1.0
C      1  0.5432280000000  0.4105760000000  0.5113530000000 1.0
C      1  0.5279120000000  0.4750260000000  0.5642400000000 1.0
C      1  0.4887210000000  0.5290440000000  0.4331580000000 1.0
C      1  0.4554580000000  0.4875160000000  0.5215520000000 1.0
C      1  0.5374330000000  0.5146930000000  0.4818840000000 1.0
C      1  0.4258530000000  0.4836210000000  0.4215300000000 1.0
C      1  0.5732700000000  0.5120430000000  0.5789050000000 1.0
C      1  0.4305240000000  0.5728440000000  0.4743790000000 1.0
C      1  0.5686630000000  0.4245040000000  0.5254410000000 1.0
C      1  0.4929720000000  0.5061490000000  0.4721820000000 1.0
C      1  0.5047450000000  0.4910320000000  0.5296540000000 1.0
C      1  0.4474080000000  0.5454440000000  0.5424850000000 1.0
C      1  0.5542730000000  0.4615210000000  0.4566600000000 1.0
C      1  0.4929310000000  0.4798840000000  0.3856060000000 1.0
C      1  0.5028000000000  0.5218920000000  0.6127530000000 1.0
C      1  0.4483780000000  0.5553110000000  0.4289780000000 1.0
C      1  0.5539890000000  0.4403240000000  0.5709970000000 1.0
C      1  0.5303430000000  0.4365340000000  0.4977700000000 1.0
C      1  0.4788040000000  0.5618050000000  0.5023700000000 1.0
C      1  0.4055330000000  0.5808310000000  0.5176010000000 1.0
C      1  0.5875800000000  0.4171920000000  0.4812900000000 1.0
C      1  0.4434140000000  0.5301500000000  0.4135250000000 1.0
C      1  0.5578800000000  0.4641250000000  0.5881090000000 1.0
C      1  0.5931970000000  0.4355320000000  0.4593340000000 1.0
C      1  0.4062760000000  0.5624260000000  0.5398800000000 1.0
C      1  0.4811410000000  0.4782980000000  0.4319340000000 1.0
C      1  0.5169730000000  0.5222640000000  0.5676350000000 1.0
C      1  0.5733310000000  0.4895990000000  0.4209450000000 1.0
C      1  0.4216310000000  0.5175450000000  0.5799480000000 1.0
C      1  0.4390200000000  0.4232860000000  0.4449860000000 1.0
C      1  0.5623920000000  0.5751160000000  0.5565010000000 1.0
C      1  0.4367620000000  0.4609890000000  0.5839860000000 1.0
C      1  0.5588730000000  0.5441360000000  0.4183680000000 1.0
C      1  0.5546880000000  0.5206390000000  0.5072820000000 1.0
C      1  0.4483450000000  0.4785140000000  0.4920200000000 1.0
C      1  0.5801180000000  0.5630770000000  0.4957140000000 1.0
C      1  0.4235620000000  0.4369220000000  0.5067110000000 1.0
C      1  0.6014550000000  0.4578330000000  0.5003220000000 1.0
C      1  0.3947340000000  0.5390090000000  0.4985080000000 1.0
C      1  0.4687850000000  0.4343470000000  0.4903790000000 1.0
C      1  0.5351930000000  0.5647000000000  0.5110980000000 1.0
END
