TITL C-3578197-9521-54 -4.3836118351485e-07 125000 -964.318894781627 0 0 154 (C1) n - 1
REM
REM in /home/bkarasulu/work/CARBON/AIRSS/Generating-Clusters/EDIP-Nigel-Params/with-SteepDescent/Higher-Symm/SD-CG/HFTN-CG
REM
REM
REM
REM
REM
REM ./C.cell (12c818d87b63d06a65506943cc24bca4)
REM
REM compiler GCC version 9.2.1 20190827 (Red Hat 9.2.1-1)
REM options -cpp -mtune=generic -march=x86-64 -g -O0 -fpre-include=/usr/include/finclude/math-vector-fortran.h
REM seed -242312374 -202955670 1244234925 -1196179623 909981982 -2063840188 -901323074 1868218681 637720232 -1697100034 1711041479 -1205229747 493132495 245087981 -489699273 -362366594 2113482381 1484380971 1092552501 2075530716 1920767990 2086984777 194551803 -1183382935 2120121768 -1032955730 -225833821 1376582491 860077764 1312035506 -500494835 570001171 216127074
REM
CELL 1.54180   50.00000   50.00000   50.00000   90.00000   90.00000   90.00000
LATT -1
SFAC C  
C      1  0.4187720000000  0.5163220000000  0.4352920000000 1.0
C      1  0.4661420000000  0.4101920000000  0.5075690000000 1.0
C      1  0.4597150000000  0.4130800000000  0.5615430000000 1.0
C      1  0.5209300000000  0.4455780000000  0.4092610000000 1.0
C      1  0.5283490000000  0.5967950000000  0.5194550000000 1.0
C      1  0.4260340000000  0.5430130000000  0.5369610000000 1.0
C      1  0.4087930000000  0.4605470000000  0.5132750000000 1.0
C      1  0.4457910000000  0.4283940000000  0.4968650000000 1.0
C      1  0.4980320000000  0.4658520000000  0.4137780000000 1.0
C      1  0.5384180000000  0.4056770000000  0.5104260000000 1.0
C      1  0.4469110000000  0.4469130000000  0.5372570000000 1.0
C      1  0.4805740000000  0.5094610000000  0.4795480000000 1.0
C      1  0.4611760000000  0.5574190000000  0.4245620000000 1.0
C      1  0.3993660000000  0.4643890000000  0.4861630000000 1.0
C      1  0.4761920000000  0.4710590000000  0.5010700000000 1.0
C      1  0.5229030000000  0.5315640000000  0.6061020000000 1.0
C      1  0.5357490000000  0.5838650000000  0.4598110000000 1.0
C      1  0.5824850000000  0.4433830000000  0.4833730000000 1.0
C      1  0.5233100000000  0.4154940000000  0.5544200000000 1.0
C      1  0.5679490000000  0.4366370000000  0.5382240000000 1.0
C      1  0.4906820000000  0.4443610000000  0.5851690000000 1.0
C      1  0.5069360000000  0.5403940000000  0.4544500000000 1.0
C      1  0.4112410000000  0.5479520000000  0.4779560000000 1.0
C      1  0.4982000000000  0.5735390000000  0.5762340000000 1.0
C      1  0.4682830000000  0.4299610000000  0.4242800000000 1.0
C      1  0.5989370000000  0.4627290000000  0.4977310000000 1.0
C      1  0.4497320000000  0.4118430000000  0.4524600000000 1.0
C      1  0.4780220000000  0.4024270000000  0.4585570000000 1.0
C      1  0.4353510000000  0.5840760000000  0.4597560000000 1.0
C      1  0.4246850000000  0.4777960000000  0.5584440000000 1.0
C      1  0.4459550000000  0.5036140000000  0.5296680000000 1.0
C      1  0.5770150000000  0.5246570000000  0.4366310000000 1.0
C      1  0.5640000000000  0.4956210000000  0.4959270000000 1.0
C      1  0.4867810000000  0.4438510000000  0.4906220000000 1.0
C      1  0.4735900000000  0.5232040000000  0.5403750000000 1.0
C      1  0.5730900000000  0.5636870000000  0.5476140000000 1.0
C      1  0.3996040000000  0.5323710000000  0.5256770000000 1.0
C      1  0.5200080000000  0.3999510000000  0.4892000000000 1.0
C      1  0.4805410000000  0.5715850000000  0.5236700000000 1.0
C      1  0.5536810000000  0.4407750000000  0.4424500000000 1.0
C      1  0.5465190000000  0.4162340000000  0.5358720000000 1.0
C      1  0.4751190000000  0.4142050000000  0.5356500000000 1.0
C      1  0.5718280000000  0.4957430000000  0.4354790000000 1.0
C      1  0.5001870000000  0.5437740000000  0.5592260000000 1.0
C      1  0.5393810000000  0.4500820000000  0.5081630000000 1.0
C      1  0.4806430000000  0.4741670000000  0.5805920000000 1.0
C      1  0.5532650000000  0.5868450000000  0.5069880000000 1.0
C      1  0.5781030000000  0.4491560000000  0.4556820000000 1.0
C      1  0.4680650000000  0.5700210000000  0.5731200000000 1.0
C      1  0.5026090000000  0.4902220000000  0.5925210000000 1.0
C      1  0.6001370000000  0.4679220000000  0.5547320000000 1.0
C      1  0.4452750000000  0.4840260000000  0.4207120000000 1.0
C      1  0.4378430000000  0.5256000000000  0.5042960000000 1.0
C      1  0.5818200000000  0.5626110000000  0.4733350000000 1.0
C      1  0.4239640000000  0.4840810000000  0.4436690000000 1.0
C      1  0.3946710000000  0.5024870000000  0.4892050000000 1.0
C      1  0.4363480000000  0.5298940000000  0.5626620000000 1.0
C      1  0.4714420000000  0.5224320000000  0.5952510000000 1.0
C      1  0.4359610000000  0.4841340000000  0.4737990000000 1.0
C      1  0.5375920000000  0.5292410000000  0.4054950000000 1.0
C      1  0.5090090000000  0.6051600000000  0.4985910000000 1.0
C      1  0.5569840000000  0.5790980000000  0.4789140000000 1.0
C      1  0.5067200000000  0.4558000000000  0.5418880000000 1.0
C      1  0.4205330000000  0.5407570000000  0.4509240000000 1.0
C      1  0.5331020000000  0.5003080000000  0.4026170000000 1.0
C      1  0.4640400000000  0.5303050000000  0.4140070000000 1.0
C      1  0.6018000000000  0.4850020000000  0.4767940000000 1.0
C      1  0.5398970000000  0.4149080000000  0.4418290000000 1.0
C      1  0.4357970000000  0.5013120000000  0.5716870000000 1.0
C      1  0.4603620000000  0.5801490000000  0.5457570000000 1.0
C      1  0.5132410000000  0.5885820000000  0.5541840000000 1.0
C      1  0.5871290000000  0.4680250000000  0.5262500000000 1.0
C      1  0.5789970000000  0.4862630000000  0.5802450000000 1.0
C      1  0.5880910000000  0.5178760000000  0.5300340000000 1.0
C      1  0.5438300000000  0.5411870000000  0.5364250000000 1.0
C      1  0.4294270000000  0.4407710000000  0.5161580000000 1.0
C      1  0.4960370000000  0.5014960000000  0.5401320000000 1.0
C      1  0.4842930000000  0.4757650000000  0.5490600000000 1.0
C      1  0.4602920000000  0.5968760000000  0.4684020000000 1.0
C      1  0.4357560000000  0.5835450000000  0.5069220000000 1.0
C      1  0.4682630000000  0.5356350000000  0.4893740000000 1.0
C      1  0.4853910000000  0.5721430000000  0.4323850000000 1.0
C      1  0.4332640000000  0.5727600000000  0.5346040000000 1.0
C      1  0.4163360000000  0.4517520000000  0.4646080000000 1.0
C      1  0.4583320000000  0.4958820000000  0.5898490000000 1.0
C      1  0.5275200000000  0.5337460000000  0.5112340000000 1.0
C      1  0.5163390000000  0.4194470000000  0.4244150000000 1.0
C      1  0.5104620000000  0.5942530000000  0.4708830000000 1.0
C      1  0.5234800000000  0.5029520000000  0.5560320000000 1.0
C      1  0.5667400000000  0.4592590000000  0.5820090000000 1.0
C      1  0.5461360000000  0.4565910000000  0.4198550000000 1.0
C      1  0.5287350000000  0.5311820000000  0.5605330000000 1.0
C      1  0.5449710000000  0.4904440000000  0.5389320000000 1.0
C      1  0.5379450000000  0.5292520000000  0.4571440000000 1.0
C      1  0.4368910000000  0.5621510000000  0.4403520000000 1.0
C      1  0.4722130000000  0.4518280000000  0.4064950000000 1.0
C      1  0.4325510000000  0.4239490000000  0.5636420000000 1.0
C      1  0.5001580000000  0.5181880000000  0.5954030000000 1.0
C      1  0.4491960000000  0.4660110000000  0.4000060000000 1.0
C      1  0.5513570000000  0.5403920000000  0.4307920000000 1.0
C      1  0.4980890000000  0.4703660000000  0.4436420000000 1.0
C      1  0.5865210000000  0.4770700000000  0.4528750000000 1.0
C      1  0.4970000000000  0.5131040000000  0.4554460000000 1.0
C      1  0.3946950000000  0.5315580000000  0.4961320000000 1.0
C      1  0.4591180000000  0.5990740000000  0.4971960000000 1.0
C      1  0.4932000000000  0.5542590000000  0.4786700000000 1.0
C      1  0.5172540000000  0.4914550000000  0.4512360000000 1.0
C      1  0.5712220000000  0.4938250000000  0.5245810000000 1.0
C      1  0.5248770000000  0.5508040000000  0.4868630000000 1.0
C      1  0.4902020000000  0.5212590000000  0.4035000000000 1.0
C      1  0.5021880000000  0.4050870000000  0.5376110000000 1.0
C      1  0.6016380000000  0.5141430000000  0.4825290000000 1.0
C      1  0.4082290000000  0.4811510000000  0.5348050000000 1.0
C      1  0.4408680000000  0.5125410000000  0.4146440000000 1.0
C      1  0.4192860000000  0.5755320000000  0.4837460000000 1.0
C      1  0.5826690000000  0.4440690000000  0.5623210000000 1.0
C      1  0.4966180000000  0.4465750000000  0.4608130000000 1.0
C      1  0.5298110000000  0.4688800000000  0.5282060000000 1.0
C      1  0.5638690000000  0.5096960000000  0.5874270000000 1.0
C      1  0.5360010000000  0.5679350000000  0.4349720000000 1.0
C      1  0.4857540000000  0.5909220000000  0.4550100000000 1.0
C      1  0.5266390000000  0.4830650000000  0.4775720000000 1.0
C      1  0.5269100000000  0.5039260000000  0.5013080000000 1.0
C      1  0.5453420000000  0.4857440000000  0.4251710000000 1.0
C      1  0.4237880000000  0.4985290000000  0.4973340000000 1.0
C      1  0.5726660000000  0.5706400000000  0.5202690000000 1.0
C      1  0.4289850000000  0.4517340000000  0.5710230000000 1.0
C      1  0.4886140000000  0.4042640000000  0.4870810000000 1.0
C      1  0.5071770000000  0.4346080000000  0.5130750000000 1.0
C      1  0.4758640000000  0.5423730000000  0.5174600000000 1.0
C      1  0.4738570000000  0.4225360000000  0.5836540000000 1.0
C      1  0.4830600000000  0.6074470000000  0.5102820000000 1.0
C      1  0.4992210000000  0.4950900000000  0.5102170000000 1.0
C      1  0.5436580000000  0.5304320000000  0.5866930000000 1.0
C      1  0.5374210000000  0.4576080000000  0.5810030000000 1.0
C      1  0.5909200000000  0.5342470000000  0.4613680000000 1.0
C      1  0.3950170000000  0.5057810000000  0.5332300000000 1.0
C      1  0.5038490000000  0.4941270000000  0.4002670000000 1.0
C      1  0.5291470000000  0.4832770000000  0.5884040000000 1.0
C      1  0.5592880000000  0.5263660000000  0.4834740000000 1.0
C      1  0.4912520000000  0.4238850000000  0.4418230000000 1.0
C      1  0.5113760000000  0.5417590000000  0.4025690000000 1.0
C      1  0.4645520000000  0.4844160000000  0.4773320000000 1.0
C      1  0.5331850000000  0.4003480000000  0.4647300000000 1.0
C      1  0.6080430000000  0.5235000000000  0.5095160000000 1.0
C      1  0.5088290000000  0.5664110000000  0.5345030000000 1.0
C      1  0.4345230000000  0.4281960000000  0.4708290000000 1.0
C      1  0.4608090000000  0.4734220000000  0.5291700000000 1.0
C      1  0.5107590000000  0.5658700000000  0.4195370000000 1.0
C      1  0.5154910000000  0.4416450000000  0.5676350000000 1.0
C      1  0.4594330000000  0.5417230000000  0.5765250000000 1.0
C      1  0.5835850000000  0.5513470000000  0.5012590000000 1.0
C      1  0.5798730000000  0.5363920000000  0.5504350000000 1.0
C      1  0.5514430000000  0.4660780000000  0.4853880000000 1.0
END
