TITL C-3578194-7807-489 4.79623987512685e-07 125000 -1161.07852259899 0 0 187 (C1) n - 1
REM
REM in /home/bkarasulu/work/CARBON/AIRSS/Generating-Clusters/EDIP-Nigel-Params/with-SteepDescent/Higher-Symm/SD-CG/HFTN-CG
REM
REM
REM
REM
REM
REM ./C.cell (12c818d87b63d06a65506943cc24bca4)
REM
REM compiler GCC version 9.2.1 20190827 (Red Hat 9.2.1-1)
REM options -cpp -mtune=generic -march=x86-64 -g -O0 -fpre-include=/usr/include/finclude/math-vector-fortran.h
REM seed -808930518 1563607536 -122325183 490734843 -142938470 -361476647 -350005397 245312039 322032833 1134638951 -229495232 -853292971 151873717 2036680124 626015953 -1394459289 -1812194592 1697843926 -2002167408 -1333234513 2123863114 -885865204 902597502 265542919 1552961943 1632469986 -1369681935 1861278077 -919888478 -1971182567 -180670402 751296511 1531306436
REM
CELL 1.54180   50.00000   50.00000   50.00000   90.00000   90.00000   90.00000
LATT -1
SFAC C  
C      1  0.5077170000000  0.5862350000000  0.5536420000000 1.0
C      1  0.5765420000000  0.5462270000000  0.5606420000000 1.0
C      1  0.5863390000000  0.4667610000000  0.5528500000000 1.0
C      1  0.5339890000000  0.4228160000000  0.5549700000000 1.0
C      1  0.4524360000000  0.4262180000000  0.5575490000000 1.0
C      1  0.4154030000000  0.4959910000000  0.5554770000000 1.0
C      1  0.4397060000000  0.5716800000000  0.5553140000000 1.0
C      1  0.4250690000000  0.5768710000000  0.4845730000000 1.0
C      1  0.5137580000000  0.6032350000000  0.4905320000000 1.0
C      1  0.5901130000000  0.5486740000000  0.4848590000000 1.0
C      1  0.5974950000000  0.4618430000000  0.4885280000000 1.0
C      1  0.5330400000000  0.4062120000000  0.4949080000000 1.0
C      1  0.4395320000000  0.4094310000000  0.4771050000000 1.0
C      1  0.3942680000000  0.4902800000000  0.4915270000000 1.0
C      1  0.5692620000000  0.5538720000000  0.4653040000000 1.0
C      1  0.5884770000000  0.4792060000000  0.4648490000000 1.0
C      1  0.5415120000000  0.4247110000000  0.4718230000000 1.0
C      1  0.4612600000000  0.4168280000000  0.4586660000000 1.0
C      1  0.4074180000000  0.4789940000000  0.4656950000000 1.0
C      1  0.4278560000000  0.5550900000000  0.4655050000000 1.0
C      1  0.4999380000000  0.5928810000000  0.4648570000000 1.0
C      1  0.5586740000000  0.4869500000000  0.5154960000000 1.0
C      1  0.5256380000000  0.4508730000000  0.5215840000000 1.0
C      1  0.4816870000000  0.4548160000000  0.5174040000000 1.0
C      1  0.4426820000000  0.4882830000000  0.5215530000000 1.0
C      1  0.4529240000000  0.5403820000000  0.5198660000000 1.0
C      1  0.4987790000000  0.5573860000000  0.5211700000000 1.0
C      1  0.5410970000000  0.5308930000000  0.5132360000000 1.0
C      1  0.4306600000000  0.5318640000000  0.5830880000000 1.0
C      1  0.4728310000000  0.5578220000000  0.5817420000000 1.0
C      1  0.5264140000000  0.5556250000000  0.5811590000000 1.0
C      1  0.5796710000000  0.5087570000000  0.5886190000000 1.0
C      1  0.5524510000000  0.4675320000000  0.5827870000000 1.0
C      1  0.4962890000000  0.4250660000000  0.5805280000000 1.0
C      1  0.4418930000000  0.4654790000000  0.5843730000000 1.0
C      1  0.5333840000000  0.4828610000000  0.4468230000000 1.0
C      1  0.5101940000000  0.4625520000000  0.4500930000000 1.0
C      1  0.4809830000000  0.4672850000000  0.4490440000000 1.0
C      1  0.4539730000000  0.4904660000000  0.4434350000000 1.0
C      1  0.4814860000000  0.5344030000000  0.4496640000000 1.0
C      1  0.5093010000000  0.5436620000000  0.4424390000000 1.0
C      1  0.5286790000000  0.5183950000000  0.4534440000000 1.0
C      1  0.4997870000000  0.5581200000000  0.5657000000000 1.0
C      1  0.5467960000000  0.5357080000000  0.5675580000000 1.0
C      1  0.5659370000000  0.4858880000000  0.5622890000000 1.0
C      1  0.5311700000000  0.4501910000000  0.5695930000000 1.0
C      1  0.4761870000000  0.4428170000000  0.5664360000000 1.0
C      1  0.4420500000000  0.4913950000000  0.5695940000000 1.0
C      1  0.4503010000000  0.5455320000000  0.5640350000000 1.0
C      1  0.5683080000000  0.4186710000000  0.4578480000000 1.0
C      1  0.4850620000000  0.3983490000000  0.4559350000000 1.0
C      1  0.4133460000000  0.4518720000000  0.4549500000000 1.0
C      1  0.4032440000000  0.5394140000000  0.4604370000000 1.0
C      1  0.4714860000000  0.5966190000000  0.4555790000000 1.0
C      1  0.5620860000000  0.5821370000000  0.4603550000000 1.0
C      1  0.6026030000000  0.5057820000000  0.4563250000000 1.0
C      1  0.5162510000000  0.5535600000000  0.4122270000000 1.0
C      1  0.5596040000000  0.5225100000000  0.3994380000000 1.0
C      1  0.5490270000000  0.4707930000000  0.4131730000000 1.0
C      1  0.5082000000000  0.4359160000000  0.3997110000000 1.0
C      1  0.4565080000000  0.4549280000000  0.3953630000000 1.0
C      1  0.4518060000000  0.5084730000000  0.4181690000000 1.0
C      1  0.4642970000000  0.5517510000000  0.3965910000000 1.0
C      1  0.4690790000000  0.4586170000000  0.5909320000000 1.0
C      1  0.4503210000000  0.5146640000000  0.5962390000000 1.0
C      1  0.4732360000000  0.5334960000000  0.6003680000000 1.0
C      1  0.5195290000000  0.5453450000000  0.6071090000000 1.0
C      1  0.5520870000000  0.5162060000000  0.5909500000000 1.0
C      1  0.5359300000000  0.4920110000000  0.5950250000000 1.0
C      1  0.5135660000000  0.4441220000000  0.5923330000000 1.0
C      1  0.5655460000000  0.5855980000000  0.5114290000000 1.0
C      1  0.6096030000000  0.5078130000000  0.5077130000000 1.0
C      1  0.5844130000000  0.4153950000000  0.5038190000000 1.0
C      1  0.4791880000000  0.3891630000000  0.5047980000000 1.0
C      1  0.4073670000000  0.4428540000000  0.5038090000000 1.0
C      1  0.3933030000000  0.5424910000000  0.5074700000000 1.0
C      1  0.4629300000000  0.6124100000000  0.5021510000000 1.0
C      1  0.4381620000000  0.4954550000000  0.3938140000000 1.0
C      1  0.4382310000000  0.5545430000000  0.4106590000000 1.0
C      1  0.5038290000000  0.5781840000000  0.4038360000000 1.0
C      1  0.5661560000000  0.5470640000000  0.4130990000000 1.0
C      1  0.5751760000000  0.4798750000000  0.4087330000000 1.0
C      1  0.5313150000000  0.4240690000000  0.4117760000000 1.0
C      1  0.4605650000000  0.4323190000000  0.4117370000000 1.0
C      1  0.5517120000000  0.5954640000000  0.4861310000000 1.0
C      1  0.6055620000000  0.5216660000000  0.4818320000000 1.0
C      1  0.5885680000000  0.4258670000000  0.4776170000000 1.0
C      1  0.4982910000000  0.3924200000000  0.4823170000000 1.0
C      1  0.4153840000000  0.4308840000000  0.4772240000000 1.0
C      1  0.3891510000000  0.5273640000000  0.4832470000000 1.0
C      1  0.4525960000000  0.6001850000000  0.4780090000000 1.0
C      1  0.5637940000000  0.5067470000000  0.4765950000000 1.0
C      1  0.5501520000000  0.4519350000000  0.4824950000000 1.0
C      1  0.4952610000000  0.4312570000000  0.4827170000000 1.0
C      1  0.4455090000000  0.4543200000000  0.4846570000000 1.0
C      1  0.4311550000000  0.5158610000000  0.4853650000000 1.0
C      1  0.4741350000000  0.5625760000000  0.4828950000000 1.0
C      1  0.5304610000000  0.5628150000000  0.4838220000000 1.0
C      1  0.4811370000000  0.5261500000000  0.3932060000000 1.0
C      1  0.5105910000000  0.5304740000000  0.3937530000000 1.0
C      1  0.5320300000000  0.5109080000000  0.3968370000000 1.0
C      1  0.5292040000000  0.4814510000000  0.3939100000000 1.0
C      1  0.5051440000000  0.4646970000000  0.3947920000000 1.0
C      1  0.4783910000000  0.4730260000000  0.3886170000000 1.0
C      1  0.4674680000000  0.5000360000000  0.3825140000000 1.0
C      1  0.5584250000000  0.4039300000000  0.5128650000000 1.0
C      1  0.4508000000000  0.3997380000000  0.5035870000000 1.0
C      1  0.3930650000000  0.4675590000000  0.5118740000000 1.0
C      1  0.4109750000000  0.5661470000000  0.5091690000000 1.0
C      1  0.4911700000000  0.6106200000000  0.5103790000000 1.0
C      1  0.5843390000000  0.5623510000000  0.5106070000000 1.0
C      1  0.6135000000000  0.4785280000000  0.5087600000000 1.0
C      1  0.4985890000000  0.5378600000000  0.5431900000000 1.0
C      1  0.5319380000000  0.5216250000000  0.5416690000000 1.0
C      1  0.5424990000000  0.4910390000000  0.5418170000000 1.0
C      1  0.5193540000000  0.4673460000000  0.5460290000000 1.0
C      1  0.4853620000000  0.4663990000000  0.5450790000000 1.0
C      1  0.4619480000000  0.4937050000000  0.5450660000000 1.0
C      1  0.4677790000000  0.5272620000000  0.5428010000000 1.0
C      1  0.5123890000000  0.4232540000000  0.5107830000000 1.0
C      1  0.4596000000000  0.4379420000000  0.5067030000000 1.0
C      1  0.4161430000000  0.5048340000000  0.5121470000000 1.0
C      1  0.4546750000000  0.5695960000000  0.5079880000000 1.0
C      1  0.5203500000000  0.5772160000000  0.5120500000000 1.0
C      1  0.5684360000000  0.5218320000000  0.5036560000000 1.0
C      1  0.5716710000000  0.4576070000000  0.5055670000000 1.0
C      1  0.4993090000000  0.3886140000000  0.5482500000000 1.0
C      1  0.4092770000000  0.4462520000000  0.5500950000000 1.0
C      1  0.3899530000000  0.5362270000000  0.5564160000000 1.0
C      1  0.4632270000000  0.6089300000000  0.5497790000000 1.0
C      1  0.5442020000000  0.5954500000000  0.5554710000000 1.0
C      1  0.6151900000000  0.5150330000000  0.5578050000000 1.0
C      1  0.5827050000000  0.4226630000000  0.5506560000000 1.0
C      1  0.5819460000000  0.5061110000000  0.4084830000000 1.0
C      1  0.5532240000000  0.4414060000000  0.4149860000000 1.0
C      1  0.4869680000000  0.4214310000000  0.4127360000000 1.0
C      1  0.4318860000000  0.4680650000000  0.3996620000000 1.0
C      1  0.4346560000000  0.5306400000000  0.4250230000000 1.0
C      1  0.4772670000000  0.5747660000000  0.4087900000000 1.0
C      1  0.5441640000000  0.5642960000000  0.4162110000000 1.0
C      1  0.3987730000000  0.4731930000000  0.5421350000000 1.0
C      1  0.4201410000000  0.5780470000000  0.5340530000000 1.0
C      1  0.4908850000000  0.6073150000000  0.5401300000000 1.0
C      1  0.5893610000000  0.5454830000000  0.5339310000000 1.0
C      1  0.6097310000000  0.4668410000000  0.5349980000000 1.0
C      1  0.5575020000000  0.4094910000000  0.5428100000000 1.0
C      1  0.4427160000000  0.4205140000000  0.5288790000000 1.0
C      1  0.5181970000000  0.5707220000000  0.4567610000000 1.0
C      1  0.5605210000000  0.5278390000000  0.4527090000000 1.0
C      1  0.5605450000000  0.4663690000000  0.4566860000000 1.0
C      1  0.5142450000000  0.4332340000000  0.4576930000000 1.0
C      1  0.4583460000000  0.4478170000000  0.4558800000000 1.0
C      1  0.4268910000000  0.4996910000000  0.4585720000000 1.0
C      1  0.4580460000000  0.5542760000000  0.4544940000000 1.0
C      1  0.5125050000000  0.4062870000000  0.5651780000000 1.0
C      1  0.4310850000000  0.4423590000000  0.5695740000000 1.0
C      1  0.4070080000000  0.5191150000000  0.5707140000000 1.0
C      1  0.4554700000000  0.5907450000000  0.5703260000000 1.0
C      1  0.5361580000000  0.5837260000000  0.5801270000000 1.0
C      1  0.5954170000000  0.5274070000000  0.5741460000000 1.0
C      1  0.5808760000000  0.4440600000000  0.5696610000000 1.0
C      1  0.5865430000000  0.5215020000000  0.4346030000000 1.0
C      1  0.5690820000000  0.4416180000000  0.4398040000000 1.0
C      1  0.5041260000000  0.4115000000000  0.4366070000000 1.0
C      1  0.4361250000000  0.4523200000000  0.4345950000000 1.0
C      1  0.4135720000000  0.5203230000000  0.4415790000000 1.0
C      1  0.4595400000000  0.5779490000000  0.4335450000000 1.0
C      1  0.5408390000000  0.5820060000000  0.4400760000000 1.0
C      1  0.4940470000000  0.5409440000000  0.4976970000000 1.0
C      1  0.5225300000000  0.5345360000000  0.4882970000000 1.0
C      1  0.5375790000000  0.4941240000000  0.4894780000000 1.0
C      1  0.5253760000000  0.4661960000000  0.4947510000000 1.0
C      1  0.4940800000000  0.4652360000000  0.4914010000000 1.0
C      1  0.4509920000000  0.4841910000000  0.4926590000000 1.0
C      1  0.4572510000000  0.5286680000000  0.4934300000000 1.0
C      1  0.4474830000000  0.6037590000000  0.5256680000000 1.0
C      1  0.5445950000000  0.5804980000000  0.5307260000000 1.0
C      1  0.6095210000000  0.5245700000000  0.5321160000000 1.0
C      1  0.5940690000000  0.4326430000000  0.5256570000000 1.0
C      1  0.4934130000000  0.4034380000000  0.5253420000000 1.0
C      1  0.4142590000000  0.4285360000000  0.5273670000000 1.0
C      1  0.3906970000000  0.5263260000000  0.5304000000000 1.0
C      1  0.4791340000000  0.4913730000000  0.4863520000000 1.0
C      1  0.5003660000000  0.5246790000000  0.6058430000000 1.0
C      1  0.4867190000000  0.4786990000000  0.5995510000000 1.0
C      1  0.5073630000000  0.4974550000000  0.5993680000000 1.0
C      1  0.4818180000000  0.5087420000000  0.4629230000000 1.0
END
