TITL C-3578194-7807-409 -6.24088759575747e-07 125000 -876.869986157358 0 0 140 (C1) n - 1
REM
REM in /home/bkarasulu/work/CARBON/AIRSS/Generating-Clusters/EDIP-Nigel-Params/with-SteepDescent/Higher-Symm/SD-CG/HFTN-CG
REM
REM
REM
REM
REM
REM ./C.cell (12c818d87b63d06a65506943cc24bca4)
REM
REM compiler GCC version 9.2.1 20190827 (Red Hat 9.2.1-1)
REM options -cpp -mtune=generic -march=x86-64 -g -O0 -fpre-include=/usr/include/finclude/math-vector-fortran.h
REM seed 1021177826 -1529073132 1484211475 -2016804109 -528846510 521929331 1537968316 -1294757202 672941660 -71456219 325069747 -114566637 -692930062 -1901969654 524438309 -872421150 -1399069110 796957999 1429900854 1862543357 -271485160 -1554708304 1724487966 1370808987 -851244604 -1639711772 1031860921 -1824732323 985358403 -332135039 385781096 1876849949 -111452655
REM
CELL 1.54180   50.00000   50.00000   50.00000   90.00000   90.00000   90.00000
LATT -1
SFAC C  
C      1  0.5318210000000  0.5719590000000  0.4447790000000 1.0
C      1  0.4686900000000  0.4547650000000  0.4993300000000 1.0
C      1  0.4033120000000  0.5101450000000  0.5206550000000 1.0
C      1  0.5272340000000  0.5776110000000  0.5681620000000 1.0
C      1  0.4283780000000  0.5291320000000  0.4591540000000 1.0
C      1  0.5727160000000  0.5461480000000  0.4389590000000 1.0
C      1  0.4531130000000  0.4686350000000  0.5671080000000 1.0
C      1  0.4659750000000  0.4296580000000  0.4245400000000 1.0
C      1  0.4611330000000  0.5841480000000  0.4736000000000 1.0
C      1  0.5032790000000  0.4945810000000  0.3969900000000 1.0
C      1  0.5911600000000  0.4778000000000  0.4886880000000 1.0
C      1  0.4768050000000  0.5321010000000  0.5269500000000 1.0
C      1  0.5750770000000  0.4953650000000  0.4694960000000 1.0
C      1  0.5347410000000  0.4975410000000  0.6023060000000 1.0
C      1  0.4329130000000  0.5508000000000  0.5518910000000 1.0
C      1  0.5829470000000  0.4500160000000  0.4915970000000 1.0
C      1  0.5122460000000  0.5930680000000  0.4937160000000 1.0
C      1  0.5807520000000  0.5578530000000  0.5496260000000 1.0
C      1  0.4695710000000  0.4188460000000  0.5569900000000 1.0
C      1  0.5762170000000  0.5686290000000  0.5225570000000 1.0
C      1  0.4659010000000  0.4198330000000  0.4719330000000 1.0
C      1  0.5182060000000  0.5381570000000  0.4587070000000 1.0
C      1  0.5565410000000  0.4441630000000  0.4831860000000 1.0
C      1  0.4838330000000  0.5010810000000  0.4374390000000 1.0
C      1  0.5593130000000  0.5200380000000  0.5109860000000 1.0
C      1  0.4557540000000  0.4763630000000  0.4090620000000 1.0
C      1  0.4327250000000  0.4746920000000  0.5468210000000 1.0
C      1  0.5066010000000  0.5389000000000  0.5902470000000 1.0
C      1  0.5440690000000  0.5892930000000  0.5486360000000 1.0
C      1  0.5407130000000  0.5886160000000  0.4955200000000 1.0
C      1  0.4738090000000  0.5308130000000  0.4725310000000 1.0
C      1  0.4838870000000  0.4854770000000  0.5314810000000 1.0
C      1  0.5483070000000  0.4672200000000  0.5811210000000 1.0
C      1  0.4905380000000  0.5308450000000  0.4482890000000 1.0
C      1  0.4642850000000  0.4175380000000  0.5264580000000 1.0
C      1  0.5463080000000  0.5514710000000  0.4278720000000 1.0
C      1  0.4636660000000  0.4910500000000  0.5821930000000 1.0
C      1  0.5507370000000  0.5766180000000  0.4696950000000 1.0
C      1  0.5445370000000  0.4342580000000  0.4371590000000 1.0
C      1  0.5573490000000  0.4284380000000  0.5499380000000 1.0
C      1  0.4763950000000  0.4135630000000  0.4450070000000 1.0
C      1  0.4743630000000  0.4023680000000  0.4963370000000 1.0
C      1  0.5247690000000  0.4482520000000  0.5802050000000 1.0
C      1  0.5161380000000  0.5122950000000  0.5565630000000 1.0
C      1  0.4638810000000  0.5876390000000  0.5018400000000 1.0
C      1  0.5039290000000  0.4612350000000  0.4167450000000 1.0
C      1  0.5322240000000  0.5307940000000  0.5199890000000 1.0
C      1  0.5963090000000  0.4884950000000  0.5136990000000 1.0
C      1  0.5907090000000  0.4346330000000  0.5140530000000 1.0
C      1  0.4128340000000  0.4318170000000  0.4752020000000 1.0
C      1  0.5540850000000  0.4098410000000  0.4477380000000 1.0
C      1  0.5276710000000  0.4741000000000  0.5409880000000 1.0
C      1  0.5865800000000  0.5110760000000  0.5524290000000 1.0
C      1  0.5174130000000  0.4333370000000  0.4267600000000 1.0
C      1  0.4589740000000  0.5889200000000  0.5475480000000 1.0
C      1  0.5345680000000  0.5347480000000  0.4088810000000 1.0
C      1  0.4240390000000  0.5630070000000  0.5241660000000 1.0
C      1  0.4754510000000  0.4994400000000  0.4082970000000 1.0
C      1  0.4588670000000  0.4914690000000  0.4507750000000 1.0
C      1  0.5765220000000  0.5627320000000  0.4628450000000 1.0
C      1  0.4855210000000  0.4393030000000  0.5183270000000 1.0
C      1  0.5819870000000  0.5412680000000  0.5089960000000 1.0
C      1  0.4506220000000  0.5243500000000  0.5132860000000 1.0
C      1  0.4904360000000  0.5197830000000  0.4939640000000 1.0
C      1  0.4743710000000  0.4538360000000  0.4134300000000 1.0
C      1  0.5162700000000  0.3979030000000  0.4685140000000 1.0
C      1  0.4338710000000  0.4894040000000  0.4338400000000 1.0
C      1  0.4345650000000  0.5456920000000  0.4997930000000 1.0
C      1  0.4314000000000  0.4575100000000  0.5234510000000 1.0
C      1  0.4050560000000  0.5358480000000  0.5034540000000 1.0
C      1  0.5898670000000  0.5203340000000  0.4598640000000 1.0
C      1  0.5069960000000  0.4815260000000  0.4392670000000 1.0
C      1  0.5560570000000  0.5440060000000  0.5635750000000 1.0
C      1  0.5671570000000  0.4559390000000  0.5583390000000 1.0
C      1  0.5543230000000  0.5094050000000  0.4840710000000 1.0
C      1  0.5454890000000  0.4001490000000  0.4728130000000 1.0
C      1  0.5129470000000  0.4915120000000  0.5234930000000 1.0
C      1  0.4035030000000  0.5259390000000  0.4747370000000 1.0
C      1  0.5418210000000  0.4541180000000  0.4592960000000 1.0
C      1  0.4512730000000  0.5116830000000  0.4703530000000 1.0
C      1  0.4880760000000  0.5424580000000  0.4013180000000 1.0
C      1  0.4707970000000  0.4825090000000  0.5049660000000 1.0
C      1  0.4879570000000  0.5931230000000  0.5416820000000 1.0
C      1  0.5916490000000  0.5435650000000  0.4794380000000 1.0
C      1  0.5329970000000  0.4945100000000  0.4437270000000 1.0
C      1  0.4806320000000  0.4469560000000  0.4741900000000 1.0
C      1  0.5570980000000  0.4792130000000  0.4497380000000 1.0
C      1  0.5298970000000  0.4263620000000  0.5612450000000 1.0
C      1  0.5081750000000  0.5088750000000  0.5996660000000 1.0
C      1  0.5017250000000  0.5718930000000  0.5569930000000 1.0
C      1  0.4230030000000  0.4579370000000  0.4735520000000 1.0
C      1  0.5112910000000  0.5240410000000  0.3976020000000 1.0
C      1  0.4422820000000  0.5377580000000  0.4161850000000 1.0
C      1  0.4429970000000  0.5869940000000  0.5222500000000 1.0
C      1  0.4433230000000  0.5614220000000  0.4641930000000 1.0
C      1  0.5164010000000  0.4266480000000  0.5031900000000 1.0
C      1  0.4561980000000  0.5172180000000  0.5752760000000 1.0
C      1  0.4836060000000  0.5118660000000  0.5488280000000 1.0
C      1  0.4327780000000  0.5227780000000  0.5600100000000 1.0
C      1  0.5075890000000  0.4989570000000  0.4801470000000 1.0
C      1  0.4474140000000  0.4983860000000  0.4979150000000 1.0
C      1  0.5078620000000  0.5415300000000  0.5062980000000 1.0
C      1  0.4359480000000  0.4283450000000  0.5211450000000 1.0
C      1  0.5430410000000  0.4986150000000  0.5743800000000 1.0
C      1  0.4121950000000  0.4774600000000  0.4540640000000 1.0
C      1  0.4971250000000  0.4577060000000  0.5856330000000 1.0
C      1  0.4637300000000  0.5257610000000  0.3987310000000 1.0
C      1  0.5291870000000  0.5383140000000  0.5474740000000 1.0
C      1  0.4909500000000  0.4866610000000  0.5897310000000 1.0
C      1  0.4235360000000  0.4202950000000  0.4972730000000 1.0
C      1  0.4541060000000  0.5581450000000  0.4345430000000 1.0
C      1  0.5666120000000  0.4211160000000  0.5214230000000 1.0
C      1  0.4563760000000  0.5645400000000  0.5639320000000 1.0
C      1  0.4237910000000  0.4738870000000  0.4992030000000 1.0
C      1  0.4845570000000  0.5536240000000  0.5725660000000 1.0
C      1  0.5045410000000  0.4189410000000  0.4498070000000 1.0
C      1  0.5009000000000  0.5770030000000  0.4392780000000 1.0
C      1  0.4847640000000  0.5892660000000  0.4588740000000 1.0
C      1  0.5984620000000  0.5355950000000  0.5419430000000 1.0
C      1  0.4925060000000  0.4574180000000  0.5415430000000 1.0
C      1  0.5562990000000  0.4742970000000  0.5381260000000 1.0
C      1  0.5151370000000  0.4030320000000  0.5628310000000 1.0
C      1  0.5517520000000  0.5828280000000  0.5222060000000 1.0
C      1  0.4240770000000  0.5026180000000  0.5411930000000 1.0
C      1  0.4253380000000  0.5187610000000  0.4310050000000 1.0
C      1  0.4886250000000  0.4005980000000  0.5650580000000 1.0
C      1  0.4837740000000  0.5536150000000  0.4296590000000 1.0
C      1  0.3977740000000  0.4879430000000  0.5019440000000 1.0
C      1  0.5039830000000  0.3998150000000  0.4957610000000 1.0
C      1  0.5738150000000  0.4976100000000  0.5291650000000 1.0
C      1  0.4759420000000  0.4481890000000  0.5653450000000 1.0
C      1  0.5139000000000  0.5563920000000  0.4821140000000 1.0
C      1  0.5297990000000  0.5116420000000  0.4671190000000 1.0
C      1  0.4895560000000  0.5954220000000  0.5119230000000 1.0
C      1  0.5662680000000  0.5175040000000  0.5724800000000 1.0
C      1  0.3958220000000  0.4972310000000  0.4732600000000 1.0
C      1  0.5161800000000  0.4768570000000  0.4959630000000 1.0
C      1  0.5324710000000  0.5554390000000  0.5879200000000 1.0
C      1  0.5122960000000  0.4492130000000  0.4809910000000 1.0
C      1  0.5467070000000  0.4203710000000  0.4966840000000 1.0
END
