TITL C-3578195-8548-659 -1.38686101391911e-07 125000 -85.0946618813283 0 0 17 (C3) n - 1
REM
REM in /home/bkarasulu/work/CARBON/AIRSS/Generating-Clusters/EDIP-Nigel-Params/with-SteepDescent/Higher-Symm/SD-CG/HFTN-CG
REM
REM
REM
REM
REM
REM ./C.cell (12c818d87b63d06a65506943cc24bca4)
REM
REM compiler GCC version 9.2.1 20190827 (Red Hat 9.2.1-1)
REM options -cpp -mtune=generic -march=x86-64 -g -O0 -fpre-include=/usr/include/finclude/math-vector-fortran.h
REM seed 859275733 -464820825 1859721863 241814310 -1978015859 608994567 -1312419209 -1401493705 -497752501 1898127755 2098253284 -170918730 812474556 -124344360 -227189178 1089301057 1649861712 575421437 969992026 1282408042 85748168 -1543895147 438138653 -871843051 1712344667 1917559955 -1514768935 -1865615418 2054918647 1014721300 108296586 -1642946869 592675030
REM
CELL 1.54180   50.00000   50.00000   50.00000   90.00000   90.00000   90.00000
LATT -1
SFAC C  
C      1  0.4516280000000  0.4994150000000  0.4639040000000 1.0
C      1  0.5263850000000  0.4635590000000  0.4637900000000 1.0
C      1  0.5200580000000  0.5462290000000  0.4637560000000 1.0
C      1  0.5276860000000  0.5467130000000  0.5231980000000 1.0
C      1  0.4475830000000  0.5057360000000  0.5233640000000 1.0
C      1  0.5231210000000  0.4568530000000  0.5232560000000 1.0
C      1  0.5192450000000  0.5230920000000  0.4769790000000 1.0
C      1  0.4721130000000  0.5102690000000  0.4770700000000 1.0
C      1  0.5067840000000  0.4758630000000  0.4770280000000 1.0
C      1  0.5174210000000  0.5237130000000  0.5073170000000 1.0
C      1  0.4725830000000  0.5083570000000  0.5074060000000 1.0
C      1  0.5083000000000  0.4772040000000  0.5073590000000 1.0
C      1  0.5439210000000  0.5251630000000  0.5204470000000 1.0
C      1  0.4581180000000  0.5305720000000  0.5205970000000 1.0
C      1  0.4963350000000  0.4535600000000  0.5205710000000 1.0
C      1  0.4994570000000  0.5030980000000  0.5196730000000 1.0
C      1  0.4993620000000  0.5030690000000  0.4664010000000 1.0
END
