TITL C-3577086-586-400 -3.50249371845964e-07 125000 -1161.16712142537 0 0 180 (C2h) n - 1
REM
REM in /home/bkarasulu/work/CARBON/AIRSS/Generating-Clusters/EDIP-Nigel-Params/with-SteepDescent/Higher-Symm/SD-CG/HFTN-CG
REM
REM
REM
REM
REM
REM ./C.cell (12c818d87b63d06a65506943cc24bca4)
REM
REM compiler GCC version 9.2.1 20190827 (Red Hat 9.2.1-1)
REM options -cpp -mtune=generic -march=x86-64 -g -O0 -fpre-include=/usr/include/finclude/math-vector-fortran.h
REM seed 1893048432 1380565983 489320160 375856094 -1132558455 211845263 2052326030 -1407289615 1323515704 1328986038 -1416593980 1033059876 -387628665 -710431996 2138901501 -671362296 171819018 -1308269718 -269020350 16593482 1842681432 1015420376 1762686056 812042368 -310654700 -530982115 -2091014621 -1894762875 -2063050875 1615046302 -1035327054 843894634 -1490309797
REM
CELL 1.54180   50.00000   50.00000   50.00000   90.00000   90.00000   90.00000
LATT -1
SFAC C  
C      1  0.4843110000000  0.5676900000000  0.5312500000000 1.0
C      1  0.4843640000000  0.5077380000000  0.5746460000000 1.0
C      1  0.4844930000000  0.4392550000000  0.5431820000000 1.0
C      1  0.4843100000000  0.4323110000000  0.4687490000000 1.0
C      1  0.4843650000000  0.4922630000000  0.4253540000000 1.0
C      1  0.4844950000000  0.5607460000000  0.4568180000000 1.0
C      1  0.5156900000000  0.5676890000000  0.5312510000000 1.0
C      1  0.5156350000000  0.5077370000000  0.5746460000000 1.0
C      1  0.5155050000000  0.4392540000000  0.5431820000000 1.0
C      1  0.5156890000000  0.4323100000000  0.4687500000000 1.0
C      1  0.5156360000000  0.4922620000000  0.4253540000000 1.0
C      1  0.5155070000000  0.5607450000000  0.4568180000000 1.0
C      1  0.4334110000000  0.4361630000000  0.5432970000000 1.0
C      1  0.4329230000000  0.4294870000000  0.4655610000000 1.0
C      1  0.4332580000000  0.4937730000000  0.4217690000000 1.0
C      1  0.4334130000000  0.5638380000000  0.4567020000000 1.0
C      1  0.4329250000000  0.5705150000000  0.5344380000000 1.0
C      1  0.4332580000000  0.5062280000000  0.5782300000000 1.0
C      1  0.5665870000000  0.4361620000000  0.5432980000000 1.0
C      1  0.5670750000000  0.4294850000000  0.4655620000000 1.0
C      1  0.5667420000000  0.4937720000000  0.4217700000000 1.0
C      1  0.5665890000000  0.5638370000000  0.4567030000000 1.0
C      1  0.5670770000000  0.5705130000000  0.5344390000000 1.0
C      1  0.5667420000000  0.5062270000000  0.5782310000000 1.0
C      1  0.5251210000000  0.4966860000000  0.3966280000000 1.0
C      1  0.5252680000000  0.5876480000000  0.4461250000000 1.0
C      1  0.5252760000000  0.5904820000000  0.5494440000000 1.0
C      1  0.5251210000000  0.5033140000000  0.6033720000000 1.0
C      1  0.5252660000000  0.4123510000000  0.5538760000000 1.0
C      1  0.5252750000000  0.4095170000000  0.4505560000000 1.0
C      1  0.4748790000000  0.4966860000000  0.3966280000000 1.0
C      1  0.4747340000000  0.5876490000000  0.4461240000000 1.0
C      1  0.4747250000000  0.5904830000000  0.5494440000000 1.0
C      1  0.4748790000000  0.5033140000000  0.6033720000000 1.0
C      1  0.4747320000000  0.4123520000000  0.5538750000000 1.0
C      1  0.4747240000000  0.4095180000000  0.4505560000000 1.0
C      1  0.5221790000000  0.4457730000000  0.5151200000000 1.0
C      1  0.5233940000000  0.4597770000000  0.4608560000000 1.0
C      1  0.5221760000000  0.5132980000000  0.4453010000000 1.0
C      1  0.5221800000000  0.5542270000000  0.4848810000000 1.0
C      1  0.5233950000000  0.5402230000000  0.5391440000000 1.0
C      1  0.5221750000000  0.4867010000000  0.5546990000000 1.0
C      1  0.4778200000000  0.4457730000000  0.5151190000000 1.0
C      1  0.4766050000000  0.4597770000000  0.4608560000000 1.0
C      1  0.4778250000000  0.5132990000000  0.4453010000000 1.0
C      1  0.4778210000000  0.5542270000000  0.4848800000000 1.0
C      1  0.4766060000000  0.5402230000000  0.5391440000000 1.0
C      1  0.4778240000000  0.4867020000000  0.5546990000000 1.0
C      1  0.4284530000000  0.5584820000000  0.4854790000000 1.0
C      1  0.4283310000000  0.5424000000000  0.5433680000000 1.0
C      1  0.4286300000000  0.4848450000000  0.5582930000000 1.0
C      1  0.4284510000000  0.4415190000000  0.5145200000000 1.0
C      1  0.4283300000000  0.4576010000000  0.4566310000000 1.0
C      1  0.4286310000000  0.5151560000000  0.4417070000000 1.0
C      1  0.5715490000000  0.5584810000000  0.4854800000000 1.0
C      1  0.5716700000000  0.5423990000000  0.5433690000000 1.0
C      1  0.5713690000000  0.4848440000000  0.5582930000000 1.0
C      1  0.5715470000000  0.4415180000000  0.5145210000000 1.0
C      1  0.5716690000000  0.4576000000000  0.4566320000000 1.0
C      1  0.5713700000000  0.5151550000000  0.4417070000000 1.0
C      1  0.3790100000000  0.4826100000000  0.4823830000000 1.0
C      1  0.3902700000000  0.5064120000000  0.4726540000000 1.0
C      1  0.3901360000000  0.5274010000000  0.4938710000000 1.0
C      1  0.3790100000000  0.5173930000000  0.5176150000000 1.0
C      1  0.3902690000000  0.4935900000000  0.5273450000000 1.0
C      1  0.3901360000000  0.4726010000000  0.5061290000000 1.0
C      1  0.6209900000000  0.4826070000000  0.4823850000000 1.0
C      1  0.6097310000000  0.5064100000000  0.4726550000000 1.0
C      1  0.6098640000000  0.5273990000000  0.4938710000000 1.0
C      1  0.6209900000000  0.5173900000000  0.5176170000000 1.0
C      1  0.6097300000000  0.4935880000000  0.5273460000000 1.0
C      1  0.6098640000000  0.4725990000000  0.5061290000000 1.0
C      1  0.5152600000000  0.5511050000000  0.5902270000000 1.0
C      1  0.5152520000000  0.4474330000000  0.5886240000000 1.0
C      1  0.5152540000000  0.3967100000000  0.4982110000000 1.0
C      1  0.5152600000000  0.4488940000000  0.4097730000000 1.0
C      1  0.5152540000000  0.5525670000000  0.4113760000000 1.0
C      1  0.5152560000000  0.6032890000000  0.5017890000000 1.0
C      1  0.4847400000000  0.5511060000000  0.5902270000000 1.0
C      1  0.4847460000000  0.4474330000000  0.5886240000000 1.0
C      1  0.4847440000000  0.3967110000000  0.4982110000000 1.0
C      1  0.4847400000000  0.4488950000000  0.4097730000000 1.0
C      1  0.4847480000000  0.5525670000000  0.4113760000000 1.0
C      1  0.4847460000000  0.6032900000000  0.5017890000000 1.0
C      1  0.5612920000000  0.4699920000000  0.6075080000000 1.0
C      1  0.5617680000000  0.3920720000000  0.5277480000000 1.0
C      1  0.5618480000000  0.4213320000000  0.4194640000000 1.0
C      1  0.5612940000000  0.5300070000000  0.3924920000000 1.0
C      1  0.5617700000000  0.6079270000000  0.4722520000000 1.0
C      1  0.5618490000000  0.5786670000000  0.5805360000000 1.0
C      1  0.4387060000000  0.4699930000000  0.6075080000000 1.0
C      1  0.4382300000000  0.3920730000000  0.5277480000000 1.0
C      1  0.4381510000000  0.4213330000000  0.4194640000000 1.0
C      1  0.4387080000000  0.5300080000000  0.3924920000000 1.0
C      1  0.4382320000000  0.6079280000000  0.4722520000000 1.0
C      1  0.4381520000000  0.5786680000000  0.5805360000000 1.0
C      1  0.5595370000000  0.5346330000000  0.5703550000000 1.0
C      1  0.5592110000000  0.4572250000000  0.5639890000000 1.0
C      1  0.5592790000000  0.4224490000000  0.4942150000000 1.0
C      1  0.5595360000000  0.4653660000000  0.4296450000000 1.0
C      1  0.5592120000000  0.5427740000000  0.4360120000000 1.0
C      1  0.5592800000000  0.5775500000000  0.5057860000000 1.0
C      1  0.4404640000000  0.5346340000000  0.5703550000000 1.0
C      1  0.4407880000000  0.4572260000000  0.5639880000000 1.0
C      1  0.4407200000000  0.4224500000000  0.4942140000000 1.0
C      1  0.4404630000000  0.4653670000000  0.4296450000000 1.0
C      1  0.4407890000000  0.5427750000000  0.4360110000000 1.0
C      1  0.4407210000000  0.5775510000000  0.5057850000000 1.0
C      1  0.5278840000000  0.5064450000000  0.4728540000000 1.0
C      1  0.5293430000000  0.5273020000000  0.4920360000000 1.0
C      1  0.5363360000000  0.5209070000000  0.5198930000000 1.0
C      1  0.5278840000000  0.4935540000000  0.5271470000000 1.0
C      1  0.5293430000000  0.4726970000000  0.5079640000000 1.0
C      1  0.5363350000000  0.4790920000000  0.4801070000000 1.0
C      1  0.4721160000000  0.5064460000000  0.4728530000000 1.0
C      1  0.4706570000000  0.5273030000000  0.4920360000000 1.0
C      1  0.4636650000000  0.5209080000000  0.5198930000000 1.0
C      1  0.4721160000000  0.4935550000000  0.5271460000000 1.0
C      1  0.4706570000000  0.4726980000000  0.5079640000000 1.0
C      1  0.4636640000000  0.4790930000000  0.4801070000000 1.0
C      1  0.4456300000000  0.4969050000000  0.6034510000000 1.0
C      1  0.4454050000000  0.4095520000000  0.5485040000000 1.0
C      1  0.4453460000000  0.4120810000000  0.4449580000000 1.0
C      1  0.4456310000000  0.5030960000000  0.3965480000000 1.0
C      1  0.4454070000000  0.5904490000000  0.4514960000000 1.0
C      1  0.4453470000000  0.5879200000000  0.5550410000000 1.0
C      1  0.5543690000000  0.4969040000000  0.6034520000000 1.0
C      1  0.5545930000000  0.4095510000000  0.5485040000000 1.0
C      1  0.5546530000000  0.4120800000000  0.4449590000000 1.0
C      1  0.5543700000000  0.5030950000000  0.3965490000000 1.0
C      1  0.5545950000000  0.5904480000000  0.4514960000000 1.0
C      1  0.5546540000000  0.5879190000000  0.5550420000000 1.0
C      1  0.4721420000000  0.4589900000000  0.5631970000000 1.0
C      1  0.4719700000000  0.4244180000000  0.4956200000000 1.0
C      1  0.4716750000000  0.4651850000000  0.4322920000000 1.0
C      1  0.4721440000000  0.5410100000000  0.4368030000000 1.0
C      1  0.4719720000000  0.5755820000000  0.5043800000000 1.0
C      1  0.4716750000000  0.5348160000000  0.5677080000000 1.0
C      1  0.5278560000000  0.4589900000000  0.5631970000000 1.0
C      1  0.5280280000000  0.4244180000000  0.4956200000000 1.0
C      1  0.5283250000000  0.4651840000000  0.4322920000000 1.0
C      1  0.5278580000000  0.5410100000000  0.4368030000000 1.0
C      1  0.5280300000000  0.5755820000000  0.5043800000000 1.0
C      1  0.5283250000000  0.5348150000000  0.5677080000000 1.0
C      1  0.5795550000000  0.4690130000000  0.5056250000000 1.0
C      1  0.5672610000000  0.4779770000000  0.4779490000000 1.0
C      1  0.5792780000000  0.5061110000000  0.4693130000000 1.0
C      1  0.5795560000000  0.5309850000000  0.4943750000000 1.0
C      1  0.5672620000000  0.5220220000000  0.5220510000000 1.0
C      1  0.5792780000000  0.4938870000000  0.5306880000000 1.0
C      1  0.4204440000000  0.4690150000000  0.5056250000000 1.0
C      1  0.4327380000000  0.4779780000000  0.4779490000000 1.0
C      1  0.4207220000000  0.5061130000000  0.4693120000000 1.0
C      1  0.4204450000000  0.5309870000000  0.4943750000000 1.0
C      1  0.4327390000000  0.5220230000000  0.5220510000000 1.0
C      1  0.4207220000000  0.4938890000000  0.5306870000000 1.0
C      1  0.4329250000000  0.3954040000000  0.5014050000000 1.0
C      1  0.4324420000000  0.4458850000000  0.4096510000000 1.0
C      1  0.4329540000000  0.5505780000000  0.4091510000000 1.0
C      1  0.4329270000000  0.6045970000000  0.4985950000000 1.0
C      1  0.4324430000000  0.5541160000000  0.5903480000000 1.0
C      1  0.4329520000000  0.4494230000000  0.5908490000000 1.0
C      1  0.5670730000000  0.3954030000000  0.5014050000000 1.0
C      1  0.5675570000000  0.4458840000000  0.4096520000000 1.0
C      1  0.5670480000000  0.5505770000000  0.4091510000000 1.0
C      1  0.5670750000000  0.6045960000000  0.4985950000000 1.0
C      1  0.5675580000000  0.5541150000000  0.5903490000000 1.0
C      1  0.5670460000000  0.4494220000000  0.5908490000000 1.0
C      1  0.4845490000000  0.4696830000000  0.3858300000000 1.0
C      1  0.4845210000000  0.5836650000000  0.4173950000000 1.0
C      1  0.4845370000000  0.6134350000000  0.5318020000000 1.0
C      1  0.4845480000000  0.5303170000000  0.6141700000000 1.0
C      1  0.4845190000000  0.4163350000000  0.5826050000000 1.0
C      1  0.4845360000000  0.3865650000000  0.4681980000000 1.0
C      1  0.5154520000000  0.4696830000000  0.3858300000000 1.0
C      1  0.5154810000000  0.5836650000000  0.4173950000000 1.0
C      1  0.5154640000000  0.6134350000000  0.5318020000000 1.0
C      1  0.5154510000000  0.5303170000000  0.6141700000000 1.0
C      1  0.5154790000000  0.4163350000000  0.5826050000000 1.0
C      1  0.5154630000000  0.3865650000000  0.4681980000000 1.0
END
