TITL C-3577088-510-295 -3.15549234373872e-06 125000 -980.388272286649 0 0 157 (C3) n - 1
REM
REM in /home/bkarasulu/work/CARBON/AIRSS/Generating-Clusters/EDIP-Nigel-Params/with-SteepDescent/Higher-Symm/SD-CG/HFTN-CG
REM
REM
REM
REM
REM
REM ./C.cell (12c818d87b63d06a65506943cc24bca4)
REM
REM compiler GCC version 9.2.1 20190827 (Red Hat 9.2.1-1)
REM options -cpp -mtune=generic -march=x86-64 -g -O0 -fpre-include=/usr/include/finclude/math-vector-fortran.h
REM seed 695858125 -599401560 2095445784 542906637 227288471 -827541158 741230445 1353043366 1231809720 -998282750 -1475284235 -1307993782 673650268 565916438 -176736554 -803098864 -841733102 -979945446 419811416 746471049 -804888560 320777625 727462272 28475720 892672140 663837695 2032715018 1865215303 -1817470881 920030459 -2025743091 -1035641759 477358520
REM
CELL 1.54180   50.00000   50.00000   50.00000   90.00000   90.00000   90.00000
LATT -1
SFAC C  
C      1  0.4345650000000  0.5047490000000  0.5180910000000 1.0
C      1  0.5172240000000  0.5047380000000  0.4348640000000 1.0
C      1  0.5479710000000  0.5047420000000  0.5480630000000 1.0
C      1  0.5487380000000  0.4928690000000  0.4738790000000 1.0
C      1  0.4984260000000  0.4928770000000  0.5558500000000 1.0
C      1  0.4525930000000  0.4928760000000  0.4712920000000 1.0
C      1  0.4594550000000  0.5903440000000  0.5453720000000 1.0
C      1  0.4811590000000  0.5903360000000  0.4427660000000 1.0
C      1  0.5591660000000  0.5903340000000  0.5128660000000 1.0
C      1  0.5608120000000  0.4538300000000  0.4421720000000 1.0
C      1  0.5198450000000  0.4538410000000  0.5821650000000 1.0
C      1  0.4190910000000  0.4538440000000  0.4766900000000 1.0
C      1  0.5584510000000  0.4210400000000  0.4813310000000 1.0
C      1  0.4871100000000  0.4210500000000  0.5605460000000 1.0
C      1  0.4541780000000  0.4210470000000  0.4591560000000 1.0
C      1  0.5235280000000  0.5449440000000  0.4820130000000 1.0
C      1  0.5039900000000  0.5449480000000  0.5299420000000 1.0
C      1  0.4722510000000  0.5449490000000  0.4890570000000 1.0
C      1  0.5707230000000  0.5236080000000  0.5530500000000 1.0
C      1  0.4188700000000  0.5236190000000  0.5352990000000 1.0
C      1  0.5101700000000  0.5236050000000  0.4126660000000 1.0
C      1  0.5146900000000  0.5926110000000  0.4913710000000 1.0
C      1  0.5003080000000  0.5926130000000  0.5176010000000 1.0
C      1  0.4847830000000  0.5926130000000  0.4920310000000 1.0
C      1  0.4799040000000  0.5431630000000  0.5766730000000 1.0
C      1  0.4438240000000  0.5431590000000  0.4448330000000 1.0
C      1  0.5760400000000  0.5431500000000  0.4795060000000 1.0
C      1  0.5883740000000  0.4618690000000  0.4848580000000 1.0
C      1  0.4690970000000  0.4618840000000  0.5846900000000 1.0
C      1  0.4422780000000  0.4618770000000  0.4314770000000 1.0
C      1  0.4568290000000  0.4836630000000  0.4155010000000 1.0
C      1  0.5949360000000  0.4836580000000  0.5054440000000 1.0
C      1  0.4479890000000  0.4836730000000  0.5800770000000 1.0
C      1  0.4791990000000  0.5154700000000  0.4981040000000 1.0
C      1  0.5122170000000  0.5154670000000  0.4835110000000 1.0
C      1  0.5083460000000  0.5154690000000  0.5194010000000 1.0
C      1  0.5472850000000  0.4641300000000  0.5833390000000 1.0
C      1  0.4043540000000  0.4641370000000  0.4998660000000 1.0
C      1  0.5481100000000  0.4641210000000  0.4178210000000 1.0
C      1  0.6025110000000  0.5269570000000  0.5225500000000 1.0
C      1  0.4293910000000  0.5269740000000  0.5780780000000 1.0
C      1  0.4678620000000  0.5269610000000  0.4003880000000 1.0
C      1  0.4348750000000  0.5139360000000  0.4845680000000 1.0
C      1  0.5461010000000  0.5139250000000  0.4518930000000 1.0
C      1  0.5187850000000  0.5139340000000  0.5645560000000 1.0
C      1  0.5837480000000  0.5739340000000  0.5103690000000 1.0
C      1  0.4493250000000  0.5739480000000  0.5679120000000 1.0
C      1  0.4667030000000  0.5739380000000  0.4227270000000 1.0
C      1  0.5126930000000  0.5894630000000  0.5614570000000 1.0
C      1  0.4406100000000  0.5894640000000  0.4808290000000 1.0
C      1  0.5464770000000  0.5894550000000  0.4587180000000 1.0
C      1  0.5496160000000  0.4293070000000  0.4541790000000 1.0
C      1  0.5150420000000  0.4293160000000  0.5664700000000 1.0
C      1  0.4350830000000  0.4293170000000  0.4803820000000 1.0
C      1  0.5311700000000  0.4014950000000  0.5260640000000 1.0
C      1  0.4620090000000  0.4015000000000  0.5145570000000 1.0
C      1  0.5065550000000  0.4014930000000  0.4604150000000 1.0
C      1  0.5349640000000  0.5618010000000  0.4218220000000 1.0
C      1  0.5504000000000  0.5618080000000  0.5699380000000 1.0
C      1  0.4144090000000  0.5618160000000  0.5092480000000 1.0
C      1  0.4474010000000  0.5803560000000  0.5178360000000 1.0
C      1  0.5110320000000  0.5803460000000  0.4460970000000 1.0
C      1  0.5413450000000  0.5803490000000  0.5370720000000 1.0
C      1  0.5018760000000  0.4954380000000  0.6059550000000 1.0
C      1  0.4074750000000  0.4954370000000  0.4492270000000 1.0
C      1  0.5904060000000  0.4954220000000  0.4458380000000 1.0
C      1  0.4711880000000  0.3892830000000  0.4913490000000 1.0
C      1  0.5220640000000  0.3892780000000  0.4799700000000 1.0
C      1  0.5064810000000  0.3892820000000  0.5297190000000 1.0
C      1  0.5222730000000  0.5648660000000  0.5728960000000 1.0
C      1  0.4259110000000  0.5648690000000  0.4834100000000 1.0
C      1  0.5515900000000  0.5648570000000  0.4447020000000 1.0
C      1  0.5970090000000  0.5088660000000  0.5462610000000 1.0
C      1  0.4116070000000  0.5088820000000  0.5614600000000 1.0
C      1  0.4911450000000  0.5088660000000  0.3932970000000 1.0
C      1  0.4637950000000  0.4654290000000  0.5329140000000 1.0
C      1  0.4897690000000  0.4654220000000  0.4527740000000 1.0
C      1  0.5461860000000  0.4654210000000  0.5153380000000 1.0
C      1  0.4869780000000  0.4361350000000  0.4849630000000 1.0
C      1  0.5197020000000  0.4361330000000  0.4968300000000 1.0
C      1  0.4930630000000  0.4361370000000  0.5192370000000 1.0
C      1  0.4054210000000  0.4491980000000  0.5238940000000 1.0
C      1  0.5267660000000  0.4491810000000  0.4067320000000 1.0
C      1  0.5675590000000  0.4491870000000  0.5704020000000 1.0
C      1  0.5348620000000  0.4090400000000  0.4966720000000 1.0
C      1  0.4856180000000  0.4090460000000  0.5324490000000 1.0
C      1  0.4792570000000  0.4090430000000  0.4719140000000 1.0
C      1  0.5937620000000  0.5208820000000  0.4737920000000 1.0
C      1  0.4759910000000  0.5208990000000  0.5948810000000 1.0
C      1  0.4300100000000  0.5208930000000  0.4323440000000 1.0
C      1  0.3907530000000  0.4885610000000  0.5011460000000 1.0
C      1  0.5538030000000  0.4885420000000  0.4053980000000 1.0
C      1  0.5551990000000  0.4885530000000  0.5944770000000 1.0
C      1  0.5009510000000  0.4634550000000  0.5441470000000 1.0
C      1  0.4614630000000  0.4634550000000  0.4793350000000 1.0
C      1  0.5373360000000  0.4634490000000  0.4775440000000 1.0
C      1  0.5102540000000  0.4318460000000  0.4224150000000 1.0
C      1  0.5622320000000  0.4318490000000  0.5482630000000 1.0
C      1  0.4272560000000  0.4318580000000  0.5303530000000 1.0
C      1  0.5201220000000  0.5160010000000  0.5941420000000 1.0
C      1  0.4085840000000  0.5160020000000  0.4709320000000 1.0
C      1  0.5710560000000  0.5159880000000  0.4359430000000 1.0
C      1  0.5513340000000  0.5388250000000  0.5158760000000 1.0
C      1  0.4607600000000  0.5388340000000  0.5370920000000 1.0
C      1  0.4876740000000  0.5388270000000  0.4480450000000 1.0
C      1  0.4319920000000  0.4756290000000  0.5323270000000 1.0
C      1  0.5061800000000  0.4756170000000  0.4255230000000 1.0
C      1  0.5615800000000  0.4756190000000  0.5431730000000 1.0
C      1  0.5358910000000  0.5369030000000  0.4055340000000 1.0
C      1  0.5640400000000  0.5369100000000  0.5788890000000 1.0
C      1  0.3998360000000  0.5369200000000  0.5165900000000 1.0
C      1  0.4492210000000  0.5100760000000  0.5932980000000 1.0
C      1  0.4447650000000  0.5100660000000  0.4099530000000 1.0
C      1  0.6057740000000  0.5100580000000  0.4977670000000 1.0
C      1  0.5891940000000  0.5681290000000  0.4832910000000 1.0
C      1  0.4700520000000  0.5681440000000  0.5861680000000 1.0
C      1  0.4405290000000  0.5681380000000  0.4315490000000 1.0
C      1  0.4822420000000  0.5476430000000  0.4199230000000 1.0
C      1  0.5784040000000  0.5476420000000  0.5252320000000 1.0
C      1  0.4391230000000  0.5476540000000  0.5558560000000 1.0
C      1  0.5596030000000  0.5159940000000  0.4085600000000 1.0
C      1  0.5495620000000  0.5160060000000  0.5979140000000 1.0
C      1  0.3905970000000  0.5160130000000  0.4945420000000 1.0
C      1  0.5218900000000  0.4219510000000  0.4466090000000 1.0
C      1  0.5354610000000  0.4219560000000  0.5462450000000 1.0
C      1  0.4423880000000  0.4219610000000  0.5081790000000 1.0
C      1  0.5411130000000  0.5123590000000  0.5200720000000 1.0
C      1  0.4622350000000  0.5123650000000  0.5261460000000 1.0
C      1  0.4964130000000  0.5123590000000  0.4547990000000 1.0
C      1  0.4697080000000  0.4924550000000  0.5486660000000 1.0
C      1  0.4731730000000  0.4924490000000  0.4500130000000 1.0
C      1  0.5568760000000  0.4924460000000  0.5023410000000 1.0
C      1  0.4588590000000  0.4385970000000  0.4365960000000 1.0
C      1  0.5756500000000  0.4385910000000  0.4966610000000 1.0
C      1  0.4652360000000  0.4386040000000  0.5677730000000 1.0
C      1  0.4896440000000  0.5894140000000  0.5436330000000 1.0
C      1  0.4675700000000  0.5894120000000  0.4697800000000 1.0
C      1  0.5425660000000  0.5894070000000  0.4875910000000 1.0
C      1  0.4243680000000  0.4820670000000  0.5610930000000 1.0
C      1  0.4850800000000  0.4820530000000  0.4045370000000 1.0
C      1  0.5903060000000  0.4820520000000  0.5353930000000 1.0
C      1  0.5179410000000  0.4723590000000  0.5218220000000 1.0
C      1  0.4723020000000  0.4723620000000  0.5052100000000 1.0
C      1  0.5095080000000  0.4723570000000  0.4739920000000 1.0
C      1  0.4409380000000  0.4349960000000  0.5545340000000 1.0
C      1  0.4824720000000  0.4349850000000  0.4221730000000 1.0
C      1  0.5763330000000  0.4349830000000  0.5243230000000 1.0
C      1  0.5493860000000  0.5425110000000  0.4645400000000 1.0
C      1  0.5061930000000  0.5425200000000  0.5610720000000 1.0
C      1  0.4441900000000  0.5425200000000  0.4754000000000 1.0
C      1  0.4715440000000  0.5585870000000  0.5172990000000 1.0
C      1  0.4994240000000  0.5585820000000  0.4672780000000 1.0
C      1  0.5288040000000  0.5585830000000  0.5164330000000 1.0
C      1  0.4968840000000  0.4690880000000  0.5931530000000 1.0
C      1  0.4210560000000  0.4690860000000  0.4513090000000 1.0
C      1  0.5818110000000  0.4690740000000  0.4565620000000 1.0
C      1  0.4999180000000  0.4764110000000  0.5003410000000 1.0
END
