TITL C-3577091-527-165 -7.04359905590994e-07 125000 -154.447117734413 0 0 26 (C1) n - 1
REM
REM in /home/bkarasulu/work/CARBON/AIRSS/Generating-Clusters/EDIP-Nigel-Params/with-SteepDescent/Higher-Symm/SD-CG/HFTN-CG
REM
REM
REM
REM
REM
REM ./C.cell (12c818d87b63d06a65506943cc24bca4)
REM
REM compiler GCC version 9.2.1 20190827 (Red Hat 9.2.1-1)
REM options -cpp -mtune=generic -march=x86-64 -g -O0 -fpre-include=/usr/include/finclude/math-vector-fortran.h
REM seed 6065459 -1435553434 -1546799942 451319404 1539093335 1244394658 1330840189 2017213443 1075938109 591745981 940488503 1551563977 589381538 -1426450282 -1739337918 67450443 1378168080 -83690875 1696236018 560588367 -1106312725 -770313183 -704220002 49983526 -1194584672 -923636353 2067587565 -1658477652 -1851229782 -1173924641 1302372003 -104949461 831832469
REM
CELL 1.54180   50.00000   50.00000   50.00000   90.00000   90.00000   90.00000
LATT -1
SFAC C  
C      1  0.4934830000000  0.4870770000000  0.4619290000000 1.0
C      1  0.4796780000000  0.5582710000000  0.4812200000000 1.0
C      1  0.4799260000000  0.4975610000000  0.5699280000000 1.0
C      1  0.4505970000000  0.5202280000000  0.4861370000000 1.0
C      1  0.4512330000000  0.5041260000000  0.5300730000000 1.0
C      1  0.4589110000000  0.4753390000000  0.4941990000000 1.0
C      1  0.4737460000000  0.5098160000000  0.5451620000000 1.0
C      1  0.4811060000000  0.4672680000000  0.4794240000000 1.0
C      1  0.4736310000000  0.5317420000000  0.4757790000000 1.0
C      1  0.5227570000000  0.5259980000000  0.4699710000000 1.0
C      1  0.5247530000000  0.5063490000000  0.5440230000000 1.0
C      1  0.5266930000000  0.4478010000000  0.4805090000000 1.0
C      1  0.5434210000000  0.5099400000000  0.4797120000000 1.0
C      1  0.5450810000000  0.5012160000000  0.5260540000000 1.0
C      1  0.5417290000000  0.4652210000000  0.4962680000000 1.0
C      1  0.4963800000000  0.5142620000000  0.4721910000000 1.0
C      1  0.4984640000000  0.4999200000000  0.5355890000000 1.0
C      1  0.4991020000000  0.4467470000000  0.4865800000000 1.0
C      1  0.5035830000000  0.5709260000000  0.4810120000000 1.0
C      1  0.5041530000000  0.5008140000000  0.5827940000000 1.0
C      1  0.5159430000000  0.4764130000000  0.4486450000000 1.0
C      1  0.5285910000000  0.5053150000000  0.5717110000000 1.0
C      1  0.5306520000000  0.4538050000000  0.4531500000000 1.0
C      1  0.5233070000000  0.5532140000000  0.4756150000000 1.0
C      1  0.4468070000000  0.4985940000000  0.5032310000000 1.0
C      1  0.5486980000000  0.4918220000000  0.5003050000000 1.0
END
