TITL C-3578201-9217-816 -1.30686295144167e-06 125000 -494.527916312921 0 0 81 (C1) n - 1
REM
REM in /home/bkarasulu/work/CARBON/AIRSS/Generating-Clusters/EDIP-Nigel-Params/with-SteepDescent/Higher-Symm/SD-CG/HFTN-CG
REM
REM
REM
REM
REM
REM ./C.cell (12c818d87b63d06a65506943cc24bca4)
REM
REM compiler GCC version 9.2.1 20190827 (Red Hat 9.2.1-1)
REM options -cpp -mtune=generic -march=x86-64 -g -O0 -fpre-include=/usr/include/finclude/math-vector-fortran.h
REM seed 1636054929 -1836591077 698332273 -1331740753 743482790 -2002221925 -1320592974 1277848857 -355385694 1527432594 1624432669 1745790636 -242741673 -343373758 1138853590 809020990 -735989713 70591509 -2039298781 428494215 -1585893343 -1320775243 -1424001225 682798522 66596012 107757722 290126124 299007213 -2142437275 83248784 372626469 55900729 133859914
REM
CELL 1.54180   50.00000   50.00000   50.00000   90.00000   90.00000   90.00000
LATT -1
SFAC C  
C      1  0.4253310000000  0.5329790000000  0.4333190000000 1.0
C      1  0.4265870000000  0.4744170000000  0.4357030000000 1.0
C      1  0.4803490000000  0.5552070000000  0.4437820000000 1.0
C      1  0.4728160000000  0.4470960000000  0.4589000000000 1.0
C      1  0.5123390000000  0.4159940000000  0.4785610000000 1.0
C      1  0.5109400000000  0.5781770000000  0.4770530000000 1.0
C      1  0.4471230000000  0.4900080000000  0.4466340000000 1.0
C      1  0.4477940000000  0.5191980000000  0.4432050000000 1.0
C      1  0.4491560000000  0.4832400000000  0.5379600000000 1.0
C      1  0.4508960000000  0.5263750000000  0.5262420000000 1.0
C      1  0.4268930000000  0.5145250000000  0.5143030000000 1.0
C      1  0.4339470000000  0.4869670000000  0.5149750000000 1.0
C      1  0.5762540000000  0.5243420000000  0.5477720000000 1.0
C      1  0.5745330000000  0.4726430000000  0.5460740000000 1.0
C      1  0.5313580000000  0.5197140000000  0.5689240000000 1.0
C      1  0.5336740000000  0.4820260000000  0.5703540000000 1.0
C      1  0.4352900000000  0.4492040000000  0.4823820000000 1.0
C      1  0.4269690000000  0.5498590000000  0.4783930000000 1.0
C      1  0.5032130000000  0.4893180000000  0.5268310000000 1.0
C      1  0.5046000000000  0.5183070000000  0.5248000000000 1.0
C      1  0.5643980000000  0.5530450000000  0.4823650000000 1.0
C      1  0.5604330000000  0.4474580000000  0.4805660000000 1.0
C      1  0.5224320000000  0.4240750000000  0.5280220000000 1.0
C      1  0.5160410000000  0.5665320000000  0.5265430000000 1.0
C      1  0.5090040000000  0.4481120000000  0.5417650000000 1.0
C      1  0.4981590000000  0.5557650000000  0.5475180000000 1.0
C      1  0.5465000000000  0.5686990000000  0.4657220000000 1.0
C      1  0.5439340000000  0.4316060000000  0.4628670000000 1.0
C      1  0.4192070000000  0.5233520000000  0.4882490000000 1.0
C      1  0.4187900000000  0.4660270000000  0.5015730000000 1.0
C      1  0.5355650000000  0.5260590000000  0.4433360000000 1.0
C      1  0.5255130000000  0.4740770000000  0.4441310000000 1.0
C      1  0.5107600000000  0.4643840000000  0.5688360000000 1.0
C      1  0.5046950000000  0.5322130000000  0.5667270000000 1.0
C      1  0.5824050000000  0.5328910000000  0.5216750000000 1.0
C      1  0.5791680000000  0.4648230000000  0.5198170000000 1.0
C      1  0.5754480000000  0.5272760000000  0.4755610000000 1.0
C      1  0.5713030000000  0.4731610000000  0.4744820000000 1.0
C      1  0.5220570000000  0.5186880000000  0.4692740000000 1.0
C      1  0.5168920000000  0.4873340000000  0.4702250000000 1.0
C      1  0.5199300000000  0.4861240000000  0.4194580000000 1.0
C      1  0.5264550000000  0.5120760000000  0.4211350000000 1.0
C      1  0.5393260000000  0.4840690000000  0.4927750000000 1.0
C      1  0.5430030000000  0.5158840000000  0.4924650000000 1.0
C      1  0.5003110000000  0.5755490000000  0.5034980000000 1.0
C      1  0.5036350000000  0.4157970000000  0.5059900000000 1.0
C      1  0.4864020000000  0.4891440000000  0.4780950000000 1.0
C      1  0.4841830000000  0.5206850000000  0.4782480000000 1.0
C      1  0.5657150000000  0.4414590000000  0.5083330000000 1.0
C      1  0.5666160000000  0.5557470000000  0.5114740000000 1.0
C      1  0.4563590000000  0.4293020000000  0.4888480000000 1.0
C      1  0.4521450000000  0.5623880000000  0.4868290000000 1.0
C      1  0.4198660000000  0.5526840000000  0.4513760000000 1.0
C      1  0.4166820000000  0.4596810000000  0.4579590000000 1.0
C      1  0.4777870000000  0.4828790000000  0.5118230000000 1.0
C      1  0.4776360000000  0.5199880000000  0.5089530000000 1.0
C      1  0.4607760000000  0.4595340000000  0.5428570000000 1.0
C      1  0.4483570000000  0.5487140000000  0.5439570000000 1.0
C      1  0.4810080000000  0.4442240000000  0.5331300000000 1.0
C      1  0.4710140000000  0.5640010000000  0.5370950000000 1.0
C      1  0.5828090000000  0.4845030000000  0.4983800000000 1.0
C      1  0.5863080000000  0.5140570000000  0.4988810000000 1.0
C      1  0.4779280000000  0.4294360000000  0.5089220000000 1.0
C      1  0.4719370000000  0.5701860000000  0.5078990000000 1.0
C      1  0.5336240000000  0.5275630000000  0.5201610000000 1.0
C      1  0.5288720000000  0.4751080000000  0.5217440000000 1.0
C      1  0.5445340000000  0.5640550000000  0.5281130000000 1.0
C      1  0.5498570000000  0.4238110000000  0.5228190000000 1.0
C      1  0.4698920000000  0.4758920000000  0.4575730000000 1.0
C      1  0.4651660000000  0.5371950000000  0.4605530000000 1.0
C      1  0.5304990000000  0.5547710000000  0.4449690000000 1.0
C      1  0.5228590000000  0.4448980000000  0.4465340000000 1.0
C      1  0.4015670000000  0.5051470000000  0.4761320000000 1.0
C      1  0.4007320000000  0.4767390000000  0.4787390000000 1.0
C      1  0.4842060000000  0.5171610000000  0.5805820000000 1.0
C      1  0.4873900000000  0.4787660000000  0.5783580000000 1.0
C      1  0.5486840000000  0.5152650000000  0.5446450000000 1.0
C      1  0.5479640000000  0.4848100000000  0.5444380000000 1.0
C      1  0.5001330000000  0.4379160000000  0.4635650000000 1.0
C      1  0.5044030000000  0.5577650000000  0.4577260000000 1.0
C      1  0.4887450000000  0.4970810000000  0.5991230000000 1.0
END
