TITL C-3578197-9521-243 3.89829983768411e-07 125000 -902.434720085515 0 0 144 (C1) n - 1
REM
REM in /home/bkarasulu/work/CARBON/AIRSS/Generating-Clusters/EDIP-Nigel-Params/with-SteepDescent/Higher-Symm/SD-CG/HFTN-CG
REM
REM
REM
REM
REM
REM ./C.cell (12c818d87b63d06a65506943cc24bca4)
REM
REM compiler GCC version 9.2.1 20190827 (Red Hat 9.2.1-1)
REM options -cpp -mtune=generic -march=x86-64 -g -O0 -fpre-include=/usr/include/finclude/math-vector-fortran.h
REM seed -1186037198 888253635 -1643807631 -1922846891 1448094715 -816861637 -604887706 1688702473 -1439876087 -448921915 -410544919 -943902379 -391669798 1896800019 -232686147 -79250794 1867292104 -1837716528 755898002 113746551 -1537684643 1899136629 212070494 1448826394 196435354 -410560589 -1789217667 1167779609 1457544846 -1302494352 -2101140963 -826395244 -1908028573
REM
CELL 1.54180   50.00000   50.00000   50.00000   90.00000   90.00000   90.00000
LATT -1
SFAC C  
C      1  0.5748320000000  0.5276330000000  0.5638060000000 1.0
C      1  0.4252500000000  0.4722780000000  0.4363220000000 1.0
C      1  0.5495520000000  0.5340840000000  0.5123110000000 1.0
C      1  0.4509590000000  0.4652440000000  0.4874440000000 1.0
C      1  0.5459330000000  0.4321150000000  0.4363080000000 1.0
C      1  0.4543390000000  0.5674810000000  0.5638870000000 1.0
C      1  0.5154940000000  0.5515780000000  0.4039420000000 1.0
C      1  0.4844880000000  0.4484120000000  0.5960740000000 1.0
C      1  0.5453620000000  0.4845730000000  0.5976380000000 1.0
C      1  0.4546040000000  0.5154030000000  0.4022710000000 1.0
C      1  0.5635740000000  0.5056640000000  0.4362520000000 1.0
C      1  0.4365240000000  0.4942490000000  0.5638290000000 1.0
C      1  0.4484460000000  0.5174000000000  0.5785140000000 1.0
C      1  0.5516060000000  0.4824520000000  0.4216430000000 1.0
C      1  0.4389870000000  0.5422550000000  0.5640410000000 1.0
C      1  0.5611030000000  0.4575550000000  0.4361080000000 1.0
C      1  0.4359270000000  0.5063390000000  0.4976760000000 1.0
C      1  0.5642890000000  0.4933670000000  0.5022860000000 1.0
C      1  0.4478430000000  0.5447690000000  0.4373000000000 1.0
C      1  0.5521040000000  0.4550690000000  0.5626980000000 1.0
C      1  0.5830500000000  0.4911390000000  0.5711460000000 1.0
C      1  0.4169850000000  0.5086830000000  0.4288740000000 1.0
C      1  0.5243470000000  0.4946880000000  0.4532220000000 1.0
C      1  0.4756840000000  0.5054800000000  0.5468330000000 1.0
C      1  0.5187720000000  0.4436490000000  0.4345330000000 1.0
C      1  0.4815990000000  0.5560300000000  0.5649960000000 1.0
C      1  0.5404850000000  0.5719790000000  0.4344600000000 1.0
C      1  0.4592950000000  0.4279320000000  0.5657890000000 1.0
C      1  0.5228480000000  0.4832310000000  0.4160010000000 1.0
C      1  0.4772040000000  0.5167470000000  0.5840840000000 1.0
C      1  0.5636480000000  0.5735610000000  0.5262390000000 1.0
C      1  0.4360990000000  0.4259090000000  0.4740460000000 1.0
C      1  0.5557030000000  0.5506550000000  0.5713300000000 1.0
C      1  0.4442220000000  0.4492470000000  0.4284560000000 1.0
C      1  0.4922470000000  0.4314970000000  0.4215750000000 1.0
C      1  0.5078930000000  0.5683450000000  0.5778780000000 1.0
C      1  0.4284130000000  0.5774140000000  0.5162410000000 1.0
C      1  0.5713710000000  0.4224340000000  0.4837690000000 1.0
C      1  0.4709370000000  0.4558250000000  0.5718340000000 1.0
C      1  0.5290080000000  0.5441660000000  0.4281970000000 1.0
C      1  0.5708640000000  0.5630900000000  0.4676240000000 1.0
C      1  0.4289220000000  0.4371320000000  0.5325920000000 1.0
C      1  0.4613220000000  0.5258880000000  0.4580600000000 1.0
C      1  0.5385780000000  0.4738780000000  0.5419090000000 1.0
C      1  0.5143640000000  0.4870930000000  0.5566190000000 1.0
C      1  0.4856120000000  0.5129240000000  0.4433290000000 1.0
C      1  0.4697820000000  0.4140930000000  0.5416830000000 1.0
C      1  0.5298560000000  0.5856480000000  0.4585980000000 1.0
C      1  0.5528380000000  0.5735490000000  0.5533660000000 1.0
C      1  0.4467630000000  0.4258460000000  0.4463820000000 1.0
C      1  0.4767060000000  0.4221680000000  0.4459120000000 1.0
C      1  0.5233200000000  0.5787240000000  0.5542790000000 1.0
C      1  0.4785340000000  0.5483860000000  0.5078130000000 1.0
C      1  0.5219870000000  0.4520450000000  0.4916980000000 1.0
C      1  0.4877460000000  0.5348260000000  0.5426990000000 1.0
C      1  0.5126760000000  0.4650890000000  0.4568280000000 1.0
C      1  0.5542760000000  0.5078590000000  0.5309760000000 1.0
C      1  0.4457810000000  0.4917820000000  0.4691920000000 1.0
C      1  0.5357480000000  0.5017690000000  0.4838290000000 1.0
C      1  0.4639160000000  0.4982610000000  0.5163040000000 1.0
C      1  0.3976530000000  0.4996540000000  0.5001610000000 1.0
C      1  0.6025070000000  0.5003020000000  0.4999000000000 1.0
C      1  0.4341990000000  0.4673980000000  0.5743060000000 1.0
C      1  0.5657510000000  0.5326340000000  0.4259020000000 1.0
C      1  0.4830420000000  0.4604450000000  0.4525870000000 1.0
C      1  0.5175500000000  0.5398720000000  0.5469190000000 1.0
C      1  0.4243180000000  0.5330810000000  0.5404110000000 1.0
C      1  0.5758170000000  0.4667870000000  0.4596710000000 1.0
C      1  0.5509770000000  0.5821270000000  0.4781260000000 1.0
C      1  0.4484900000000  0.4178450000000  0.5222300000000 1.0
C      1  0.5232310000000  0.4207110000000  0.5466510000000 1.0
C      1  0.4766210000000  0.5792230000000  0.4534360000000 1.0
C      1  0.5183440000000  0.6000420000000  0.5124100000000 1.0
C      1  0.4808350000000  0.4012520000000  0.4877960000000 1.0
C      1  0.4074470000000  0.4853020000000  0.5225160000000 1.0
C      1  0.5926210000000  0.5147120000000  0.4775900000000 1.0
C      1  0.5243980000000  0.4206990000000  0.4888070000000 1.0
C      1  0.4753860000000  0.5794130000000  0.5111910000000 1.0
C      1  0.4996590000000  0.4941570000000  0.4018700000000 1.0
C      1  0.5004100000000  0.5058450000000  0.5981420000000 1.0
C      1  0.5772960000000  0.4964210000000  0.4599490000000 1.0
C      1  0.4228900000000  0.5034920000000  0.5400860000000 1.0
C      1  0.5823930000000  0.5424240000000  0.4860210000000 1.0
C      1  0.4180890000000  0.4578750000000  0.5139910000000 1.0
C      1  0.5411980000000  0.4553330000000  0.5163850000000 1.0
C      1  0.4590190000000  0.5445530000000  0.4834980000000 1.0
C      1  0.4163530000000  0.4475680000000  0.4827500000000 1.0
C      1  0.5838340000000  0.5523910000000  0.5174020000000 1.0
C      1  0.4316000000000  0.5358250000000  0.4927840000000 1.0
C      1  0.5686430000000  0.4639320000000  0.5072640000000 1.0
C      1  0.5063480000000  0.5381900000000  0.5024980000000 1.0
C      1  0.4943780000000  0.4631480000000  0.4973270000000 1.0
C      1  0.4752550000000  0.4759390000000  0.4002360000000 1.0
C      1  0.5247890000000  0.5241070000000  0.5995320000000 1.0
C      1  0.4561430000000  0.4690950000000  0.5191250000000 1.0
C      1  0.5442190000000  0.5306240000000  0.4806660000000 1.0
C      1  0.4717320000000  0.5619570000000  0.4290410000000 1.0
C      1  0.5282560000000  0.4379060000000  0.5710530000000 1.0
C      1  0.4097370000000  0.4682290000000  0.4618520000000 1.0
C      1  0.5902920000000  0.5315750000000  0.5382110000000 1.0
C      1  0.5017140000000  0.5838840000000  0.4679080000000 1.0
C      1  0.4979740000000  0.4161790000000  0.5324280000000 1.0
C      1  0.4314030000000  0.4401720000000  0.5619760000000 1.0
C      1  0.5684550000000  0.5599530000000  0.4382170000000 1.0
C      1  0.4018900000000  0.4939930000000  0.4725040000000 1.0
C      1  0.5981830000000  0.5058390000000  0.5275660000000 1.0
C      1  0.4061200000000  0.5163790000000  0.4547190000000 1.0
C      1  0.5939320000000  0.4834340000000  0.5453350000000 1.0
C      1  0.5114510000000  0.5090590000000  0.5008440000000 1.0
C      1  0.4883510000000  0.4921900000000  0.4992540000000 1.0
C      1  0.5264840000000  0.5504080000000  0.5202460000000 1.0
C      1  0.4751820000000  0.4516130000000  0.4789660000000 1.0
C      1  0.5771460000000  0.4497180000000  0.4831840000000 1.0
C      1  0.4230930000000  0.5500520000000  0.5168620000000 1.0
C      1  0.4338980000000  0.5287860000000  0.4166580000000 1.0
C      1  0.5660410000000  0.4711160000000  0.5833060000000 1.0
C      1  0.4923850000000  0.4029190000000  0.4605530000000 1.0
C      1  0.5070830000000  0.5975320000000  0.5395300000000 1.0
C      1  0.4703270000000  0.4496240000000  0.4118490000000 1.0
C      1  0.5297060000000  0.5503690000000  0.5877600000000 1.0
C      1  0.4497670000000  0.4883160000000  0.4082560000000 1.0
C      1  0.5502250000000  0.5116420000000  0.5916050000000 1.0
C      1  0.4828920000000  0.5186640000000  0.4128020000000 1.0
C      1  0.5170830000000  0.4813250000000  0.5871420000000 1.0
C      1  0.5169380000000  0.5276150000000  0.4530620000000 1.0
C      1  0.4830380000000  0.4724360000000  0.5469300000000 1.0
C      1  0.4486690000000  0.5871110000000  0.4997220000000 1.0
C      1  0.5510610000000  0.4127220000000  0.5002370000000 1.0
C      1  0.4133620000000  0.5416670000000  0.4691750000000 1.0
C      1  0.5867430000000  0.4580920000000  0.5309350000000 1.0
C      1  0.5428750000000  0.5831980000000  0.5065850000000 1.0
C      1  0.4551040000000  0.4153060000000  0.4941070000000 1.0
C      1  0.4661960000000  0.4851030000000  0.4428150000000 1.0
C      1  0.5339060000000  0.5148560000000  0.5569220000000 1.0
C      1  0.5715410000000  0.4377150000000  0.5463370000000 1.0
C      1  0.4284110000000  0.5620870000000  0.4537090000000 1.0
C      1  0.4962270000000  0.5934940000000  0.4948460000000 1.0
C      1  0.5032320000000  0.4069830000000  0.5053930000000 1.0
C      1  0.5108550000000  0.4528400000000  0.5902070000000 1.0
C      1  0.4891120000000  0.5471540000000  0.4097640000000 1.0
C      1  0.5475750000000  0.4266230000000  0.5279870000000 1.0
C      1  0.4522890000000  0.5732000000000  0.4719890000000 1.0
C      1  0.4788030000000  0.5863020000000  0.5406790000000 1.0
C      1  0.5209390000000  0.4136650000000  0.4592930000000 1.0
END
