TITL C-3577078-809-197 1.76887275020779e-06 125000 -682.75911900848 0 0 110 (C1) n - 1
REM
REM in /home/bkarasulu/work/CARBON/AIRSS/Generating-Clusters/EDIP-Nigel-Params/with-SteepDescent/Higher-Symm/SD-CG/HFTN-CG
REM
REM
REM
REM
REM
REM ./C.cell (12c818d87b63d06a65506943cc24bca4)
REM
REM compiler GCC version 9.2.1 20190827 (Red Hat 9.2.1-1)
REM options -cpp -mtune=generic -march=x86-64 -g -O0 -fpre-include=/usr/include/finclude/math-vector-fortran.h
REM seed 931833000 -285935513 1658394677 624649841 -1500542002 1985913603 -287127421 623160742 544239600 -1650394180 -983115265 -1640638166 -121062933 252381873 -1261583763 58457734 804628778 -147471985 -1941164412 189310229 -74189630 1716960680 -1954788640 -1651758257 522546067 802399397 -230992033 869302373 -1318872293 -1821605096 778960749 -843381627 404261022
REM
CELL 1.54180   50.00000   50.00000   50.00000   90.00000   90.00000   90.00000
LATT -1
SFAC C  
C      1  0.5015710000000  0.5874820000000  0.4684190000000 1.0
C      1  0.5025810000000  0.4257980000000  0.4405350000000 1.0
C      1  0.5012410000000  0.4853560000000  0.5948750000000 1.0
C      1  0.4696540000000  0.5398630000000  0.4710950000000 1.0
C      1  0.4641510000000  0.4527290000000  0.4833210000000 1.0
C      1  0.4627820000000  0.5104030000000  0.5481650000000 1.0
C      1  0.5587310000000  0.4774740000000  0.5479960000000 1.0
C      1  0.5595210000000  0.5495900000000  0.4966630000000 1.0
C      1  0.5654480000000  0.4754350000000  0.4617420000000 1.0
C      1  0.4523250000000  0.4862750000000  0.4343930000000 1.0
C      1  0.4538260000000  0.4511970000000  0.5433190000000 1.0
C      1  0.4523610000000  0.5651550000000  0.5228150000000 1.0
C      1  0.5846580000000  0.5102570000000  0.5156380000000 1.0
C      1  0.5857100000000  0.4956090000000  0.4711340000000 1.0
C      1  0.5900490000000  0.4865780000000  0.4997680000000 1.0
C      1  0.5678610000000  0.4497800000000  0.5504740000000 1.0
C      1  0.5684790000000  0.5648130000000  0.5206370000000 1.0
C      1  0.5577130000000  0.4804620000000  0.4333620000000 1.0
C      1  0.4501420000000  0.5652490000000  0.4738450000000 1.0
C      1  0.4469890000000  0.4441990000000  0.4585800000000 1.0
C      1  0.4480920000000  0.4930600000000  0.5693180000000 1.0
C      1  0.5078990000000  0.5399640000000  0.4491080000000 1.0
C      1  0.5145820000000  0.4303020000000  0.4935800000000 1.0
C      1  0.5132690000000  0.5289180000000  0.5663980000000 1.0
C      1  0.5510490000000  0.4212510000000  0.5170360000000 1.0
C      1  0.5497390000000  0.5540440000000  0.5635910000000 1.0
C      1  0.5412720000000  0.5269580000000  0.4228250000000 1.0
C      1  0.5172930000000  0.4538280000000  0.4746600000000 1.0
C      1  0.5158400000000  0.5007220000000  0.5555420000000 1.0
C      1  0.5112300000000  0.5456770000000  0.4795180000000 1.0
C      1  0.4800480000000  0.5388890000000  0.5018160000000 1.0
C      1  0.4894290000000  0.4654390000000  0.4718830000000 1.0
C      1  0.4880030000000  0.4926510000000  0.5431700000000 1.0
C      1  0.4167290000000  0.5427240000000  0.4922190000000 1.0
C      1  0.4149210000000  0.4740630000000  0.4666630000000 1.0
C      1  0.4177920000000  0.4863760000000  0.5379440000000 1.0
C      1  0.4892950000000  0.4648860000000  0.5771320000000 1.0
C      1  0.4901990000000  0.5811870000000  0.4949150000000 1.0
C      1  0.4883150000000  0.4503470000000  0.4302680000000 1.0
C      1  0.5554050000000  0.4269450000000  0.4654740000000 1.0
C      1  0.5544740000000  0.5069430000000  0.5853720000000 1.0
C      1  0.5524860000000  0.5662810000000  0.4546410000000 1.0
C      1  0.5025270000000  0.5704540000000  0.5414500000000 1.0
C      1  0.4997280000000  0.4992070000000  0.4215580000000 1.0
C      1  0.5026270000000  0.4309160000000  0.5419250000000 1.0
C      1  0.4695430000000  0.5369180000000  0.5611580000000 1.0
C      1  0.4666990000000  0.5343880000000  0.4329190000000 1.0
C      1  0.4706900000000  0.4287020000000  0.5012690000000 1.0
C      1  0.5099320000000  0.5841500000000  0.5163420000000 1.0
C      1  0.5070270000000  0.4704550000000  0.4192500000000 1.0
C      1  0.5090950000000  0.4458110000000  0.5669580000000 1.0
C      1  0.4750680000000  0.5581750000000  0.5410820000000 1.0
C      1  0.4718060000000  0.5065990000000  0.4268740000000 1.0
C      1  0.4752490000000  0.4355870000000  0.5301720000000 1.0
C      1  0.5526130000000  0.5353660000000  0.5850330000000 1.0
C      1  0.5456210000000  0.5537760000000  0.4303310000000 1.0
C      1  0.5545740000000  0.4124640000000  0.4899930000000 1.0
C      1  0.5716130000000  0.4997120000000  0.5624760000000 1.0
C      1  0.5718210000000  0.5491360000000  0.4692270000000 1.0
C      1  0.5737780000000  0.4488050000000  0.4726190000000 1.0
C      1  0.4093700000000  0.4767950000000  0.4959380000000 1.0
C      1  0.4103050000000  0.5091490000000  0.5206680000000 1.0
C      1  0.4111770000000  0.5167630000000  0.4787860000000 1.0
C      1  0.4520780000000  0.4738190000000  0.5023150000000 1.0
C      1  0.4536650000000  0.5211510000000  0.5167820000000 1.0
C      1  0.4636640000000  0.5086740000000  0.4702560000000 1.0
C      1  0.5728740000000  0.4393770000000  0.5240810000000 1.0
C      1  0.5715930000000  0.5491480000000  0.5448690000000 1.0
C      1  0.5629990000000  0.5109320000000  0.4321300000000 1.0
C      1  0.5194650000000  0.5014030000000  0.4673400000000 1.0
C      1  0.5211800000000  0.4677490000000  0.5166280000000 1.0
C      1  0.5235750000000  0.5301580000000  0.5232930000000 1.0
C      1  0.4915890000000  0.4126530000000  0.4882950000000 1.0
C      1  0.4893980000000  0.5330840000000  0.5824570000000 1.0
C      1  0.4877970000000  0.5539090000000  0.4335240000000 1.0
C      1  0.5290380000000  0.4397120000000  0.4495490000000 1.0
C      1  0.5290720000000  0.4868780000000  0.5808460000000 1.0
C      1  0.5291250000000  0.5735140000000  0.4746040000000 1.0
C      1  0.5774980000000  0.4583740000000  0.5013240000000 1.0
C      1  0.5757730000000  0.5198740000000  0.5412170000000 1.0
C      1  0.5735890000000  0.5205080000000  0.4587580000000 1.0
C      1  0.4205820000000  0.4911010000000  0.5653060000000 1.0
C      1  0.4223670000000  0.5632970000000  0.4746620000000 1.0
C      1  0.4193110000000  0.4476820000000  0.4591290000000 1.0
C      1  0.5340960000000  0.4621500000000  0.4286970000000 1.0
C      1  0.5368330000000  0.4571580000000  0.5723770000000 1.0
C      1  0.5379840000000  0.5812870000000  0.5038850000000 1.0
C      1  0.4311080000000  0.5419070000000  0.5188740000000 1.0
C      1  0.4311370000000  0.4952660000000  0.4529750000000 1.0
C      1  0.4335450000000  0.4641260000000  0.5239310000000 1.0
C      1  0.4866500000000  0.5093280000000  0.5975130000000 1.0
C      1  0.4864710000000  0.5790010000000  0.4461190000000 1.0
C      1  0.4891460000000  0.4108190000000  0.4602180000000 1.0
C      1  0.5367730000000  0.5293780000000  0.4972880000000 1.0
C      1  0.5393990000000  0.4818220000000  0.4787910000000 1.0
C      1  0.5371350000000  0.4884550000000  0.5292920000000 1.0
C      1  0.4616150000000  0.4666790000000  0.5673000000000 1.0
C      1  0.4612420000000  0.5786690000000  0.4977960000000 1.0
C      1  0.4595990000000  0.4574320000000  0.4350190000000 1.0
C      1  0.4916390000000  0.4941410000000  0.4783620000000 1.0
C      1  0.4940590000000  0.4809850000000  0.5129200000000 1.0
C      1  0.4980850000000  0.5170820000000  0.5152660000000 1.0
C      1  0.3828870000000  0.5099390000000  0.4818340000000 1.0
C      1  0.3807920000000  0.4786750000000  0.5044570000000 1.0
C      1  0.3818220000000  0.5074690000000  0.5108750000000 1.0
C      1  0.5235780000000  0.4374060000000  0.5209460000000 1.0
C      1  0.5233840000000  0.5491720000000  0.5473810000000 1.0
C      1  0.5190150000000  0.5143150000000  0.4389430000000 1.0
C      1  0.5491270000000  0.5005430000000  0.5031110000000 1.0
C      1  0.4446400000000  0.5016990000000  0.4942290000000 1.0
END
