TITL C-3577084-3642-738 -2.73296783233583e-07 125000 -794.905496171637 0 0 128 (C1) n - 1
REM
REM in /home/bkarasulu/work/CARBON/AIRSS/Generating-Clusters/EDIP-Nigel-Params/with-SteepDescent/Higher-Symm/SD-CG/HFTN-CG
REM
REM
REM
REM
REM
REM ./C.cell (12c818d87b63d06a65506943cc24bca4)
REM
REM compiler GCC version 9.2.1 20190827 (Red Hat 9.2.1-1)
REM options -cpp -mtune=generic -march=x86-64 -g -O0 -fpre-include=/usr/include/finclude/math-vector-fortran.h
REM seed 38101660 -343383973 1611113662 1509796060 1290846925 -1860580902 -1800487240 2101251190 -2052246138 -522778227 -1763894156 1495486561 1708715382 -1439395703 1785563710 1648358543 2005966842 -1348773804 878136880 -351299039 -963874842 -1287553232 -1901938827 1499173076 1902098786 -596848236 -931056565 2100832528 -817559404 2066966717 -341284681 1064855678 -484817149
REM
CELL 1.54180   50.00000   50.00000   50.00000   90.00000   90.00000   90.00000
LATT -1
SFAC C  
C      1  0.5519710000000  0.4483510000000  0.5459290000000 1.0
C      1  0.5573700000000  0.4353190000000  0.5039250000000 1.0
C      1  0.5623190000000  0.4448350000000  0.4587370000000 1.0
C      1  0.5617590000000  0.4851120000000  0.4346830000000 1.0
C      1  0.5641980000000  0.5307350000000  0.4423750000000 1.0
C      1  0.5531630000000  0.5711770000000  0.4711630000000 1.0
C      1  0.5710200000000  0.5670160000000  0.5269850000000 1.0
C      1  0.5604990000000  0.5400810000000  0.5636230000000 1.0
C      1  0.5607300000000  0.4913320000000  0.5648470000000 1.0
C      1  0.4994700000000  0.5085620000000  0.4602180000000 1.0
C      1  0.5121940000000  0.5352260000000  0.4707840000000 1.0
C      1  0.4995690000000  0.5492930000000  0.4962980000000 1.0
C      1  0.5094110000000  0.5317670000000  0.5191190000000 1.0
C      1  0.5103730000000  0.5056080000000  0.5512220000000 1.0
C      1  0.5035360000000  0.4739850000000  0.5440060000000 1.0
C      1  0.5076130000000  0.4513300000000  0.5160120000000 1.0
C      1  0.4910960000000  0.4589290000000  0.4923610000000 1.0
C      1  0.5056240000000  0.4747470000000  0.4704380000000 1.0
C      1  0.4117220000000  0.4591890000000  0.4976520000000 1.0
C      1  0.4041500000000  0.4739690000000  0.4752370000000 1.0
C      1  0.4074540000000  0.4930190000000  0.4548010000000 1.0
C      1  0.4064520000000  0.5217960000000  0.4616780000000 1.0
C      1  0.4057360000000  0.5314410000000  0.4880790000000 1.0
C      1  0.4158930000000  0.5364030000000  0.5136410000000 1.0
C      1  0.4094240000000  0.5178440000000  0.5328660000000 1.0
C      1  0.4143810000000  0.4919900000000  0.5409070000000 1.0
C      1  0.4081500000000  0.4722090000000  0.5221200000000 1.0
C      1  0.4416120000000  0.5519060000000  0.5182900000000 1.0
C      1  0.4582550000000  0.5318160000000  0.5574890000000 1.0
C      1  0.4375970000000  0.4873800000000  0.5594720000000 1.0
C      1  0.4500230000000  0.4476380000000  0.5415270000000 1.0
C      1  0.4362290000000  0.4411050000000  0.4956700000000 1.0
C      1  0.4474460000000  0.4474670000000  0.4492930000000 1.0
C      1  0.4305210000000  0.4910690000000  0.4346060000000 1.0
C      1  0.4202320000000  0.5367780000000  0.4402930000000 1.0
C      1  0.4489660000000  0.5613280000000  0.4736440000000 1.0
C      1  0.5073790000000  0.4307680000000  0.4461050000000 1.0
C      1  0.5050720000000  0.4814900000000  0.4196810000000 1.0
C      1  0.5032560000000  0.5374190000000  0.4230720000000 1.0
C      1  0.5106810000000  0.5813970000000  0.4524710000000 1.0
C      1  0.5080810000000  0.5852590000000  0.5317320000000 1.0
C      1  0.5173280000000  0.5585240000000  0.5760920000000 1.0
C      1  0.5070420000000  0.4808350000000  0.5926590000000 1.0
C      1  0.5120320000000  0.4340390000000  0.5703340000000 1.0
C      1  0.5045430000000  0.4080940000000  0.4941670000000 1.0
C      1  0.4372710000000  0.4572540000000  0.5680970000000 1.0
C      1  0.4403670000000  0.4263130000000  0.5227350000000 1.0
C      1  0.4363530000000  0.4254460000000  0.4680060000000 1.0
C      1  0.4365060000000  0.4609380000000  0.4237800000000 1.0
C      1  0.4301090000000  0.5177720000000  0.4188260000000 1.0
C      1  0.4340170000000  0.5637420000000  0.4465500000000 1.0
C      1  0.4421150000000  0.5755920000000  0.4995100000000 1.0
C      1  0.4454130000000  0.5580120000000  0.5488630000000 1.0
C      1  0.4446770000000  0.5124270000000  0.5762730000000 1.0
C      1  0.4613860000000  0.5353670000000  0.4792800000000 1.0
C      1  0.4664070000000  0.5341480000000  0.5094030000000 1.0
C      1  0.4714320000000  0.5172280000000  0.5351390000000 1.0
C      1  0.4727180000000  0.4877020000000  0.5420090000000 1.0
C      1  0.4568780000000  0.4703760000000  0.5238790000000 1.0
C      1  0.4619020000000  0.4628790000000  0.4945760000000 1.0
C      1  0.4578510000000  0.4697920000000  0.4653380000000 1.0
C      1  0.4519990000000  0.4953010000000  0.4544510000000 1.0
C      1  0.4703130000000  0.5188680000000  0.4560330000000 1.0
C      1  0.4668040000000  0.5692530000000  0.5794180000000 1.0
C      1  0.4662190000000  0.5059320000000  0.5956730000000 1.0
C      1  0.4634640000000  0.4320920000000  0.5809120000000 1.0
C      1  0.4630640000000  0.4073940000000  0.5193950000000 1.0
C      1  0.4615720000000  0.4056300000000  0.4459710000000 1.0
C      1  0.4604270000000  0.4585580000000  0.4049080000000 1.0
C      1  0.4564950000000  0.5249550000000  0.4072250000000 1.0
C      1  0.4636620000000  0.5886970000000  0.4421270000000 1.0
C      1  0.4644920000000  0.5929560000000  0.5096070000000 1.0
C      1  0.5488240000000  0.5564390000000  0.4451890000000 1.0
C      1  0.5285570000000  0.5871590000000  0.4760760000000 1.0
C      1  0.5567330000000  0.5678820000000  0.5519550000000 1.0
C      1  0.5355710000000  0.5356780000000  0.5823730000000 1.0
C      1  0.5502480000000  0.4641620000000  0.5709770000000 1.0
C      1  0.5309450000000  0.4256490000000  0.5478950000000 1.0
C      1  0.5488330000000  0.4248700000000  0.4767690000000 1.0
C      1  0.5481750000000  0.4587310000000  0.4355300000000 1.0
C      1  0.5446210000000  0.5085980000000  0.4375900000000 1.0
C      1  0.5845560000000  0.4607970000000  0.4723700000000 1.0
C      1  0.5790470000000  0.4890750000000  0.4605420000000 1.0
C      1  0.5865330000000  0.5233490000000  0.4637720000000 1.0
C      1  0.5817770000000  0.5354730000000  0.4917660000000 1.0
C      1  0.5895250000000  0.5448160000000  0.5200110000000 1.0
C      1  0.5910370000000  0.5248860000000  0.5445020000000 1.0
C      1  0.5862750000000  0.4936350000000  0.5456310000000 1.0
C      1  0.5877160000000  0.4760620000000  0.5221030000000 1.0
C      1  0.5825280000000  0.4549930000000  0.5019700000000 1.0
C      1  0.4751540000000  0.4075600000000  0.4928120000000 1.0
C      1  0.4814830000000  0.4229800000000  0.4349740000000 1.0
C      1  0.4784830000000  0.4818250000000  0.4066910000000 1.0
C      1  0.4727640000000  0.5379290000000  0.4284710000000 1.0
C      1  0.4840090000000  0.5853950000000  0.4617350000000 1.0
C      1  0.4782400000000  0.5840550000000  0.5345400000000 1.0
C      1  0.4895790000000  0.5517230000000  0.5812590000000 1.0
C      1  0.4776990000000  0.4792290000000  0.5918400000000 1.0
C      1  0.4846800000000  0.4292700000000  0.5620110000000 1.0
C      1  0.5514700000000  0.4901870000000  0.4772130000000 1.0
C      1  0.5393000000000  0.5267860000000  0.4777110000000 1.0
C      1  0.5547150000000  0.5481810000000  0.4902210000000 1.0
C      1  0.5389120000000  0.5464030000000  0.5185670000000 1.0
C      1  0.5534160000000  0.5255820000000  0.5363050000000 1.0
C      1  0.5401020000000  0.4994960000000  0.5432970000000 1.0
C      1  0.5447210000000  0.4725400000000  0.5276950000000 1.0
C      1  0.5352800000000  0.4564610000000  0.5051160000000 1.0
C      1  0.5348680000000  0.4666470000000  0.4762930000000 1.0
C      1  0.4893480000000  0.5248970000000  0.5928750000000 1.0
C      1  0.4619910000000  0.4555390000000  0.5971550000000 1.0
C      1  0.4854640000000  0.4131740000000  0.5378670000000 1.0
C      1  0.4601720000000  0.3956180000000  0.4720330000000 1.0
C      1  0.4744850000000  0.4351320000000  0.4110460000000 1.0
C      1  0.4693200000000  0.5045480000000  0.3937510000000 1.0
C      1  0.4572740000000  0.5651420000000  0.4263680000000 1.0
C      1  0.4861440000000  0.5949860000000  0.4894360000000 1.0
C      1  0.4654380000000  0.5890930000000  0.5594350000000 1.0
C      1  0.5095520000000  0.5797280000000  0.5005530000000 1.0
C      1  0.5267150000000  0.5720650000000  0.5518280000000 1.0
C      1  0.5135140000000  0.5103050000000  0.5827810000000 1.0
C      1  0.5187250000000  0.4631200000000  0.5716280000000 1.0
C      1  0.5098870000000  0.4205630000000  0.5225660000000 1.0
C      1  0.5195390000000  0.4212850000000  0.4722200000000 1.0
C      1  0.5177190000000  0.4586540000000  0.4371780000000 1.0
C      1  0.5139910000000  0.5086520000000  0.4317320000000 1.0
C      1  0.5181290000000  0.5531460000000  0.4456840000000 1.0
C      1  0.5121330000000  0.5049700000000  0.5077500000000 1.0
C      1  0.5389310000000  0.5060880000000  0.4992940000000 1.0
END
