TITL C-3578206-1180-590 -3.54289162375829e-06 125000 -723.412794850074 0 0 118 (C1) n - 1
REM
REM in /home/bkarasulu/work/CARBON/AIRSS/Generating-Clusters/EDIP-Nigel-Params/with-SteepDescent/Higher-Symm/SD-CG/HFTN-CG
REM
REM
REM
REM
REM
REM ./C.cell (12c818d87b63d06a65506943cc24bca4)
REM
REM compiler GCC version 9.2.1 20190827 (Red Hat 9.2.1-1)
REM options -cpp -mtune=generic -march=x86-64 -g -O0 -fpre-include=/usr/include/finclude/math-vector-fortran.h
REM seed -311914446 118241699 -1719627695 1418535703 619544762 1403133902 -1051405444 1171108751 354854775 -1297198840 708380229 1700915568 -2107464077 -1802532276 -1778731349 -1927610017 633267639 -1834774754 -1319480669 1388365400 -1311276057 -862266710 2093115189 -1675498242 -705777665 1663317508 -729110887 1513622310 1815012368 912812143 -665409116 -1277388288 -1930365719
REM
CELL 1.54180   50.00000   50.00000   50.00000   90.00000   90.00000   90.00000
LATT -1
SFAC C  
C      1  0.4948480000000  0.4088030000000  0.4505990000000 1.0
C      1  0.4961500000000  0.5788500000000  0.5533190000000 1.0
C      1  0.4968150000000  0.5872380000000  0.4510160000000 1.0
C      1  0.5004220000000  0.4211390000000  0.5516450000000 1.0
C      1  0.4610230000000  0.4427760000000  0.4857620000000 1.0
C      1  0.4557290000000  0.5624100000000  0.5196950000000 1.0
C      1  0.4642100000000  0.5583440000000  0.4902310000000 1.0
C      1  0.4556310000000  0.4392970000000  0.5150180000000 1.0
C      1  0.4839960000000  0.5426210000000  0.5469780000000 1.0
C      1  0.4926980000000  0.4551260000000  0.4475880000000 1.0
C      1  0.4821960000000  0.4613730000000  0.5545700000000 1.0
C      1  0.4836460000000  0.5336090000000  0.4458070000000 1.0
C      1  0.4898840000000  0.3970470000000  0.4763540000000 1.0
C      1  0.4889210000000  0.5977730000000  0.5315020000000 1.0
C      1  0.4941100000000  0.5965500000000  0.4785590000000 1.0
C      1  0.4962680000000  0.4162900000000  0.5222100000000 1.0
C      1  0.5693620000000  0.4844420000000  0.4449650000000 1.0
C      1  0.5683250000000  0.5148570000000  0.5505930000000 1.0
C      1  0.5653120000000  0.5170410000000  0.4460740000000 1.0
C      1  0.5670700000000  0.4836670000000  0.5508860000000 1.0
C      1  0.4386170000000  0.4562110000000  0.4719560000000 1.0
C      1  0.4308900000000  0.5493010000000  0.5291290000000 1.0
C      1  0.4447570000000  0.5436850000000  0.4721450000000 1.0
C      1  0.4346210000000  0.4535080000000  0.5299600000000 1.0
C      1  0.4949260000000  0.4683390000000  0.5284200000000 1.0
C      1  0.4933300000000  0.5247120000000  0.4706810000000 1.0
C      1  0.4925130000000  0.5302620000000  0.5203780000000 1.0
C      1  0.4919750000000  0.4649590000000  0.4775590000000 1.0
C      1  0.4423880000000  0.4601160000000  0.4432720000000 1.0
C      1  0.4333270000000  0.5417150000000  0.5576290000000 1.0
C      1  0.4547990000000  0.5405850000000  0.4433920000000 1.0
C      1  0.4434270000000  0.4597380000000  0.5579510000000 1.0
C      1  0.4181680000000  0.4705420000000  0.4860480000000 1.0
C      1  0.4179240000000  0.5302620000000  0.5118070000000 1.0
C      1  0.4208990000000  0.5320310000000  0.4832530000000 1.0
C      1  0.4186120000000  0.4719310000000  0.5147440000000 1.0
C      1  0.4695200000000  0.4836080000000  0.4108280000000 1.0
C      1  0.4665840000000  0.5176970000000  0.5856190000000 1.0
C      1  0.4684500000000  0.5137680000000  0.4037810000000 1.0
C      1  0.4645090000000  0.4879730000000  0.5929020000000 1.0
C      1  0.5267040000000  0.4517130000000  0.5920130000000 1.0
C      1  0.5266520000000  0.5534220000000  0.4136160000000 1.0
C      1  0.5270820000000  0.5517530000000  0.5910660000000 1.0
C      1  0.5281270000000  0.4472510000000  0.4019970000000 1.0
C      1  0.5603440000000  0.4249820000000  0.4710740000000 1.0
C      1  0.5626620000000  0.5737620000000  0.5265640000000 1.0
C      1  0.5498630000000  0.5745040000000  0.4755600000000 1.0
C      1  0.5573620000000  0.4255930000000  0.5242610000000 1.0
C      1  0.5394860000000  0.4660660000000  0.4828420000000 1.0
C      1  0.5403740000000  0.5320950000000  0.5146560000000 1.0
C      1  0.5377410000000  0.5310930000000  0.4839900000000 1.0
C      1  0.5408560000000  0.4677280000000  0.5140260000000 1.0
C      1  0.5212340000000  0.4417320000000  0.5543700000000 1.0
C      1  0.5150370000000  0.5638320000000  0.4493810000000 1.0
C      1  0.5219180000000  0.5618360000000  0.5533380000000 1.0
C      1  0.5139570000000  0.4323020000000  0.4479630000000 1.0
C      1  0.4503390000000  0.5612490000000  0.5678690000000 1.0
C      1  0.4611790000000  0.4415960000000  0.4316700000000 1.0
C      1  0.4552230000000  0.4374760000000  0.5724760000000 1.0
C      1  0.4537650000000  0.5663670000000  0.4305180000000 1.0
C      1  0.5623490000000  0.3995340000000  0.4837390000000 1.0
C      1  0.5633870000000  0.5995760000000  0.5147490000000 1.0
C      1  0.5449220000000  0.5975920000000  0.4934340000000 1.0
C      1  0.5475790000000  0.4034730000000  0.5076830000000 1.0
C      1  0.5400200000000  0.4828260000000  0.4335880000000 1.0
C      1  0.5375200000000  0.5162990000000  0.5579920000000 1.0
C      1  0.5346560000000  0.5116150000000  0.4406440000000 1.0
C      1  0.5351940000000  0.4857250000000  0.5570120000000 1.0
C      1  0.5405220000000  0.4347810000000  0.5752650000000 1.0
C      1  0.5384810000000  0.5692650000000  0.4329130000000 1.0
C      1  0.5394520000000  0.5704550000000  0.5751910000000 1.0
C      1  0.5272440000000  0.4304260000000  0.4227760000000 1.0
C      1  0.5182440000000  0.3971130000000  0.5101850000000 1.0
C      1  0.5160530000000  0.6039230000000  0.4969010000000 1.0
C      1  0.5076900000000  0.6158300000000  0.5207020000000 1.0
C      1  0.5086790000000  0.3807170000000  0.4896660000000 1.0
C      1  0.4702130000000  0.4176530000000  0.4414370000000 1.0
C      1  0.4754630000000  0.5709460000000  0.5723540000000 1.0
C      1  0.4727970000000  0.5842020000000  0.4371990000000 1.0
C      1  0.4780110000000  0.4227910000000  0.5682750000000 1.0
C      1  0.5193410000000  0.5115070000000  0.4685950000000 1.0
C      1  0.5202000000000  0.4845790000000  0.5299090000000 1.0
C      1  0.5162370000000  0.4834300000000  0.4785590000000 1.0
C      1  0.5176970000000  0.5152840000000  0.5243560000000 1.0
C      1  0.5249280000000  0.5579300000000  0.4773260000000 1.0
C      1  0.5326850000000  0.4412760000000  0.5255630000000 1.0
C      1  0.5337710000000  0.4378670000000  0.4712350000000 1.0
C      1  0.5367730000000  0.5598310000000  0.5271070000000 1.0
C      1  0.5748220000000  0.5559040000000  0.4821250000000 1.0
C      1  0.5792420000000  0.4450110000000  0.5135550000000 1.0
C      1  0.5794490000000  0.4459300000000  0.4821490000000 1.0
C      1  0.5797380000000  0.5531620000000  0.5129150000000 1.0
C      1  0.4932000000000  0.5173000000000  0.4232990000000 1.0
C      1  0.4900580000000  0.4828260000000  0.5745880000000 1.0
C      1  0.4965140000000  0.4787660000000  0.4258080000000 1.0
C      1  0.4914720000000  0.5210900000000  0.5688020000000 1.0
C      1  0.5687070000000  0.4741400000000  0.4733820000000 1.0
C      1  0.5693310000000  0.5244330000000  0.5221380000000 1.0
C      1  0.5661020000000  0.5279630000000  0.4735890000000 1.0
C      1  0.5694450000000  0.4733090000000  0.5228250000000 1.0
C      1  0.4671500000000  0.5965150000000  0.4885740000000 1.0
C      1  0.4667370000000  0.4115550000000  0.5165530000000 1.0
C      1  0.4649990000000  0.4048500000000  0.4882720000000 1.0
C      1  0.4636820000000  0.5919570000000  0.5175490000000 1.0
C      1  0.4393030000000  0.4853400000000  0.5741730000000 1.0
C      1  0.4449940000000  0.5175580000000  0.4245110000000 1.0
C      1  0.4445130000000  0.5149050000000  0.5642780000000 1.0
C      1  0.4488140000000  0.4871040000000  0.4329790000000 1.0
C      1  0.5214770000000  0.5255020000000  0.4165210000000 1.0
C      1  0.5190710000000  0.4769660000000  0.5815260000000 1.0
C      1  0.5230150000000  0.4730520000000  0.4113870000000 1.0
C      1  0.5195220000000  0.5265820000000  0.5800480000000 1.0
C      1  0.4024690000000  0.4881600000000  0.4715210000000 1.0
C      1  0.3980630000000  0.5142760000000  0.5227600000000 1.0
C      1  0.4056440000000  0.5146020000000  0.4680910000000 1.0
C      1  0.3996420000000  0.4878130000000  0.5272430000000 1.0
C      1  0.4983770000000  0.4467700000000  0.5072540000000 1.0
C      1  0.4910750000000  0.5436680000000  0.4931560000000 1.0
END
