TITL C-3577084-3642-412 -5.20934742738589e-06 125000 -1199.61319999099 0 0 191 (C1) n - 1
REM
REM in /home/bkarasulu/work/CARBON/AIRSS/Generating-Clusters/EDIP-Nigel-Params/with-SteepDescent/Higher-Symm/SD-CG/HFTN-CG
REM
REM
REM
REM
REM
REM ./C.cell (12c818d87b63d06a65506943cc24bca4)
REM
REM compiler GCC version 9.2.1 20190827 (Red Hat 9.2.1-1)
REM options -cpp -mtune=generic -march=x86-64 -g -O0 -fpre-include=/usr/include/finclude/math-vector-fortran.h
REM seed 130497266 2142765262 -226540594 -254519444 -1231315022 -2147196637 1312158719 2016551413 421501727 1633422420 1163490793 1994831150 -238534287 749984073 1842513058 -1244785531 1411310167 -789053530 -1347773823 723495307 721076962 1520928454 158396309 472165030 654189430 2017455188 -156167676 2005560398 -569206610 -1801151681 -1946249188 1930741411 1169396100
REM
CELL 1.54180   50.00000   50.00000   50.00000   90.00000   90.00000   90.00000
LATT -1
SFAC C  
C      1  0.5289960000000  0.4326460000000  0.4882870000000 1.0
C      1  0.5682270000000  0.5500770000000  0.4208710000000 1.0
C      1  0.5670300000000  0.4617040000000  0.4322460000000 1.0
C      1  0.5867700000000  0.4436970000000  0.4483930000000 1.0
C      1  0.5762390000000  0.4225880000000  0.4671680000000 1.0
C      1  0.4612140000000  0.4162190000000  0.4590570000000 1.0
C      1  0.5260480000000  0.5174600000000  0.3720600000000 1.0
C      1  0.5310220000000  0.4266640000000  0.4321760000000 1.0
C      1  0.4987370000000  0.5335190000000  0.4745560000000 1.0
C      1  0.4583850000000  0.6043480000000  0.5046750000000 1.0
C      1  0.4785200000000  0.4842540000000  0.5638270000000 1.0
C      1  0.5252370000000  0.4713260000000  0.4583940000000 1.0
C      1  0.5691020000000  0.4998490000000  0.5175260000000 1.0
C      1  0.5262020000000  0.5192820000000  0.5263880000000 1.0
C      1  0.4746950000000  0.5483580000000  0.4863490000000 1.0
C      1  0.5594320000000  0.5655800000000  0.4701100000000 1.0
C      1  0.4545460000000  0.5333700000000  0.5804950000000 1.0
C      1  0.5180690000000  0.4676310000000  0.5670150000000 1.0
C      1  0.4330870000000  0.4744760000000  0.5805610000000 1.0
C      1  0.5016490000000  0.5933980000000  0.4293680000000 1.0
C      1  0.5954710000000  0.4628670000000  0.4695780000000 1.0
C      1  0.5028270000000  0.5202160000000  0.5697250000000 1.0
C      1  0.4230610000000  0.4475730000000  0.5366580000000 1.0
C      1  0.4622820000000  0.4946830000000  0.4062780000000 1.0
C      1  0.4239130000000  0.5758130000000  0.4854590000000 1.0
C      1  0.3633080000000  0.5193220000000  0.4976170000000 1.0
C      1  0.4502470000000  0.4563740000000  0.4871080000000 1.0
C      1  0.5624480000000  0.4169570000000  0.5178000000000 1.0
C      1  0.5708520000000  0.5825720000000  0.5179320000000 1.0
C      1  0.4825210000000  0.5584860000000  0.5456780000000 1.0
C      1  0.4396420000000  0.4802280000000  0.4701260000000 1.0
C      1  0.5334360000000  0.4676880000000  0.4000000000000 1.0
C      1  0.5564310000000  0.4027840000000  0.4593580000000 1.0
C      1  0.4597760000000  0.4434030000000  0.4134400000000 1.0
C      1  0.5602710000000  0.5378330000000  0.5937700000000 1.0
C      1  0.4833710000000  0.4532000000000  0.5623470000000 1.0
C      1  0.5800100000000  0.5233990000000  0.4987210000000 1.0
C      1  0.5253190000000  0.5972180000000  0.4450730000000 1.0
C      1  0.5192700000000  0.3906930000000  0.5502190000000 1.0
C      1  0.5531450000000  0.4355870000000  0.5430630000000 1.0
C      1  0.4500440000000  0.4898790000000  0.5618960000000 1.0
C      1  0.4501060000000  0.5352090000000  0.4663330000000 1.0
C      1  0.5968900000000  0.5187090000000  0.4584390000000 1.0
C      1  0.5695810000000  0.5069860000000  0.5452450000000 1.0
C      1  0.5459190000000  0.4022460000000  0.4337320000000 1.0
C      1  0.4515890000000  0.4546990000000  0.5933950000000 1.0
C      1  0.4133180000000  0.4648820000000  0.5593420000000 1.0
C      1  0.4101970000000  0.4587170000000  0.5127910000000 1.0
C      1  0.4881610000000  0.5130320000000  0.5192010000000 1.0
C      1  0.4180620000000  0.5128240000000  0.5026940000000 1.0
C      1  0.4065870000000  0.4907540000000  0.5473180000000 1.0
C      1  0.4717070000000  0.5236740000000  0.6033750000000 1.0
C      1  0.4466230000000  0.5925390000000  0.4810880000000 1.0
C      1  0.5002430000000  0.4428820000000  0.5319440000000 1.0
C      1  0.5400990000000  0.4997760000000  0.5083260000000 1.0
C      1  0.4659830000000  0.5141690000000  0.4522160000000 1.0
C      1  0.4169930000000  0.5658130000000  0.5122740000000 1.0
C      1  0.4966530000000  0.4736080000000  0.4920560000000 1.0
C      1  0.5534030000000  0.5397440000000  0.4896020000000 1.0
C      1  0.5765100000000  0.4864830000000  0.4174790000000 1.0
C      1  0.5475640000000  0.5178280000000  0.3899810000000 1.0
C      1  0.5767990000000  0.5611680000000  0.4450190000000 1.0
C      1  0.4603930000000  0.5709450000000  0.4377090000000 1.0
C      1  0.5359970000000  0.4031930000000  0.4804840000000 1.0
C      1  0.5193670000000  0.3865970000000  0.5224420000000 1.0
C      1  0.4776470000000  0.5784200000000  0.5694650000000 1.0
C      1  0.4509720000000  0.4996450000000  0.4917520000000 1.0
C      1  0.5049110000000  0.4280420000000  0.5063810000000 1.0
C      1  0.5470950000000  0.4243130000000  0.5707730000000 1.0
C      1  0.4461330000000  0.4314390000000  0.4375930000000 1.0
C      1  0.6017210000000  0.5619650000000  0.4862760000000 1.0
C      1  0.5118960000000  0.5525560000000  0.5498190000000 1.0
C      1  0.5299300000000  0.5971890000000  0.5507750000000 1.0
C      1  0.5688600000000  0.4666550000000  0.5886690000000 1.0
C      1  0.4653090000000  0.5441170000000  0.4005530000000 1.0
C      1  0.5544740000000  0.4560050000000  0.4987950000000 1.0
C      1  0.4990560000000  0.4202040000000  0.5853510000000 1.0
C      1  0.4176280000000  0.5003970000000  0.4303130000000 1.0
C      1  0.4944260000000  0.4906160000000  0.5378180000000 1.0
C      1  0.4859840000000  0.4677540000000  0.5202880000000 1.0
C      1  0.4223030000000  0.4720570000000  0.4212420000000 1.0
C      1  0.5051680000000  0.6185670000000  0.5135810000000 1.0
C      1  0.5277740000000  0.4553370000000  0.5385000000000 1.0
C      1  0.5484070000000  0.4465180000000  0.5908170000000 1.0
C      1  0.4018940000000  0.5455150000000  0.5604910000000 1.0
C      1  0.5785670000000  0.5155600000000  0.5878800000000 1.0
C      1  0.5302940000000  0.5750480000000  0.4639000000000 1.0
C      1  0.4774430000000  0.4659750000000  0.6039660000000 1.0
C      1  0.4681310000000  0.3932020000000  0.5567310000000 1.0
C      1  0.4534310000000  0.4328160000000  0.5753100000000 1.0
C      1  0.5135190000000  0.5378080000000  0.5916520000000 1.0
C      1  0.5523470000000  0.5979280000000  0.5333920000000 1.0
C      1  0.4567580000000  0.4862950000000  0.4440680000000 1.0
C      1  0.4999390000000  0.5179130000000  0.3811100000000 1.0
C      1  0.3826760000000  0.5051330000000  0.5394950000000 1.0
C      1  0.4542370000000  0.5937480000000  0.5316710000000 1.0
C      1  0.5680900000000  0.4733930000000  0.4776870000000 1.0
C      1  0.4880420000000  0.4492280000000  0.4197560000000 1.0
C      1  0.4977130000000  0.3991960000000  0.5035450000000 1.0
C      1  0.5785950000000  0.4697080000000  0.5206750000000 1.0
C      1  0.4318890000000  0.5744740000000  0.5358170000000 1.0
C      1  0.4815780000000  0.4676290000000  0.4448820000000 1.0
C      1  0.4574580000000  0.4043450000000  0.5331210000000 1.0
C      1  0.5038580000000  0.4860070000000  0.4468960000000 1.0
C      1  0.5054810000000  0.5073910000000  0.4264470000000 1.0
C      1  0.5058130000000  0.3948920000000  0.4734250000000 1.0
C      1  0.6061030000000  0.4479360000000  0.4936020000000 1.0
C      1  0.5862420000000  0.5627910000000  0.5310550000000 1.0
C      1  0.5483650000000  0.5106000000000  0.4524900000000 1.0
C      1  0.5847250000000  0.4243400000000  0.4960980000000 1.0
C      1  0.4171840000000  0.5227530000000  0.4732300000000 1.0
C      1  0.4371260000000  0.5519750000000  0.4437280000000 1.0
C      1  0.5015590000000  0.5749310000000  0.5877900000000 1.0
C      1  0.3944170000000  0.5431120000000  0.4677990000000 1.0
C      1  0.4821390000000  0.5684480000000  0.5097670000000 1.0
C      1  0.4557900000000  0.4686660000000  0.5164010000000 1.0
C      1  0.5957310000000  0.5158970000000  0.5539060000000 1.0
C      1  0.5274770000000  0.4984830000000  0.5715990000000 1.0
C      1  0.4841470000000  0.4515620000000  0.4712150000000 1.0
C      1  0.5141460000000  0.5682380000000  0.5147600000000 1.0
C      1  0.4914370000000  0.5449190000000  0.6092690000000 1.0
C      1  0.5742290000000  0.4557410000000  0.5460110000000 1.0
C      1  0.5886530000000  0.5056770000000  0.4345050000000 1.0
C      1  0.4461730000000  0.4689020000000  0.4046910000000 1.0
C      1  0.3999710000000  0.4863410000000  0.5020970000000 1.0
C      1  0.6080960000000  0.4684510000000  0.5160610000000 1.0
C      1  0.5584950000000  0.4940930000000  0.5941590000000 1.0
C      1  0.4000500000000  0.4789410000000  0.4721190000000 1.0
C      1  0.3787580000000  0.5426910000000  0.4929770000000 1.0
C      1  0.5261420000000  0.5728470000000  0.5680190000000 1.0
C      1  0.5041460000000  0.6038850000000  0.5385100000000 1.0
C      1  0.5301790000000  0.4713090000000  0.5102040000000 1.0
C      1  0.4828880000000  0.4957830000000  0.6002940000000 1.0
C      1  0.5289880000000  0.6134120000000  0.4985470000000 1.0
C      1  0.5989340000000  0.5479630000000  0.4594140000000 1.0
C      1  0.4623220000000  0.5937000000000  0.4555810000000 1.0
C      1  0.5224990000000  0.4082090000000  0.5718220000000 1.0
C      1  0.5449110000000  0.5388300000000  0.4107300000000 1.0
C      1  0.4271160000000  0.4159030000000  0.4993780000000 1.0
C      1  0.6124320000000  0.5201460000000  0.5288980000000 1.0
C      1  0.4134430000000  0.5648540000000  0.4604520000000 1.0
C      1  0.4820030000000  0.5258200000000  0.4306720000000 1.0
C      1  0.4487130000000  0.5213290000000  0.4019220000000 1.0
C      1  0.5504930000000  0.4923180000000  0.4040560000000 1.0
C      1  0.5781070000000  0.5818530000000  0.4890610000000 1.0
C      1  0.5371110000000  0.5255330000000  0.6049590000000 1.0
C      1  0.4426710000000  0.4938500000000  0.5335340000000 1.0
C      1  0.4906120000000  0.5649280000000  0.4295220000000 1.0
C      1  0.3882590000000  0.5343430000000  0.5391280000000 1.0
C      1  0.5762840000000  0.5558940000000  0.5555180000000 1.0
C      1  0.5436960000000  0.5186530000000  0.5525290000000 1.0
C      1  0.4931390000000  0.4954210000000  0.3999570000000 1.0
C      1  0.4767070000000  0.6016150000000  0.5511020000000 1.0
C      1  0.4009640000000  0.5402500000000  0.5128190000000 1.0
C      1  0.5349040000000  0.5188750000000  0.4774150000000 1.0
C      1  0.5448680000000  0.3943210000000  0.5080540000000 1.0
C      1  0.4223120000000  0.4434260000000  0.4904110000000 1.0
C      1  0.4682210000000  0.3958450000000  0.5076060000000 1.0
C      1  0.5994750000000  0.5438360000000  0.5122260000000 1.0
C      1  0.5127700000000  0.5497950000000  0.4515610000000 1.0
C      1  0.5521120000000  0.5466750000000  0.5670680000000 1.0
C      1  0.5036760000000  0.4669700000000  0.3986650000000 1.0
C      1  0.4722830000000  0.5317200000000  0.5560470000000 1.0
C      1  0.4854030000000  0.6051390000000  0.4983230000000 1.0
C      1  0.4894720000000  0.4112860000000  0.4536900000000 1.0
C      1  0.4076860000000  0.4505770000000  0.4651640000000 1.0
C      1  0.5335570000000  0.5447350000000  0.5131260000000 1.0
C      1  0.6147230000000  0.4971630000000  0.5082060000000 1.0
C      1  0.3732640000000  0.4970350000000  0.5122870000000 1.0
C      1  0.5883380000000  0.4615460000000  0.5694520000000 1.0
C      1  0.4241060000000  0.4502980000000  0.4413880000000 1.0
C      1  0.5461140000000  0.4469340000000  0.4162470000000 1.0
C      1  0.5521790000000  0.4800870000000  0.4541710000000 1.0
C      1  0.5295500000000  0.5264790000000  0.4338830000000 1.0
C      1  0.4921230000000  0.5424430000000  0.3939950000000 1.0
C      1  0.4410010000000  0.5581730000000  0.5830010000000 1.0
C      1  0.4279930000000  0.5268760000000  0.4210370000000 1.0
C      1  0.5256440000000  0.4572150000000  0.6034840000000 1.0
C      1  0.5002150000000  0.4460290000000  0.6008940000000 1.0
C      1  0.4607530000000  0.5190210000000  0.5304300000000 1.0
C      1  0.4236590000000  0.5626450000000  0.5613390000000 1.0
C      1  0.5166970000000  0.4441610000000  0.4641040000000 1.0
C      1  0.4880810000000  0.6067720000000  0.4511430000000 1.0
C      1  0.5015120000000  0.4235150000000  0.4291260000000 1.0
C      1  0.4514840000000  0.4065450000000  0.4859590000000 1.0
C      1  0.4312280000000  0.4183490000000  0.5294300000000 1.0
C      1  0.4725920000000  0.4123980000000  0.5764220000000 1.0
C      1  0.6082070000000  0.5038700000000  0.4801850000000 1.0
C      1  0.4833560000000  0.5026330000000  0.4907910000000 1.0
C      1  0.4053170000000  0.5021950000000  0.4556380000000 1.0
C      1  0.5243070000000  0.5855850000000  0.4915360000000 1.0
END
