TITL C-3578203-1966-821 5.13389971258625e-05 125000 -442.027191390616 0 0 72 (C1) n - 1
REM
REM in /home/bkarasulu/work/CARBON/AIRSS/Generating-Clusters/EDIP-Nigel-Params/with-SteepDescent/Higher-Symm/SD-CG/HFTN-CG
REM
REM
REM
REM
REM
REM ./C.cell (12c818d87b63d06a65506943cc24bca4)
REM
REM compiler GCC version 9.2.1 20190827 (Red Hat 9.2.1-1)
REM options -cpp -mtune=generic -march=x86-64 -g -O0 -fpre-include=/usr/include/finclude/math-vector-fortran.h
REM seed 1326653255 1876566737 -1464875352 -1351864005 342671618 553945581 -349318662 -352591959 -954718044 1398148591 499336822 1234159904 1185967659 157559433 1461003257 75134776 1207766375 1695959475 -1960060253 250964228 1103185743 -1385399053 -1331324125 227684730 -2034156242 1644489941 791625384 -983404158 -744223301 1000046214 1114060469 1902385627 -791549694
REM
CELL 1.54180   50.00000   50.00000   50.00000   90.00000   90.00000   90.00000
LATT -1
SFAC C  
C      1  0.5232300000000  0.4729290000000  0.5598220000000 1.0
C      1  0.5678130000000  0.4654230000000  0.5243810000000 1.0
C      1  0.5704110000000  0.4653220000000  0.4954550000000 1.0
C      1  0.5537370000000  0.4704180000000  0.4413940000000 1.0
C      1  0.5255420000000  0.4711900000000  0.4326850000000 1.0
C      1  0.4688020000000  0.4848550000000  0.4242080000000 1.0
C      1  0.4564710000000  0.4785050000000  0.4481610000000 1.0
C      1  0.4349370000000  0.4690550000000  0.4995580000000 1.0
C      1  0.4429930000000  0.4700700000000  0.5276100000000 1.0
C      1  0.4796850000000  0.4580790000000  0.5703680000000 1.0
C      1  0.4974880000000  0.4793030000000  0.5721260000000 1.0
C      1  0.4906460000000  0.5564200000000  0.5693950000000 1.0
C      1  0.5363040000000  0.5426390000000  0.5649960000000 1.0
C      1  0.5676060000000  0.5403060000000  0.5348650000000 1.0
C      1  0.5762310000000  0.5400950000000  0.4895570000000 1.0
C      1  0.5611620000000  0.5463690000000  0.4502700000000 1.0
C      1  0.5216700000000  0.5447590000000  0.4247450000000 1.0
C      1  0.4726130000000  0.5520010000000  0.4335980000000 1.0
C      1  0.4479030000000  0.5484420000000  0.4483090000000 1.0
C      1  0.4152420000000  0.5399820000000  0.4887890000000 1.0
C      1  0.4226950000000  0.5425910000000  0.5365440000000 1.0
C      1  0.4621450000000  0.5591360000000  0.5647670000000 1.0
C      1  0.4561290000000  0.5074220000000  0.5633730000000 1.0
C      1  0.4850670000000  0.5053000000000  0.5677560000000 1.0
C      1  0.5449090000000  0.4919930000000  0.5595800000000 1.0
C      1  0.5610830000000  0.4911920000000  0.5358650000000 1.0
C      1  0.5704320000000  0.4918400000000  0.4830950000000 1.0
C      1  0.5641760000000  0.4942350000000  0.4544800000000 1.0
C      1  0.5149650000000  0.4978510000000  0.4279460000000 1.0
C      1  0.4886590000000  0.5030960000000  0.4179470000000 1.0
C      1  0.4373710000000  0.4970370000000  0.4588060000000 1.0
C      1  0.4319870000000  0.4945430000000  0.4867090000000 1.0
C      1  0.4428630000000  0.4975850000000  0.5388610000000 1.0
C      1  0.4490750000000  0.5342180000000  0.5695100000000 1.0
C      1  0.4968540000000  0.5295200000000  0.5765400000000 1.0
C      1  0.5411370000000  0.5167540000000  0.5713760000000 1.0
C      1  0.5763040000000  0.5142590000000  0.5272550000000 1.0
C      1  0.5817880000000  0.5139810000000  0.4985020000000 1.0
C      1  0.5566800000000  0.5196790000000  0.4410990000000 1.0
C      1  0.5336000000000  0.5192040000000  0.4236380000000 1.0
C      1  0.4814440000000  0.5301510000000  0.4179510000000 1.0
C      1  0.4365060000000  0.5227000000000  0.4478340000000 1.0
C      1  0.4162500000000  0.5142170000000  0.5004010000000 1.0
C      1  0.4215280000000  0.5152840000000  0.5291910000000 1.0
C      1  0.5405430000000  0.4422210000000  0.4627710000000 1.0
C      1  0.5147520000000  0.4528190000000  0.4527180000000 1.0
C      1  0.4882480000000  0.4428650000000  0.4538290000000 1.0
C      1  0.4641420000000  0.4545780000000  0.4623220000000 1.0
C      1  0.4543160000000  0.4503470000000  0.4891720000000 1.0
C      1  0.4626230000000  0.4482190000000  0.5267660000000 1.0
C      1  0.4779960000000  0.4397650000000  0.5494890000000 1.0
C      1  0.5043610000000  0.4287640000000  0.5421640000000 1.0
C      1  0.5269610000000  0.4473830000000  0.5459640000000 1.0
C      1  0.5491480000000  0.4436130000000  0.5278770000000 1.0
C      1  0.5514090000000  0.4439950000000  0.4892880000000 1.0
C      1  0.4556690000000  0.5613500000000  0.4733710000000 1.0
C      1  0.4360490000000  0.5581470000000  0.4941180000000 1.0
C      1  0.4402800000000  0.5597010000000  0.5227530000000 1.0
C      1  0.4629470000000  0.5692590000000  0.5373320000000 1.0
C      1  0.5005130000000  0.5663900000000  0.5438140000000 1.0
C      1  0.5257110000000  0.5533390000000  0.5414450000000 1.0
C      1  0.5470660000000  0.5552190000000  0.5220510000000 1.0
C      1  0.5501520000000  0.5506970000000  0.4931780000000 1.0
C      1  0.5408570000000  0.5586580000000  0.4662460000000 1.0
C      1  0.5163580000000  0.5563230000000  0.4499830000000 1.0
C      1  0.4889890000000  0.5635560000000  0.4550010000000 1.0
C      1  0.5005920000000  0.4852750000000  0.5036140000000 1.0
C      1  0.5044740000000  0.4140580000000  0.5178150000000 1.0
C      1  0.5048530000000  0.4330260000000  0.4981720000000 1.0
C      1  0.5054570000000  0.4602140000000  0.4955650000000 1.0
C      1  0.4955230000000  0.5111280000000  0.5046320000000 1.0
C      1  0.4913320000000  0.5356350000000  0.4988090000000 1.0
END
