TITL C-3577080-309-628 -1.18262384073867e-06 125000 -815.755794980958 0 0 128 (C1) n - 1
REM
REM in /home/bkarasulu/work/CARBON/AIRSS/Generating-Clusters/EDIP-Nigel-Params/with-SteepDescent/Higher-Symm/SD-CG/HFTN-CG
REM
REM
REM
REM
REM
REM ./C.cell (12c818d87b63d06a65506943cc24bca4)
REM
REM compiler GCC version 9.2.1 20190827 (Red Hat 9.2.1-1)
REM options -cpp -mtune=generic -march=x86-64 -g -O0 -fpre-include=/usr/include/finclude/math-vector-fortran.h
REM seed 96838449 196444421 733338898 -163182205 171911202 1201208774 -825486174 1792107716 -882782197 904532357 -2115080157 -997729718 -1306961957 1518455213 321434790 1925905625 -949478323 2100130289 1855421517 -2139932918 1773837026 -1809551576 -1916109915 1893585804 -1183695135 1960204431 1207640342 1872465235 2040725313 -548584532 -1546124214 -1574931558 440419482
REM
CELL 1.54180   50.00000   50.00000   50.00000   90.00000   90.00000   90.00000
LATT -1
SFAC C  
C      1  0.4342050000000  0.4850880000000  0.4380300000000 1.0
C      1  0.4369090000000  0.5145330000000  0.4386260000000 1.0
C      1  0.5251250000000  0.5268910000000  0.5439450000000 1.0
C      1  0.5257780000000  0.4723910000000  0.5447330000000 1.0
C      1  0.5719970000000  0.4427050000000  0.5409930000000 1.0
C      1  0.5739690000000  0.5575000000000  0.5405810000000 1.0
C      1  0.4847450000000  0.3973940000000  0.5516160000000 1.0
C      1  0.4870270000000  0.5975860000000  0.5474800000000 1.0
C      1  0.5205610000000  0.4418840000000  0.5434480000000 1.0
C      1  0.5212790000000  0.5580820000000  0.5393940000000 1.0
C      1  0.5521600000000  0.5306800000000  0.4232090000000 1.0
C      1  0.5518450000000  0.4688550000000  0.4254260000000 1.0
C      1  0.4784530000000  0.4702040000000  0.5682790000000 1.0
C      1  0.4733620000000  0.5320660000000  0.5742570000000 1.0
C      1  0.5490350000000  0.5729850000000  0.5348880000000 1.0
C      1  0.5478650000000  0.4276290000000  0.5367790000000 1.0
C      1  0.4959690000000  0.4835120000000  0.5437510000000 1.0
C      1  0.4971050000000  0.5140060000000  0.5418400000000 1.0
C      1  0.5385860000000  0.4874330000000  0.4664810000000 1.0
C      1  0.5384750000000  0.5263870000000  0.4674400000000 1.0
C      1  0.4663330000000  0.5585110000000  0.5640810000000 1.0
C      1  0.4682170000000  0.4420060000000  0.5609290000000 1.0
C      1  0.5885530000000  0.5147490000000  0.5160570000000 1.0
C      1  0.5857580000000  0.4856660000000  0.5158030000000 1.0
C      1  0.4150020000000  0.5291990000000  0.5290180000000 1.0
C      1  0.4134870000000  0.4678100000000  0.5298260000000 1.0
C      1  0.5113670000000  0.5596440000000  0.5760960000000 1.0
C      1  0.5104260000000  0.4361190000000  0.5732500000000 1.0
C      1  0.4626510000000  0.5915160000000  0.5308690000000 1.0
C      1  0.4624750000000  0.4073100000000  0.5331980000000 1.0
C      1  0.4856270000000  0.4201900000000  0.5698440000000 1.0
C      1  0.4897060000000  0.5749750000000  0.5651140000000 1.0
C      1  0.5027520000000  0.3973780000000  0.5171040000000 1.0
C      1  0.5026050000000  0.5968900000000  0.5124550000000 1.0
C      1  0.5727890000000  0.5825610000000  0.4907690000000 1.0
C      1  0.5716220000000  0.4195810000000  0.4935600000000 1.0
C      1  0.5420770000000  0.5685230000000  0.4552120000000 1.0
C      1  0.5414450000000  0.4308630000000  0.4570430000000 1.0
C      1  0.5642210000000  0.5189420000000  0.4496170000000 1.0
C      1  0.5643250000000  0.4809520000000  0.4504930000000 1.0
C      1  0.4109240000000  0.4609650000000  0.4827880000000 1.0
C      1  0.4120910000000  0.5361140000000  0.4825900000000 1.0
C      1  0.4575150000000  0.4432400000000  0.4314150000000 1.0
C      1  0.4610690000000  0.5557140000000  0.4325460000000 1.0
C      1  0.5061760000000  0.5531680000000  0.5084610000000 1.0
C      1  0.4976450000000  0.4414950000000  0.5214600000000 1.0
C      1  0.4293960000000  0.4722360000000  0.5766430000000 1.0
C      1  0.4262890000000  0.5255100000000  0.5770780000000 1.0
C      1  0.5346380000000  0.5141660000000  0.5182440000000 1.0
C      1  0.5414830000000  0.4841040000000  0.5195810000000 1.0
C      1  0.4367540000000  0.5286730000000  0.4658560000000 1.0
C      1  0.4346770000000  0.4720460000000  0.4664320000000 1.0
C      1  0.5919740000000  0.4697450000000  0.4922760000000 1.0
C      1  0.5938720000000  0.5297230000000  0.4912600000000 1.0
C      1  0.4900750000000  0.4835960000000  0.4470630000000 1.0
C      1  0.4902930000000  0.5248460000000  0.4685160000000 1.0
C      1  0.5326880000000  0.5134660000000  0.4065820000000 1.0
C      1  0.5279690000000  0.4862080000000  0.4175930000000 1.0
C      1  0.5244740000000  0.4053990000000  0.4986840000000 1.0
C      1  0.5248170000000  0.5910760000000  0.4956750000000 1.0
C      1  0.5581450000000  0.4544890000000  0.5041200000000 1.0
C      1  0.5628860000000  0.5484060000000  0.5048560000000 1.0
C      1  0.5780900000000  0.4706370000000  0.5399310000000 1.0
C      1  0.5789490000000  0.5288000000000  0.5406080000000 1.0
C      1  0.4574330000000  0.5280590000000  0.4216010000000 1.0
C      1  0.4530020000000  0.4700610000000  0.4187420000000 1.0
C      1  0.5093090000000  0.5516800000000  0.4217630000000 1.0
C      1  0.5093960000000  0.4435990000000  0.4185650000000 1.0
C      1  0.5005090000000  0.5340260000000  0.5857240000000 1.0
C      1  0.5012610000000  0.4626560000000  0.5867600000000 1.0
C      1  0.4864760000000  0.4687090000000  0.5180540000000 1.0
C      1  0.4889450000000  0.5258480000000  0.5152800000000 1.0
C      1  0.4487140000000  0.5673630000000  0.5417190000000 1.0
C      1  0.4479630000000  0.4317580000000  0.5423840000000 1.0
C      1  0.4931830000000  0.4239890000000  0.4638220000000 1.0
C      1  0.4924640000000  0.5789140000000  0.4608020000000 1.0
C      1  0.4866210000000  0.4330850000000  0.4352430000000 1.0
C      1  0.4873620000000  0.5689510000000  0.4323920000000 1.0
C      1  0.5506840000000  0.5900450000000  0.5087950000000 1.0
C      1  0.5499130000000  0.4119540000000  0.5114480000000 1.0
C      1  0.4820620000000  0.4171170000000  0.5121190000000 1.0
C      1  0.4769470000000  0.5865360000000  0.5060460000000 1.0
C      1  0.5469740000000  0.4710870000000  0.5771600000000 1.0
C      1  0.5451130000000  0.5258210000000  0.5771460000000 1.0
C      1  0.4725490000000  0.4157190000000  0.4837240000000 1.0
C      1  0.4663260000000  0.5916170000000  0.4796210000000 1.0
C      1  0.5045580000000  0.4697030000000  0.4050510000000 1.0
C      1  0.5057230000000  0.5270970000000  0.4057720000000 1.0
C      1  0.4990830000000  0.4782190000000  0.4925350000000 1.0
C      1  0.4989490000000  0.5086310000000  0.4924040000000 1.0
C      1  0.5374620000000  0.5558050000000  0.4295850000000 1.0
C      1  0.5366200000000  0.4438350000000  0.4313290000000 1.0
C      1  0.4367710000000  0.4505980000000  0.5207840000000 1.0
C      1  0.4375150000000  0.5479640000000  0.5200880000000 1.0
C      1  0.4544280000000  0.4499310000000  0.4609340000000 1.0
C      1  0.4532130000000  0.5534800000000  0.4611000000000 1.0
C      1  0.5170760000000  0.4943900000000  0.4450090000000 1.0
C      1  0.5133770000000  0.5244880000000  0.4491890000000 1.0
C      1  0.4406320000000  0.5767830000000  0.4737350000000 1.0
C      1  0.4461710000000  0.4265750000000  0.4767950000000 1.0
C      1  0.4180560000000  0.4841670000000  0.5536710000000 1.0
C      1  0.4176200000000  0.5132370000000  0.5533470000000 1.0
C      1  0.4805960000000  0.4831500000000  0.4185150000000 1.0
C      1  0.4800880000000  0.5123960000000  0.4105420000000 1.0
C      1  0.4517780000000  0.4860100000000  0.4868610000000 1.0
C      1  0.4563210000000  0.5151430000000  0.4842510000000 1.0
C      1  0.4878460000000  0.5533120000000  0.4791410000000 1.0
C      1  0.4844300000000  0.4634020000000  0.4676730000000 1.0
C      1  0.4252870000000  0.4367860000000  0.4960520000000 1.0
C      1  0.4239070000000  0.5619830000000  0.4952660000000 1.0
C      1  0.5639310000000  0.5135600000000  0.5601210000000 1.0
C      1  0.5648750000000  0.4852020000000  0.5604750000000 1.0
C      1  0.5205320000000  0.4160760000000  0.4710080000000 1.0
C      1  0.5215210000000  0.5857590000000  0.4671820000000 1.0
C      1  0.5209140000000  0.5125840000000  0.5849170000000 1.0
C      1  0.5230030000000  0.4827360000000  0.5873030000000 1.0
C      1  0.4573980000000  0.4711530000000  0.5121110000000 1.0
C      1  0.4592830000000  0.5287830000000  0.5106070000000 1.0
C      1  0.4055500000000  0.5164510000000  0.5043570000000 1.0
C      1  0.4030490000000  0.4801370000000  0.5049790000000 1.0
C      1  0.5810870000000  0.5389730000000  0.4660320000000 1.0
C      1  0.5804210000000  0.4605470000000  0.4668790000000 1.0
C      1  0.5293720000000  0.4715410000000  0.4912720000000 1.0
C      1  0.5356230000000  0.5361110000000  0.4977390000000 1.0
C      1  0.5692740000000  0.5672080000000  0.4659950000000 1.0
C      1  0.5685140000000  0.4326350000000  0.4677690000000 1.0
C      1  0.4518780000000  0.5144530000000  0.5815910000000 1.0
C      1  0.4542850000000  0.4853960000000  0.5793330000000 1.0
END
