TITL C-3578203-1966-226 -1.09540849757999e-06 125000 -342.057030174265 0 0 57 (C3) n - 1
REM
REM in /home/bkarasulu/work/CARBON/AIRSS/Generating-Clusters/EDIP-Nigel-Params/with-SteepDescent/Higher-Symm/SD-CG/HFTN-CG
REM
REM
REM
REM
REM
REM ./C.cell (12c818d87b63d06a65506943cc24bca4)
REM
REM compiler GCC version 9.2.1 20190827 (Red Hat 9.2.1-1)
REM options -cpp -mtune=generic -march=x86-64 -g -O0 -fpre-include=/usr/include/finclude/math-vector-fortran.h
REM seed -514516275 -1383617401 -135784964 1338758747 35152434 983174061 245451431 305293595 406767692 105113310 428753133 1408948635 606287046 -1707169547 1398383045 -370720384 -1817046233 -2088427671 1230355472 -346856750 -1702666662 1758548885 1886378051 2000009512 1757215101 -1508841341 -521355230 -1941639764 -779345977 -698273148 -1441184626 -1307519918 1573412722
REM
CELL 1.54180   50.00000   50.00000   50.00000   90.00000   90.00000   90.00000
LATT -1
SFAC C  
C      1  0.4718930000000  0.4855290000000  0.5133350000000 1.0
C      1  0.4718920000000  0.4956810000000  0.4808030000000 1.0
C      1  0.4718890000000  0.5187790000000  0.5058610000000 1.0
C      1  0.4697090000000  0.4524240000000  0.4735930000000 1.0
C      1  0.4696970000000  0.5466510000000  0.4720040000000 1.0
C      1  0.4697020000000  0.5009140000000  0.5544020000000 1.0
C      1  0.5405090000000  0.5607740000000  0.4881010000000 1.0
C      1  0.5405180000000  0.4799260000000  0.5585770000000 1.0
C      1  0.5405220000000  0.4593150000000  0.4533230000000 1.0
C      1  0.4303340000000  0.4874050000000  0.4701060000000 1.0
C      1  0.4303280000000  0.5321720000000  0.5040450000000 1.0
C      1  0.4303340000000  0.4803970000000  0.5258460000000 1.0
C      1  0.5641020000000  0.4951800000000  0.5586180000000 1.0
C      1  0.5641090000000  0.4516580000000  0.4665110000000 1.0
C      1  0.5640960000000  0.5531860000000  0.4748730000000 1.0
C      1  0.5153040000000  0.5168430000000  0.4768540000000 1.0
C      1  0.5153040000000  0.5116270000000  0.5261580000000 1.0
C      1  0.5153090000000  0.4715360000000  0.4969890000000 1.0
C      1  0.5405140000000  0.4901410000000  0.4489180000000 1.0
C      1  0.5405060000000  0.5491760000000  0.5169990000000 1.0
C      1  0.5405160000000  0.4606980000000  0.5340850000000 1.0
C      1  0.4629530000000  0.5102190000000  0.4464860000000 1.0
C      1  0.4629480000000  0.5412270000000  0.5356100000000 1.0
C      1  0.4629590000000  0.4485400000000  0.5179020000000 1.0
C      1  0.5170120000000  0.4438280000000  0.4618000000000 1.0
C      1  0.5169980000000  0.5611710000000  0.4704520000000 1.0
C      1  0.5170050000000  0.4950070000000  0.5677480000000 1.0
C      1  0.5088770000000  0.4407290000000  0.4989210000000 1.0
C      1  0.5088670000000  0.5305720000000  0.4492080000000 1.0
C      1  0.5088650000000  0.5287030000000  0.5518710000000 1.0
C      1  0.5442780000000  0.4753790000000  0.5069560000000 1.0
C      1  0.5442740000000  0.5062950000000  0.4751960000000 1.0
C      1  0.5442720000000  0.5183430000000  0.5178490000000 1.0
C      1  0.4792800000000  0.5335420000000  0.4480880000000 1.0
C      1  0.4792800000000  0.5281820000000  0.5550060000000 1.0
C      1  0.4792920000000  0.4382680000000  0.4969050000000 1.0
C      1  0.4419470000000  0.4637840000000  0.4804200000000 1.0
C      1  0.4419390000000  0.5350530000000  0.4784310000000 1.0
C      1  0.4419420000000  0.5011410000000  0.5411470000000 1.0
C      1  0.5637310000000  0.5101350000000  0.5361580000000 1.0
C      1  0.5637370000000  0.4636320000000  0.4906920000000 1.0
C      1  0.5637300000000  0.5262570000000  0.4731520000000 1.0
C      1  0.4906630000000  0.4521830000000  0.4517030000000 1.0
C      1  0.4906490000000  0.5657330000000  0.4827380000000 1.0
C      1  0.4906580000000  0.4820810000000  0.5655580000000 1.0
C      1  0.5010660000000  0.4903130000000  0.4744930000000 1.0
C      1  0.5010610000000  0.5269340000000  0.5043640000000 1.0
C      1  0.5010660000000  0.4827540000000  0.5211430000000 1.0
C      1  0.5026520000000  0.4626320000000  0.5437340000000 1.0
C      1  0.5026510000000  0.4808100000000  0.4457710000000 1.0
C      1  0.5026400000000  0.5565590000000  0.5104950000000 1.0
C      1  0.5177340000000  0.5054570000000  0.4323570000000 1.0
C      1  0.5177260000000  0.5558550000000  0.5385460000000 1.0
C      1  0.5177410000000  0.4386940000000  0.5290980000000 1.0
C      1  0.4374710000000  0.5287390000000  0.5309900000000 1.0
C      1  0.4374800000000  0.4587800000000  0.5093990000000 1.0
C      1  0.4374730000000  0.5124580000000  0.4596080000000 1.0
END
