TITL C-3578195-8548-64 -3.78542731744194e-06 125000 -713.631856856861 0 0 115 (C1) n - 1
REM
REM in /home/bkarasulu/work/CARBON/AIRSS/Generating-Clusters/EDIP-Nigel-Params/with-SteepDescent/Higher-Symm/SD-CG/HFTN-CG
REM
REM
REM
REM
REM
REM ./C.cell (12c818d87b63d06a65506943cc24bca4)
REM
REM compiler GCC version 9.2.1 20190827 (Red Hat 9.2.1-1)
REM options -cpp -mtune=generic -march=x86-64 -g -O0 -fpre-include=/usr/include/finclude/math-vector-fortran.h
REM seed 1182697608 2115635605 1814056364 199775565 -576003754 708767584 2143184385 -2010289603 682214653 -1507755441 1076332833 999270373 1348214744 -955835201 1859440797 -209834012 2053098084 703091557 1619078394 -1197535412 -1644403905 -1001552894 -178417302 -996441586 1159624782 1035548272 -171513956 -1498929865 658015223 -378327134 -1747653599 2130764559 1894225445
REM
CELL 1.54180   50.00000   50.00000   50.00000   90.00000   90.00000   90.00000
LATT -1
SFAC C  
C      1  0.5712880000000  0.4285560000000  0.5202380000000 1.0
C      1  0.5199880000000  0.5176290000000  0.5292720000000 1.0
C      1  0.4734280000000  0.5677960000000  0.4454710000000 1.0
C      1  0.5339460000000  0.4695850000000  0.5185220000000 1.0
C      1  0.5224180000000  0.5608230000000  0.4411530000000 1.0
C      1  0.5621020000000  0.4693890000000  0.5294860000000 1.0
C      1  0.5168040000000  0.5355760000000  0.4842090000000 1.0
C      1  0.4506970000000  0.5619360000000  0.5220730000000 1.0
C      1  0.4894120000000  0.5203890000000  0.5362130000000 1.0
C      1  0.5254950000000  0.4957730000000  0.5065910000000 1.0
C      1  0.4767430000000  0.5568780000000  0.5372670000000 1.0
C      1  0.4719880000000  0.5393140000000  0.4582050000000 1.0
C      1  0.4730930000000  0.5176210000000  0.5097550000000 1.0
C      1  0.5384450000000  0.5869760000000  0.5094140000000 1.0
C      1  0.4807960000000  0.4963840000000  0.5946780000000 1.0
C      1  0.4505540000000  0.5682970000000  0.4941160000000 1.0
C      1  0.5834990000000  0.4790270000000  0.5092280000000 1.0
C      1  0.4618360000000  0.5421090000000  0.4043590000000 1.0
C      1  0.5347760000000  0.5183100000000  0.4241060000000 1.0
C      1  0.4615640000000  0.4587090000000  0.4445940000000 1.0
C      1  0.5291870000000  0.4419370000000  0.4338770000000 1.0
C      1  0.4242340000000  0.5326910000000  0.5559760000000 1.0
C      1  0.5920620000000  0.5140990000000  0.4733670000000 1.0
C      1  0.5626530000000  0.5117780000000  0.4331220000000 1.0
C      1  0.5384850000000  0.5679020000000  0.4641310000000 1.0
C      1  0.4097570000000  0.4766570000000  0.4909860000000 1.0
C      1  0.5606780000000  0.5723580000000  0.5190380000000 1.0
C      1  0.4750460000000  0.4865000000000  0.4401440000000 1.0
C      1  0.4097270000000  0.5085370000000  0.5506590000000 1.0
C      1  0.5067920000000  0.5664480000000  0.5329560000000 1.0
C      1  0.4895370000000  0.5227500000000  0.4391560000000 1.0
C      1  0.4419730000000  0.5191820000000  0.5180560000000 1.0
C      1  0.5270520000000  0.5078620000000  0.5866840000000 1.0
C      1  0.5014170000000  0.5194850000000  0.5942180000000 1.0
C      1  0.4576410000000  0.5007600000000  0.5764490000000 1.0
C      1  0.4844260000000  0.4491330000000  0.5726350000000 1.0
C      1  0.4368600000000  0.5193410000000  0.4399020000000 1.0
C      1  0.5698300000000  0.4460780000000  0.4694690000000 1.0
C      1  0.5231650000000  0.5788990000000  0.4865580000000 1.0
C      1  0.4484750000000  0.4814090000000  0.5571270000000 1.0
C      1  0.5439870000000  0.4646110000000  0.5728540000000 1.0
C      1  0.5074620000000  0.4518650000000  0.4520220000000 1.0
C      1  0.5187590000000  0.5314870000000  0.4469470000000 1.0
C      1  0.5685000000000  0.5500900000000  0.5005710000000 1.0
C      1  0.4674500000000  0.5493850000000  0.5790580000000 1.0
C      1  0.4996040000000  0.4131200000000  0.5404020000000 1.0
C      1  0.5030530000000  0.4845250000000  0.4906900000000 1.0
C      1  0.5233090000000  0.4108910000000  0.5232030000000 1.0
C      1  0.5789930000000  0.5196730000000  0.5370610000000 1.0
C      1  0.5059130000000  0.4819720000000  0.4443520000000 1.0
C      1  0.4992310000000  0.5758910000000  0.4382170000000 1.0
C      1  0.4719000000000  0.5849810000000  0.4859930000000 1.0
C      1  0.4348590000000  0.5483280000000  0.4786610000000 1.0
C      1  0.4186570000000  0.4709390000000  0.5189360000000 1.0
C      1  0.4715370000000  0.4176320000000  0.4703480000000 1.0
C      1  0.4484090000000  0.5161770000000  0.4130610000000 1.0
C      1  0.5448200000000  0.4291180000000  0.5328420000000 1.0
C      1  0.4756380000000  0.4150540000000  0.5232040000000 1.0
C      1  0.4306880000000  0.4439050000000  0.5180370000000 1.0
C      1  0.5270610000000  0.5445590000000  0.5140670000000 1.0
C      1  0.5367310000000  0.4382090000000  0.5609510000000 1.0
C      1  0.5419800000000  0.4653680000000  0.4206150000000 1.0
C      1  0.4665390000000  0.5717880000000  0.5621560000000 1.0
C      1  0.5885130000000  0.4494820000000  0.5094730000000 1.0
C      1  0.5035980000000  0.5951060000000  0.5225780000000 1.0
C      1  0.4552220000000  0.5649090000000  0.4224920000000 1.0
C      1  0.4948260000000  0.5404620000000  0.5752660000000 1.0
C      1  0.4895740000000  0.4465970000000  0.5049130000000 1.0
C      1  0.5423860000000  0.5070990000000  0.4836180000000 1.0
C      1  0.5053280000000  0.4876660000000  0.5470700000000 1.0
C      1  0.5425460000000  0.5220870000000  0.5668890000000 1.0
C      1  0.5585590000000  0.5640780000000  0.5461530000000 1.0
C      1  0.4633300000000  0.4391860000000  0.4885820000000 1.0
C      1  0.5555970000000  0.4832430000000  0.4420460000000 1.0
C      1  0.4488230000000  0.5280340000000  0.5716100000000 1.0
C      1  0.4977820000000  0.5936740000000  0.4931830000000 1.0
C      1  0.4348990000000  0.5467610000000  0.4487210000000 1.0
C      1  0.5370410000000  0.4173480000000  0.4769030000000 1.0
C      1  0.5416710000000  0.5511880000000  0.5648280000000 1.0
C      1  0.5736700000000  0.5283760000000  0.4564940000000 1.0
C      1  0.5137530000000  0.4543820000000  0.4829640000000 1.0
C      1  0.5657610000000  0.4783070000000  0.5577990000000 1.0
C      1  0.5667390000000  0.5081530000000  0.5593440000000 1.0
C      1  0.4559690000000  0.4375260000000  0.5321580000000 1.0
C      1  0.5754720000000  0.4726180000000  0.4612660000000 1.0
C      1  0.4623210000000  0.4561330000000  0.5541490000000 1.0
C      1  0.4302010000000  0.4934790000000  0.5360270000000 1.0
C      1  0.5191860000000  0.4820390000000  0.5749700000000 1.0
C      1  0.4182110000000  0.5016670000000  0.4505400000000 1.0
C      1  0.5458850000000  0.4241240000000  0.4489540000000 1.0
C      1  0.4489270000000  0.4587280000000  0.4712490000000 1.0
C      1  0.5328130000000  0.4916760000000  0.4592050000000 1.0
C      1  0.5070190000000  0.4603850000000  0.5317580000000 1.0
C      1  0.4544590000000  0.4862440000000  0.4788880000000 1.0
C      1  0.5613320000000  0.5280330000000  0.5171390000000 1.0
C      1  0.4888740000000  0.4027270000000  0.4887200000000 1.0
C      1  0.5140850000000  0.5605680000000  0.5632640000000 1.0
C      1  0.4264760000000  0.5508740000000  0.5335260000000 1.0
C      1  0.4813610000000  0.4368020000000  0.4475810000000 1.0
C      1  0.4265700000000  0.4984520000000  0.4781990000000 1.0
C      1  0.5744260000000  0.4930230000000  0.4834690000000 1.0
C      1  0.5066430000000  0.4386730000000  0.5545030000000 1.0
C      1  0.5150080000000  0.4121490000000  0.4955200000000 1.0
C      1  0.4756240000000  0.4905910000000  0.4984780000000 1.0
C      1  0.4944110000000  0.5038870000000  0.3998320000000 1.0
C      1  0.4190480000000  0.4519570000000  0.4761160000000 1.0
C      1  0.4686470000000  0.4937300000000  0.4116340000000 1.0
C      1  0.5493240000000  0.4414040000000  0.4908720000000 1.0
C      1  0.5574490000000  0.5470310000000  0.4728840000000 1.0
C      1  0.4896250000000  0.5325110000000  0.4094280000000 1.0
C      1  0.5191210000000  0.4923550000000  0.4156590000000 1.0
C      1  0.4961560000000  0.4703200000000  0.5907190000000 1.0
C      1  0.4266240000000  0.5238930000000  0.4931550000000 1.0
C      1  0.4856940000000  0.5356230000000  0.4864990000000 1.0
C      1  0.4204700000000  0.4301890000000  0.4950070000000 1.0
END
