TITL C-3578203-1966-725 -3.45041499662342e-06 125000 -865.362145856739 0 0 141 (C1) n - 1
REM
REM in /home/bkarasulu/work/CARBON/AIRSS/Generating-Clusters/EDIP-Nigel-Params/with-SteepDescent/Higher-Symm/SD-CG/HFTN-CG
REM
REM
REM
REM
REM
REM ./C.cell (12c818d87b63d06a65506943cc24bca4)
REM
REM compiler GCC version 9.2.1 20190827 (Red Hat 9.2.1-1)
REM options -cpp -mtune=generic -march=x86-64 -g -O0 -fpre-include=/usr/include/finclude/math-vector-fortran.h
REM seed -1480897651 343218542 -1562835610 1746442490 1358553352 423609357 -1868565173 -717626149 -1977381445 -1769132307 233841897 581883124 1722147822 -787633304 1100480612 -116831546 1305273444 403540559 -1359332080 1464270182 886212970 1412116656 129233485 258601119 1516025133 -1002647738 -556477711 1242710026 1901349720 -1616064891 -744018441 1504200937 -688895314
REM
CELL 1.54180   50.00000   50.00000   50.00000   90.00000   90.00000   90.00000
LATT -1
SFAC C  
C      1  0.5112030000000  0.4876980000000  0.4458600000000 1.0
C      1  0.5247650000000  0.5570020000000  0.5064840000000 1.0
C      1  0.5091940000000  0.4522650000000  0.5415890000000 1.0
C      1  0.4848770000000  0.5134880000000  0.4499460000000 1.0
C      1  0.4905420000000  0.4399620000000  0.5181360000000 1.0
C      1  0.4800160000000  0.5443190000000  0.5341340000000 1.0
C      1  0.4479620000000  0.5784590000000  0.5286850000000 1.0
C      1  0.4515480000000  0.4348610000000  0.5466290000000 1.0
C      1  0.4472120000000  0.4889400000000  0.4268830000000 1.0
C      1  0.5497640000000  0.4269680000000  0.5312880000000 1.0
C      1  0.5532500000000  0.5582460000000  0.5457520000000 1.0
C      1  0.5481060000000  0.5115190000000  0.4199260000000 1.0
C      1  0.5183220000000  0.4957610000000  0.5934120000000 1.0
C      1  0.5270060000000  0.4235770000000  0.4478840000000 1.0
C      1  0.5245810000000  0.5841150000000  0.4556790000000 1.0
C      1  0.4726000000000  0.5058650000000  0.5897730000000 1.0
C      1  0.4776450000000  0.5807630000000  0.4488170000000 1.0
C      1  0.4811550000000  0.4148880000000  0.4558600000000 1.0
C      1  0.4668970000000  0.4760510000000  0.5383540000000 1.0
C      1  0.4727280000000  0.4693140000000  0.4650860000000 1.0
C      1  0.4775380000000  0.5493710000000  0.5028310000000 1.0
C      1  0.5282040000000  0.5192550000000  0.5381000000000 1.0
C      1  0.5252980000000  0.5261600000000  0.4632300000000 1.0
C      1  0.5337930000000  0.4538580000000  0.5001690000000 1.0
C      1  0.4891450000000  0.4566300000000  0.4170510000000 1.0
C      1  0.4950330000000  0.5948780000000  0.5047720000000 1.0
C      1  0.4868870000000  0.4493570000000  0.5823630000000 1.0
C      1  0.5068170000000  0.5437180000000  0.4186880000000 1.0
C      1  0.5138790000000  0.4046970000000  0.5008070000000 1.0
C      1  0.5079810000000  0.5535900000000  0.5747090000000 1.0
C      1  0.4286620000000  0.5613000000000  0.5119250000000 1.0
C      1  0.4289240000000  0.4528520000000  0.5405150000000 1.0
C      1  0.4285380000000  0.4819200000000  0.4514520000000 1.0
C      1  0.5720350000000  0.4417200000000  0.5184430000000 1.0
C      1  0.5727490000000  0.5339520000000  0.5401580000000 1.0
C      1  0.5684760000000  0.5183600000000  0.4426210000000 1.0
C      1  0.5300450000000  0.4856560000000  0.4227240000000 1.0
C      1  0.5408730000000  0.5759350000000  0.5212160000000 1.0
C      1  0.5309280000000  0.4370760000000  0.5567750000000 1.0
C      1  0.4647450000000  0.5164280000000  0.4278190000000 1.0
C      1  0.4701600000000  0.4184260000000  0.5246700000000 1.0
C      1  0.4626550000000  0.5616640000000  0.5498610000000 1.0
C      1  0.4592690000000  0.4643480000000  0.4133100000000 1.0
C      1  0.4644860000000  0.5974240000000  0.5115200000000 1.0
C      1  0.4592300000000  0.4385650000000  0.5751440000000 1.0
C      1  0.5350160000000  0.5365440000000  0.4096590000000 1.0
C      1  0.5415910000000  0.4045260000000  0.5134630000000 1.0
C      1  0.5388000000000  0.5579560000000  0.5723890000000 1.0
C      1  0.5034030000000  0.5324160000000  0.5536450000000 1.0
C      1  0.5095850000000  0.4342500000000  0.4939020000000 1.0
C      1  0.5037310000000  0.5386520000000  0.4488530000000 1.0
C      1  0.4904440000000  0.4694680000000  0.5598450000000 1.0
C      1  0.4995320000000  0.5668230000000  0.4938220000000 1.0
C      1  0.4944400000000  0.4621750000000  0.4466200000000 1.0
C      1  0.5621720000000  0.5645370000000  0.4640470000000 1.0
C      1  0.5575490000000  0.4936080000000  0.5749300000000 1.0
C      1  0.5642990000000  0.4420510000000  0.4585020000000 1.0
C      1  0.4417330000000  0.4289710000000  0.4676030000000 1.0
C      1  0.4338650000000  0.5049850000000  0.5711120000000 1.0
C      1  0.4398690000000  0.5631290000000  0.4616270000000 1.0
C      1  0.5502260000000  0.5756820000000  0.4392240000000 1.0
C      1  0.5452470000000  0.5111190000000  0.5943200000000 1.0
C      1  0.5533520000000  0.4148560000000  0.4633050000000 1.0
C      1  0.4533770000000  0.4212310000000  0.4421220000000 1.0
C      1  0.4468440000000  0.4872690000000  0.5911550000000 1.0
C      1  0.4515520000000  0.5897600000000  0.4623340000000 1.0
C      1  0.5547910000000  0.5343470000000  0.4652110000000 1.0
C      1  0.5566080000000  0.5080860000000  0.5476350000000 1.0
C      1  0.5625360000000  0.4575590000000  0.4851690000000 1.0
C      1  0.4441780000000  0.4600670000000  0.4689020000000 1.0
C      1  0.4351960000000  0.4901910000000  0.5441380000000 1.0
C      1  0.4449150000000  0.5501700000000  0.4887710000000 1.0
C      1  0.5473300000000  0.4525200000000  0.4319580000000 1.0
C      1  0.5501510000000  0.5855080000000  0.4848590000000 1.0
C      1  0.5449110000000  0.4661970000000  0.5761580000000 1.0
C      1  0.4495490000000  0.5489440000000  0.4373850000000 1.0
C      1  0.4551040000000  0.4141700000000  0.4903610000000 1.0
C      1  0.4506940000000  0.5333130000000  0.5737990000000 1.0
C      1  0.5589390000000  0.5212400000000  0.4946030000000 1.0
C      1  0.5577560000000  0.4849950000000  0.5287470000000 1.0
C      1  0.5597800000000  0.4888260000000  0.4780440000000 1.0
C      1  0.4426390000000  0.4647110000000  0.4979960000000 1.0
C      1  0.4385730000000  0.5144230000000  0.5203690000000 1.0
C      1  0.4416680000000  0.5189210000000  0.4861690000000 1.0
C      1  0.4737330000000  0.3903040000000  0.4912390000000 1.0
C      1  0.4663150000000  0.5580050000000  0.4136020000000 1.0
C      1  0.4681870000000  0.5534380000000  0.5920450000000 1.0
C      1  0.5341870000000  0.6109410000000  0.4956290000000 1.0
C      1  0.5297200000000  0.4456800000000  0.4057340000000 1.0
C      1  0.5277200000000  0.4532720000000  0.5973660000000 1.0
C      1  0.5102140000000  0.6179610000000  0.4789930000000 1.0
C      1  0.5041370000000  0.4654240000000  0.6136500000000 1.0
C      1  0.5085730000000  0.4250590000000  0.4081570000000 1.0
C      1  0.4974110000000  0.3833220000000  0.4724520000000 1.0
C      1  0.4909940000000  0.5419600000000  0.6067590000000 1.0
C      1  0.4905490000000  0.5785560000000  0.4123960000000 1.0
C      1  0.6040030000000  0.5103340000000  0.5034950000000 1.0
C      1  0.5994700000000  0.4813200000000  0.5060260000000 1.0
C      1  0.6038910000000  0.5037910000000  0.4742940000000 1.0
C      1  0.4033370000000  0.4858520000000  0.5142440000000 1.0
C      1  0.3952680000000  0.5238730000000  0.5094610000000 1.0
C      1  0.3975810000000  0.5014570000000  0.4901190000000 1.0
C      1  0.5137810000000  0.5162320000000  0.4894650000000 1.0
C      1  0.5141130000000  0.4952940000000  0.5322200000000 1.0
C      1  0.5136800000000  0.4853010000000  0.4900990000000 1.0
C      1  0.4854020000000  0.4744020000000  0.4904030000000 1.0
C      1  0.4844510000000  0.4991910000000  0.5271560000000 1.0
C      1  0.4857770000000  0.5218720000000  0.4954460000000 1.0
C      1  0.5135030000000  0.6112900000000  0.4500950000000 1.0
C      1  0.5057490000000  0.4955740000000  0.6213860000000 1.0
C      1  0.5160850000000  0.4044280000000  0.4275630000000 1.0
C      1  0.4944240000000  0.3907200000000  0.4424440000000 1.0
C      1  0.4839400000000  0.5149360000000  0.6159770000000 1.0
C      1  0.4901370000000  0.6035820000000  0.4328600000000 1.0
C      1  0.5499870000000  0.5585620000000  0.4173210000000 1.0
C      1  0.5486500000000  0.5381870000000  0.5890680000000 1.0
C      1  0.5560750000000  0.4050330000000  0.4894580000000 1.0
C      1  0.4483980000000  0.4402410000000  0.4222280000000 1.0
C      1  0.4445730000000  0.4596680000000  0.5864640000000 1.0
C      1  0.4516470000000  0.6018120000000  0.4873450000000 1.0
C      1  0.4193970000000  0.4618620000000  0.5144720000000 1.0
C      1  0.4194670000000  0.5060770000000  0.4692410000000 1.0
C      1  0.4177020000000  0.5359990000000  0.5240700000000 1.0
C      1  0.5821440000000  0.5305680000000  0.5110500000000 1.0
C      1  0.5807320000000  0.4960330000000  0.4579550000000 1.0
C      1  0.5806940000000  0.4689040000000  0.5237340000000 1.0
C      1  0.5321060000000  0.5289690000000  0.5091260000000 1.0
C      1  0.5310380000000  0.4705310000000  0.5276480000000 1.0
C      1  0.5310300000000  0.4822490000000  0.4668160000000 1.0
C      1  0.4692510000000  0.4608860000000  0.5115140000000 1.0
C      1  0.4654210000000  0.5202720000000  0.5345350000000 1.0
C      1  0.4687910000000  0.5122030000000  0.4752090000000 1.0
C      1  0.4889040000000  0.3942530000000  0.5174980000000 1.0
C      1  0.4806680000000  0.5314630000000  0.4055680000000 1.0
C      1  0.4812670000000  0.5726690000000  0.5719340000000 1.0
C      1  0.5222850000000  0.6009650000000  0.5224660000000 1.0
C      1  0.5132660000000  0.4712660000000  0.4014120000000 1.0
C      1  0.5129990000000  0.4310160000000  0.5822280000000 1.0
C      1  0.5005630000000  0.5662530000000  0.4629270000000 1.0
C      1  0.5030370000000  0.4357900000000  0.4621160000000 1.0
C      1  0.4965670000000  0.4994970000000  0.5720160000000 1.0
END
