TITL C-3578206-1180-646 -1.96024778916877e-06 125000 -1258.39309540989 0 0 198 (C1) n - 1
REM
REM in /home/bkarasulu/work/CARBON/AIRSS/Generating-Clusters/EDIP-Nigel-Params/with-SteepDescent/Higher-Symm/SD-CG/HFTN-CG
REM
REM
REM
REM
REM
REM ./C.cell (12c818d87b63d06a65506943cc24bca4)
REM
REM compiler GCC version 9.2.1 20190827 (Red Hat 9.2.1-1)
REM options -cpp -mtune=generic -march=x86-64 -g -O0 -fpre-include=/usr/include/finclude/math-vector-fortran.h
REM seed 632962112 1704846695 1561113458 1603968540 -19917002 -1014657250 1304951300 -353094693 -1428961821 -70768484 605377309 1348577956 -1474754477 -1164076047 1018674705 2138869796 2030712491 1815889766 1745111874 -100515144 1270052223 243254721 -1110369995 19288082 -1674407007 1741182159 -916475235 1457067439 -561213357 1363217096 2050509059 322395732 597187370
REM
CELL 1.54180   50.00000   50.00000   50.00000   90.00000   90.00000   90.00000
LATT -1
SFAC C  
C      1  0.4619460000000  0.4708760000000  0.5368480000000 1.0
C      1  0.5028610000000  0.3879990000000  0.5204230000000 1.0
C      1  0.4595960000000  0.5464460000000  0.5933420000000 1.0
C      1  0.4800640000000  0.6000360000000  0.4427500000000 1.0
C      1  0.5247880000000  0.4455030000000  0.6013910000000 1.0
C      1  0.5369400000000  0.3934480000000  0.4823730000000 1.0
C      1  0.4635650000000  0.4950720000000  0.4255840000000 1.0
C      1  0.5526820000000  0.4833660000000  0.5014810000000 1.0
C      1  0.4214000000000  0.4891080000000  0.4788130000000 1.0
C      1  0.5111840000000  0.5430740000000  0.5703040000000 1.0
C      1  0.5719200000000  0.5216690000000  0.5354110000000 1.0
C      1  0.5061880000000  0.4602210000000  0.5034510000000 1.0
C      1  0.4918870000000  0.5898730000000  0.4187040000000 1.0
C      1  0.5267720000000  0.4164710000000  0.4167450000000 1.0
C      1  0.4285150000000  0.5138810000000  0.5691320000000 1.0
C      1  0.4947150000000  0.4144920000000  0.4642380000000 1.0
C      1  0.4011320000000  0.5359160000000  0.4540430000000 1.0
C      1  0.5278920000000  0.5294410000000  0.4161910000000 1.0
C      1  0.5431320000000  0.5809370000000  0.4275000000000 1.0
C      1  0.5092980000000  0.5324370000000  0.4411420000000 1.0
C      1  0.4296540000000  0.5603150000000  0.5580210000000 1.0
C      1  0.4768000000000  0.4780190000000  0.3865850000000 1.0
C      1  0.6095770000000  0.5243770000000  0.5299120000000 1.0
C      1  0.5997410000000  0.5002190000000  0.4741860000000 1.0
C      1  0.3978110000000  0.5472600000000  0.5039590000000 1.0
C      1  0.5383560000000  0.5984810000000  0.5380530000000 1.0
C      1  0.4424390000000  0.5106510000000  0.4676530000000 1.0
C      1  0.4463880000000  0.5680990000000  0.5791660000000 1.0
C      1  0.5276410000000  0.5562140000000  0.5455520000000 1.0
C      1  0.5596870000000  0.4317580000000  0.4551840000000 1.0
C      1  0.4437680000000  0.3964290000000  0.4678310000000 1.0
C      1  0.4711980000000  0.4026410000000  0.4812450000000 1.0
C      1  0.5359480000000  0.4914430000000  0.5479720000000 1.0
C      1  0.4628710000000  0.4269770000000  0.4987070000000 1.0
C      1  0.5850280000000  0.4832020000000  0.4486180000000 1.0
C      1  0.4301230000000  0.5973770000000  0.5239450000000 1.0
C      1  0.4389170000000  0.4523730000000  0.4103490000000 1.0
C      1  0.4402390000000  0.5488470000000  0.4235870000000 1.0
C      1  0.4585750000000  0.3959020000000  0.4220070000000 1.0
C      1  0.5645590000000  0.4941790000000  0.4015110000000 1.0
C      1  0.5285390000000  0.4310620000000  0.5395610000000 1.0
C      1  0.5599580000000  0.5977770000000  0.5191110000000 1.0
C      1  0.4401040000000  0.5623940000000  0.4506390000000 1.0
C      1  0.4391770000000  0.4713940000000  0.4972520000000 1.0
C      1  0.5654320000000  0.5120340000000  0.4422720000000 1.0
C      1  0.5330160000000  0.3798700000000  0.5107810000000 1.0
C      1  0.4019000000000  0.5036870000000  0.5211870000000 1.0
C      1  0.4592920000000  0.5007950000000  0.3969900000000 1.0
C      1  0.6082290000000  0.4854530000000  0.4986770000000 1.0
C      1  0.5487220000000  0.5152220000000  0.4649290000000 1.0
C      1  0.4642620000000  0.4880080000000  0.5101590000000 1.0
C      1  0.4412280000000  0.5457170000000  0.5023130000000 1.0
C      1  0.4497470000000  0.6015240000000  0.4827760000000 1.0
C      1  0.5471940000000  0.5068470000000  0.4205660000000 1.0
C      1  0.5861220000000  0.4238840000000  0.5417490000000 1.0
C      1  0.5510670000000  0.4299160000000  0.4275240000000 1.0
C      1  0.4862060000000  0.5505070000000  0.6056390000000 1.0
C      1  0.5348940000000  0.4906150000000  0.4752990000000 1.0
C      1  0.4169360000000  0.5357600000000  0.5539600000000 1.0
C      1  0.5014490000000  0.4941940000000  0.5885430000000 1.0
C      1  0.4091480000000  0.4724340000000  0.4553980000000 1.0
C      1  0.4566680000000  0.5937290000000  0.5758270000000 1.0
C      1  0.4695880000000  0.6046280000000  0.5534170000000 1.0
C      1  0.5609830000000  0.4099100000000  0.4752030000000 1.0
C      1  0.4704190000000  0.5273250000000  0.3898020000000 1.0
C      1  0.4779040000000  0.5059870000000  0.6232870000000 1.0
C      1  0.4240400000000  0.4071490000000  0.4883610000000 1.0
C      1  0.5082950000000  0.5629280000000  0.5206220000000 1.0
C      1  0.4208960000000  0.4860550000000  0.5640580000000 1.0
C      1  0.5406170000000  0.4095470000000  0.5584010000000 1.0
C      1  0.4848870000000  0.5264500000000  0.5159800000000 1.0
C      1  0.4380180000000  0.5019390000000  0.4398050000000 1.0
C      1  0.5194910000000  0.5903250000000  0.4158940000000 1.0
C      1  0.6002320000000  0.4573240000000  0.5020050000000 1.0
C      1  0.5855020000000  0.5352380000000  0.5846300000000 1.0
C      1  0.4240700000000  0.5950330000000  0.4959450000000 1.0
C      1  0.5294140000000  0.5249850000000  0.5147730000000 1.0
C      1  0.5294150000000  0.4470080000000  0.4842330000000 1.0
C      1  0.5620700000000  0.5501230000000  0.5435980000000 1.0
C      1  0.5300140000000  0.5769520000000  0.5008090000000 1.0
C      1  0.4194890000000  0.4758250000000  0.4064000000000 1.0
C      1  0.4571600000000  0.4703830000000  0.5940340000000 1.0
C      1  0.5513760000000  0.3912390000000  0.5325870000000 1.0
C      1  0.4400430000000  0.4063340000000  0.4396440000000 1.0
C      1  0.3913240000000  0.5281570000000  0.4814530000000 1.0
C      1  0.5721200000000  0.4090320000000  0.5207390000000 1.0
C      1  0.5602680000000  0.4275000000000  0.4993540000000 1.0
C      1  0.4652850000000  0.4518290000000  0.3952720000000 1.0
C      1  0.4834070000000  0.4050450000000  0.4143750000000 1.0
C      1  0.4604820000000  0.5377080000000  0.5505330000000 1.0
C      1  0.5197040000000  0.5126500000000  0.6049990000000 1.0
C      1  0.4454110000000  0.4457640000000  0.4826780000000 1.0
C      1  0.4224740000000  0.5245940000000  0.4244240000000 1.0
C      1  0.4665180000000  0.4247400000000  0.5602340000000 1.0
C      1  0.4746010000000  0.5637190000000  0.5375420000000 1.0
C      1  0.5409030000000  0.5875140000000  0.5645370000000 1.0
C      1  0.4702230000000  0.3963850000000  0.5494760000000 1.0
C      1  0.5900770000000  0.4687880000000  0.5707580000000 1.0
C      1  0.5257760000000  0.4633450000000  0.4006910000000 1.0
C      1  0.4953040000000  0.5942040000000  0.5483230000000 1.0
C      1  0.5126790000000  0.5142020000000  0.3938130000000 1.0
C      1  0.4775640000000  0.3828420000000  0.5039770000000 1.0
C      1  0.5477150000000  0.4592880000000  0.4225220000000 1.0
C      1  0.5933100000000  0.5302940000000  0.4811610000000 1.0
C      1  0.4548600000000  0.5232930000000  0.5198200000000 1.0
C      1  0.5597120000000  0.5608290000000  0.4944700000000 1.0
C      1  0.4556320000000  0.5706900000000  0.5138960000000 1.0
C      1  0.6065680000000  0.4960780000000  0.5258390000000 1.0
C      1  0.5071290000000  0.5265800000000  0.4948020000000 1.0
C      1  0.5126780000000  0.4269070000000  0.5805600000000 1.0
C      1  0.6060320000000  0.4735800000000  0.5461430000000 1.0
C      1  0.3978080000000  0.5012110000000  0.4924560000000 1.0
C      1  0.5517090000000  0.5537770000000  0.4194420000000 1.0
C      1  0.5407770000000  0.6124650000000  0.4708890000000 1.0
C      1  0.5307480000000  0.4644580000000  0.4567740000000 1.0
C      1  0.4552380000000  0.5900640000000  0.4556740000000 1.0
C      1  0.5022760000000  0.4634550000000  0.6090510000000 1.0
C      1  0.5139640000000  0.4362000000000  0.3986270000000 1.0
C      1  0.5726250000000  0.5569590000000  0.5711660000000 1.0
C      1  0.4076660000000  0.5309800000000  0.5270120000000 1.0
C      1  0.5061180000000  0.5009830000000  0.4791810000000 1.0
C      1  0.5095720000000  0.4173190000000  0.5150600000000 1.0
C      1  0.5062240000000  0.5473850000000  0.4687800000000 1.0
C      1  0.4685670000000  0.6148810000000  0.5025780000000 1.0
C      1  0.4119940000000  0.4433250000000  0.4536900000000 1.0
C      1  0.5039340000000  0.4857630000000  0.4017170000000 1.0
C      1  0.4119560000000  0.5624980000000  0.4590940000000 1.0
C      1  0.4570260000000  0.4497420000000  0.4560380000000 1.0
C      1  0.4855870000000  0.4313920000000  0.4018880000000 1.0
C      1  0.4600790000000  0.4977930000000  0.6034030000000 1.0
C      1  0.5424150000000  0.4637310000000  0.5860320000000 1.0
C      1  0.5751150000000  0.4733160000000  0.4186260000000 1.0
C      1  0.5515300000000  0.5518640000000  0.5943300000000 1.0
C      1  0.5025250000000  0.4634320000000  0.4468090000000 1.0
C      1  0.4823510000000  0.4267480000000  0.5857880000000 1.0
C      1  0.5631270000000  0.5299710000000  0.4862700000000 1.0
C      1  0.4951340000000  0.6198180000000  0.4549150000000 1.0
C      1  0.4771380000000  0.5725560000000  0.4036850000000 1.0
C      1  0.4875120000000  0.4376870000000  0.5150100000000 1.0
C      1  0.4866140000000  0.5209920000000  0.5666850000000 1.0
C      1  0.5207200000000  0.5139040000000  0.5391830000000 1.0
C      1  0.5915510000000  0.4880780000000  0.5918590000000 1.0
C      1  0.5329790000000  0.5761010000000  0.5903660000000 1.0
C      1  0.4772250000000  0.4510030000000  0.6020320000000 1.0
C      1  0.4402100000000  0.4129890000000  0.5146800000000 1.0
C      1  0.5748430000000  0.5399920000000  0.4345490000000 1.0
C      1  0.5087100000000  0.4482340000000  0.5570550000000 1.0
C      1  0.4891730000000  0.4815120000000  0.4935020000000 1.0
C      1  0.5508090000000  0.4502160000000  0.5360800000000 1.0
C      1  0.4104220000000  0.4311040000000  0.4798400000000 1.0
C      1  0.5182490000000  0.4177310000000  0.4846000000000 1.0
C      1  0.4989530000000  0.6085820000000  0.5014970000000 1.0
C      1  0.4981790000000  0.5076400000000  0.4506520000000 1.0
C      1  0.4485470000000  0.5196540000000  0.5891130000000 1.0
C      1  0.4852460000000  0.4421590000000  0.4554900000000 1.0
C      1  0.5632690000000  0.4532240000000  0.5662300000000 1.0
C      1  0.5546120000000  0.6114360000000  0.4953440000000 1.0
C      1  0.5738700000000  0.4570680000000  0.4625050000000 1.0
C      1  0.5563480000000  0.5141040000000  0.5102160000000 1.0
C      1  0.4380870000000  0.4635840000000  0.5734210000000 1.0
C      1  0.4803090000000  0.4466030000000  0.5427860000000 1.0
C      1  0.6007800000000  0.5431790000000  0.5095660000000 1.0
C      1  0.4513340000000  0.5409190000000  0.4730560000000 1.0
C      1  0.4921450000000  0.4869490000000  0.4314730000000 1.0
C      1  0.5889230000000  0.5525590000000  0.4576760000000 1.0
C      1  0.4564390000000  0.3896150000000  0.5246520000000 1.0
C      1  0.4105480000000  0.4805860000000  0.5376290000000 1.0
C      1  0.5123660000000  0.6201960000000  0.4767530000000 1.0
C      1  0.4784510000000  0.5562070000000  0.4727540000000 1.0
C      1  0.4952390000000  0.5282570000000  0.3773900000000 1.0
C      1  0.5750140000000  0.5086360000000  0.5823570000000 1.0
C      1  0.5673400000000  0.4229880000000  0.5671130000000 1.0
C      1  0.4368280000000  0.4366960000000  0.4379930000000 1.0
C      1  0.5994620000000  0.4498970000000  0.5306930000000 1.0
C      1  0.5455660000000  0.5848850000000  0.4574150000000 1.0
C      1  0.4931020000000  0.5107480000000  0.5392970000000 1.0
C      1  0.5039310000000  0.5717710000000  0.5949740000000 1.0
C      1  0.4382970000000  0.4353840000000  0.5617280000000 1.0
C      1  0.5727050000000  0.4560110000000  0.4917080000000 1.0
C      1  0.5329990000000  0.5300480000000  0.5855890000000 1.0
C      1  0.5228860000000  0.5717050000000  0.4723050000000 1.0
C      1  0.5780080000000  0.5634100000000  0.5192810000000 1.0
C      1  0.4051770000000  0.4839640000000  0.4298550000000 1.0
C      1  0.4273990000000  0.4333230000000  0.5340490000000 1.0
C      1  0.5367370000000  0.4725730000000  0.5243250000000 1.0
C      1  0.4634080000000  0.5491840000000  0.4067240000000 1.0
C      1  0.4813210000000  0.5737950000000  0.4966670000000 1.0
C      1  0.5717390000000  0.5739000000000  0.4699800000000 1.0
C      1  0.5120010000000  0.6060670000000  0.5288910000000 1.0
C      1  0.4964150000000  0.3855460000000  0.5488140000000 1.0
C      1  0.4316700000000  0.4626030000000  0.5269280000000 1.0
C      1  0.4126640000000  0.5683770000000  0.4879870000000 1.0
C      1  0.4544300000000  0.6120910000000  0.5290110000000 1.0
C      1  0.4974110000000  0.5261570000000  0.6193060000000 1.0
C      1  0.4291910000000  0.5024180000000  0.3973760000000 1.0
C      1  0.5066690000000  0.3999450000000  0.4312170000000 1.0
C      1  0.5641560000000  0.5014160000000  0.5555350000000 1.0
C      1  0.5208400000000  0.4762100000000  0.5693290000000 1.0
END
