TITL C-3577089-586-454 -1.27513583306529e-05 125000 -668.804596737152 0 0 109 (C1) n - 1
REM
REM in /home/bkarasulu/work/CARBON/AIRSS/Generating-Clusters/EDIP-Nigel-Params/with-SteepDescent/Higher-Symm/SD-CG/HFTN-CG
REM
REM
REM
REM
REM
REM ./C.cell (12c818d87b63d06a65506943cc24bca4)
REM
REM compiler GCC version 9.2.1 20190827 (Red Hat 9.2.1-1)
REM options -cpp -mtune=generic -march=x86-64 -g -O0 -fpre-include=/usr/include/finclude/math-vector-fortran.h
REM seed -1495695547 668049037 2039253983 -243317360 1440881688 -1276594380 198725383 920775379 -1817462574 -1261537923 1030810164 -109331877 328720873 1983277590 -1620511892 -1865615109 968204800 1432197816 1856845322 -1733920847 1692679857 1004645754 -1932295042 799783236 1624845407 1349595279 1561331875 1347238407 545897351 481568867 -164309213 -2004420920 39035220
REM
CELL 1.54180   50.00000   50.00000   50.00000   90.00000   90.00000   90.00000
LATT -1
SFAC C  
C      1  0.5163450000000  0.5749320000000  0.5329730000000 1.0
C      1  0.5547300000000  0.4473770000000  0.5329140000000 1.0
C      1  0.4256590000000  0.4765500000000  0.5316720000000 1.0
C      1  0.4883620000000  0.5474530000000  0.5015190000000 1.0
C      1  0.5455630000000  0.4863370000000  0.5017900000000 1.0
C      1  0.4638190000000  0.4660490000000  0.5003160000000 1.0
C      1  0.5280820000000  0.5556560000000  0.4430510000000 1.0
C      1  0.5329670000000  0.4475160000000  0.4417730000000 1.0
C      1  0.4369220000000  0.4974280000000  0.4425170000000 1.0
C      1  0.4344360000000  0.4333730000000  0.5281840000000 1.0
C      1  0.4744080000000  0.5884650000000  0.5305170000000 1.0
C      1  0.5872030000000  0.4772430000000  0.5297710000000 1.0
C      1  0.4812990000000  0.5221150000000  0.4896890000000 1.0
C      1  0.5270740000000  0.5049010000000  0.4897830000000 1.0
C      1  0.4892720000000  0.4735360000000  0.4891150000000 1.0
C      1  0.5416220000000  0.5276240000000  0.4436940000000 1.0
C      1  0.5020100000000  0.4496360000000  0.4431600000000 1.0
C      1  0.4543100000000  0.5232210000000  0.4438700000000 1.0
C      1  0.5764700000000  0.5254690000000  0.5118980000000 1.0
C      1  0.4823500000000  0.4205700000000  0.5124350000000 1.0
C      1  0.4399340000000  0.5535280000000  0.5140780000000 1.0
C      1  0.5137020000000  0.4070990000000  0.4659140000000 1.0
C      1  0.4117020000000  0.5351400000000  0.4662340000000 1.0
C      1  0.5738680000000  0.5580770000000  0.4649960000000 1.0
C      1  0.4774930000000  0.5252930000000  0.6029920000000 1.0
C      1  0.5461580000000  0.5156570000000  0.5947440000000 1.0
C      1  0.4764200000000  0.4759840000000  0.6106790000000 1.0
C      1  0.4927190000000  0.4728380000000  0.4604530000000 1.0
C      1  0.4791290000000  0.5196050000000  0.4609430000000 1.0
C      1  0.5263480000000  0.5078420000000  0.4609170000000 1.0
C      1  0.5743700000000  0.5143890000000  0.4832990000000 1.0
C      1  0.4745110000000  0.4267930000000  0.4830550000000 1.0
C      1  0.4488660000000  0.5579060000000  0.4845200000000 1.0
C      1  0.4523030000000  0.4829200000000  0.5196330000000 1.0
C      1  0.5077090000000  0.5482550000000  0.5221960000000 1.0
C      1  0.5357120000000  0.4669290000000  0.5198470000000 1.0
C      1  0.5317970000000  0.4153790000000  0.5118480000000 1.0
C      1  0.4105570000000  0.5133010000000  0.5111130000000 1.0
C      1  0.5565920000000  0.5713720000000  0.5098470000000 1.0
C      1  0.4932590000000  0.5417290000000  0.4099630000000 1.0
C      1  0.5379820000000  0.4852640000000  0.4093370000000 1.0
C      1  0.4665950000000  0.4747750000000  0.4091400000000 1.0
C      1  0.5286750000000  0.4024670000000  0.4876170000000 1.0
C      1  0.4004420000000  0.5239620000000  0.4877530000000 1.0
C      1  0.5692490000000  0.5745880000000  0.4855370000000 1.0
C      1  0.5386880000000  0.5151780000000  0.4138780000000 1.0
C      1  0.4922510000000  0.4591320000000  0.4133260000000 1.0
C      1  0.4669300000000  0.5273380000000  0.4140540000000 1.0
C      1  0.4454280000000  0.4325190000000  0.4785040000000 1.0
C      1  0.4681270000000  0.5803690000000  0.4803330000000 1.0
C      1  0.5837510000000  0.4861340000000  0.4798170000000 1.0
C      1  0.4924360000000  0.4236810000000  0.4588220000000 1.0
C      1  0.4370760000000  0.5446560000000  0.4597670000000 1.0
C      1  0.5691120000000  0.5313390000000  0.4587020000000 1.0
C      1  0.4300780000000  0.5287100000000  0.5262470000000 1.0
C      1  0.5597050000000  0.5463950000000  0.5240160000000 1.0
C      1  0.5081440000000  0.4243360000000  0.5260060000000 1.0
C      1  0.4381440000000  0.4421880000000  0.5655580000000 1.0
C      1  0.4814920000000  0.5787410000000  0.5671430000000 1.0
C      1  0.5769700000000  0.4790060000000  0.5670420000000 1.0
C      1  0.5124100000000  0.5687990000000  0.4639570000000 1.0
C      1  0.5524760000000  0.4532630000000  0.4626640000000 1.0
C      1  0.4333690000000  0.4767400000000  0.4628770000000 1.0
C      1  0.4614270000000  0.4247090000000  0.5323330000000 1.0
C      1  0.4527020000000  0.5701920000000  0.5346960000000 1.0
C      1  0.5832180000000  0.5056150000000  0.5323020000000 1.0
C      1  0.5026880000000  0.5604070000000  0.5761760000000 1.0
C      1  0.5490930000000  0.4723500000000  0.5724570000000 1.0
C      1  0.4440230000000  0.4689790000000  0.5756160000000 1.0
C      1  0.5273190000000  0.5648730000000  0.5591300000000 1.0
C      1  0.5396720000000  0.4469730000000  0.5594920000000 1.0
C      1  0.4310400000000  0.4901130000000  0.5583610000000 1.0
C      1  0.5125820000000  0.4735260000000  0.5364420000000 1.0
C      1  0.4692680000000  0.4990030000000  0.5368310000000 1.0
C      1  0.5134890000000  0.5247480000000  0.5392290000000 1.0
C      1  0.5363900000000  0.5886070000000  0.5182310000000 1.0
C      1  0.5570580000000  0.4214700000000  0.5217380000000 1.0
C      1  0.4028990000000  0.4877590000000  0.5191820000000 1.0
C      1  0.4906440000000  0.5318200000000  0.5763530000000 1.0
C      1  0.5329780000000  0.4919730000000  0.5876840000000 1.0
C      1  0.4742110000000  0.4702950000000  0.5816480000000 1.0
C      1  0.5098470000000  0.4454270000000  0.5497150000000 1.0
C      1  0.4469100000000  0.5155800000000  0.5494870000000 1.0
C      1  0.5419920000000  0.5393410000000  0.5491080000000 1.0
C      1  0.4585670000000  0.5353930000000  0.5708480000000 1.0
C      1  0.5576490000000  0.5247280000000  0.5707440000000 1.0
C      1  0.4868970000000  0.4446370000000  0.5706920000000 1.0
C      1  0.4639620000000  0.4284030000000  0.5611210000000 1.0
C      1  0.4561870000000  0.5642130000000  0.5629960000000 1.0
C      1  0.5797540000000  0.5078630000000  0.5610430000000 1.0
C      1  0.4858510000000  0.5778610000000  0.4577390000000 1.0
C      1  0.5734780000000  0.4719600000000  0.4570320000000 1.0
C      1  0.4391020000000  0.4494030000000  0.4560290000000 1.0
C      1  0.4846260000000  0.5854720000000  0.5039550000000 1.0
C      1  0.5797740000000  0.4691880000000  0.5034740000000 1.0
C      1  0.4323080000000  0.4443090000000  0.5019420000000 1.0
C      1  0.5520440000000  0.4651130000000  0.4255200000000 1.0
C      1  0.4420150000000  0.4725210000000  0.4251760000000 1.0
C      1  0.5036370000000  0.5638690000000  0.4263520000000 1.0
C      1  0.5145460000000  0.5250530000000  0.3959090000000 1.0
C      1  0.5127850000000  0.4753140000000  0.3953410000000 1.0
C      1  0.4705450000000  0.5017880000000  0.3955910000000 1.0
C      1  0.4992500000000  0.5003810000000  0.4228810000000 1.0
C      1  0.4993040000000  0.5008590000000  0.3817270000000 1.0
C      1  0.4901870000000  0.5006390000000  0.6089730000000 1.0
C      1  0.4993840000000  0.5001790000000  0.4520730000000 1.0
C      1  0.5041120000000  0.4960010000000  0.5833480000000 1.0
C      1  0.4990810000000  0.5001170000000  0.4993160000000 1.0
C      1  0.4986560000000  0.4996180000000  0.5295510000000 1.0
END
