TITL C-3577086-586-354 -3.14159157233172e-06 125000 -609.131325986805 0 0 99 (C1) n - 1
REM
REM in /home/bkarasulu/work/CARBON/AIRSS/Generating-Clusters/EDIP-Nigel-Params/with-SteepDescent/Higher-Symm/SD-CG/HFTN-CG
REM
REM
REM
REM
REM
REM ./C.cell (12c818d87b63d06a65506943cc24bca4)
REM
REM compiler GCC version 9.2.1 20190827 (Red Hat 9.2.1-1)
REM options -cpp -mtune=generic -march=x86-64 -g -O0 -fpre-include=/usr/include/finclude/math-vector-fortran.h
REM seed -2089462573 2043320205 24265608 39200334 79148083 -437899596 317697398 -1018540103 -1237406077 -569442830 -1856080362 -1232780407 348799711 -2077929103 494024711 -1842049782 367404659 -1336631456 -1340043372 1477744880 -1113693633 -644617875 76787840 -1727138227 1273148082 271190423 -1215602917 -1492040307 239290143 -1872070678 934861754 -1730083646 -1744591734
REM
CELL 1.54180   50.00000   50.00000   50.00000   90.00000   90.00000   90.00000
LATT -1
SFAC C  
C      1  0.5507770000000  0.5243250000000  0.5150170000000 1.0
C      1  0.4483390000000  0.5237390000000  0.4855460000000 1.0
C      1  0.5521740000000  0.4762020000000  0.5157790000000 1.0
C      1  0.4483040000000  0.4755050000000  0.4846780000000 1.0
C      1  0.4484380000000  0.5239140000000  0.5156270000000 1.0
C      1  0.5518010000000  0.5238340000000  0.4850600000000 1.0
C      1  0.4476960000000  0.4762210000000  0.5158800000000 1.0
C      1  0.5520630000000  0.4755910000000  0.4845760000000 1.0
C      1  0.5322800000000  0.5547180000000  0.4461880000000 1.0
C      1  0.4682070000000  0.5551430000000  0.5548360000000 1.0
C      1  0.5323000000000  0.4443690000000  0.4454150000000 1.0
C      1  0.4680280000000  0.4446090000000  0.5550080000000 1.0
C      1  0.4684520000000  0.5546720000000  0.4467490000000 1.0
C      1  0.5318610000000  0.5550560000000  0.5544100000000 1.0
C      1  0.4681500000000  0.4444090000000  0.4456060000000 1.0
C      1  0.5320190000000  0.4446550000000  0.5548610000000 1.0
C      1  0.5161550000000  0.4709730000000  0.5540670000000 1.0
C      1  0.4842140000000  0.4705950000000  0.4464940000000 1.0
C      1  0.5155880000000  0.5291180000000  0.5537820000000 1.0
C      1  0.4848690000000  0.5288480000000  0.4475070000000 1.0
C      1  0.4837960000000  0.4709630000000  0.5542190000000 1.0
C      1  0.5162170000000  0.4705570000000  0.4461540000000 1.0
C      1  0.4843240000000  0.5291670000000  0.5540440000000 1.0
C      1  0.5160180000000  0.5287970000000  0.4469010000000 1.0
C      1  0.5523090000000  0.5150880000000  0.5886650000000 1.0
C      1  0.4479470000000  0.5151630000000  0.4125110000000 1.0
C      1  0.5524040000000  0.4846960000000  0.5892250000000 1.0
C      1  0.4478130000000  0.4847700000000  0.4116090000000 1.0
C      1  0.4477480000000  0.5150420000000  0.5888940000000 1.0
C      1  0.5525370000000  0.5149230000000  0.4119580000000 1.0
C      1  0.4476330000000  0.4846660000000  0.5893260000000 1.0
C      1  0.5526200000000  0.4845410000000  0.4112870000000 1.0
C      1  0.5142830000000  0.5880480000000  0.4550760000000 1.0
C      1  0.4861490000000  0.5884800000000  0.5459310000000 1.0
C      1  0.5142090000000  0.4112420000000  0.4545340000000 1.0
C      1  0.4860860000000  0.4114440000000  0.5460150000000 1.0
C      1  0.4862850000000  0.5881480000000  0.4553760000000 1.0
C      1  0.5141650000000  0.5885490000000  0.5457130000000 1.0
C      1  0.4861650000000  0.4112140000000  0.4545980000000 1.0
C      1  0.5141260000000  0.4114090000000  0.5459100000000 1.0
C      1  0.4328610000000  0.5190660000000  0.5648850000000 1.0
C      1  0.5675310000000  0.5188880000000  0.4359410000000 1.0
C      1  0.4324940000000  0.4802020000000  0.5654680000000 1.0
C      1  0.5677970000000  0.4800420000000  0.4351210000000 1.0
C      1  0.5672240000000  0.5190520000000  0.5646640000000 1.0
C      1  0.4330210000000  0.5188860000000  0.4365360000000 1.0
C      1  0.5675830000000  0.4801910000000  0.5654090000000 1.0
C      1  0.4326390000000  0.4800520000000  0.4353810000000 1.0
C      1  0.5534620000000  0.4275460000000  0.4850300000000 1.0
C      1  0.4469690000000  0.4275250000000  0.5152550000000 1.0
C      1  0.5535130000000  0.5725230000000  0.4851140000000 1.0
C      1  0.4470110000000  0.5725650000000  0.5155150000000 1.0
C      1  0.4469040000000  0.4274300000000  0.4851190000000 1.0
C      1  0.5532440000000  0.4275610000000  0.5151640000000 1.0
C      1  0.4470280000000  0.5723740000000  0.4854690000000 1.0
C      1  0.5532990000000  0.5727140000000  0.5152130000000 1.0
C      1  0.5613360000000  0.5458290000000  0.5544760000000 1.0
C      1  0.4389800000000  0.5455520000000  0.4467760000000 1.0
C      1  0.5617510000000  0.4534170000000  0.5549920000000 1.0
C      1  0.4384170000000  0.4532610000000  0.4456390000000 1.0
C      1  0.4387280000000  0.5458910000000  0.5547540000000 1.0
C      1  0.5617900000000  0.5456500000000  0.4461680000000 1.0
C      1  0.4382860000000  0.4533890000000  0.5550420000000 1.0
C      1  0.5620480000000  0.4532870000000  0.4455460000000 1.0
C      1  0.5674590000000  0.4513820000000  0.4740980000000 1.0
C      1  0.4333100000000  0.4515760000000  0.5263360000000 1.0
C      1  0.5669760000000  0.5482050000000  0.4745630000000 1.0
C      1  0.4337130000000  0.5481680000000  0.5262400000000 1.0
C      1  0.4330080000000  0.4512660000000  0.4741450000000 1.0
C      1  0.5666940000000  0.4516730000000  0.5263040000000 1.0
C      1  0.4333650000000  0.5481850000000  0.4750010000000 1.0
C      1  0.5660970000000  0.5480530000000  0.5259220000000 1.0
C      1  0.4781140000000  0.4841030000000  0.4197380000000 1.0
C      1  0.5221080000000  0.4841460000000  0.5810600000000 1.0
C      1  0.4781430000000  0.5152500000000  0.4206770000000 1.0
C      1  0.5221330000000  0.5153340000000  0.5805260000000 1.0
C      1  0.5222910000000  0.4839500000000  0.4192910000000 1.0
C      1  0.4779310000000  0.4840940000000  0.5812440000000 1.0
C      1  0.5223430000000  0.5151650000000  0.4200130000000 1.0
C      1  0.4779260000000  0.5153260000000  0.5807880000000 1.0
C      1  0.4762180000000  0.5148490000000  0.5266650000000 1.0
C      1  0.5239290000000  0.5143790000000  0.4735740000000 1.0
C      1  0.4725840000000  0.4858490000000  0.5302770000000 1.0
C      1  0.5269070000000  0.4852320000000  0.4703120000000 1.0
C      1  0.5231340000000  0.5147970000000  0.5262570000000 1.0
C      1  0.4772390000000  0.5143830000000  0.4750670000000 1.0
C      1  0.5271590000000  0.4858210000000  0.5299940000000 1.0
C      1  0.4737820000000  0.4851330000000  0.4709430000000 1.0
C      1  0.4727900000000  0.4298330000000  0.5287310000000 1.0
C      1  0.5275580000000  0.4297010000000  0.4716990000000 1.0
C      1  0.4728650000000  0.5700300000000  0.5287860000000 1.0
C      1  0.5276300000000  0.5696070000000  0.4721520000000 1.0
C      1  0.5273710000000  0.4298110000000  0.5285680000000 1.0
C      1  0.4728370000000  0.4296190000000  0.4718550000000 1.0
C      1  0.5273220000000  0.5701510000000  0.5283520000000 1.0
C      1  0.4730620000000  0.5697520000000  0.4726410000000 1.0
C      1  0.5691620000000  0.4997920000000  0.4894430000000 1.0
C      1  0.4309920000000  0.4995990000000  0.4891720000000 1.0
C      1  0.4986260000000  0.5191630000000  0.5031390000000 1.0
END
