TITL C-3577085-527-57 -1.54429773317469e-06 125000 -313.902758332334 0 0 53 (C3) n - 1
REM
REM in /home/bkarasulu/work/CARBON/AIRSS/Generating-Clusters/EDIP-Nigel-Params/with-SteepDescent/Higher-Symm/SD-CG/HFTN-CG
REM
REM
REM
REM
REM
REM ./C.cell (12c818d87b63d06a65506943cc24bca4)
REM
REM compiler GCC version 9.2.1 20190827 (Red Hat 9.2.1-1)
REM options -cpp -mtune=generic -march=x86-64 -g -O0 -fpre-include=/usr/include/finclude/math-vector-fortran.h
REM seed -2007182013 1984546935 -514018280 -632452689 435996834 1939824812 -1112730957 -13047826 -829284945 237453426 -299929513 -948612607 -614957002 -1578115151 46902704 -836477728 1684513498 -1251816271 1263776616 1870224072 -1258874520 -1474141040 717410352 344428233 1130925196 587294198 2015441263 -1252764577 717171563 -1450134279 1402897530 960241670 -166275737
REM
CELL 1.54180   50.00000   50.00000   50.00000   90.00000   90.00000   90.00000
LATT -1
SFAC C  
C      1  0.5427480000000  0.5595970000000  0.4779060000000 1.0
C      1  0.5431310000000  0.4501740000000  0.4611140000000 1.0
C      1  0.5430510000000  0.4903430000000  0.5642730000000 1.0
C      1  0.5151840000000  0.5291200000000  0.5667660000000 1.0
C      1  0.5150590000000  0.5422020000000  0.4430170000000 1.0
C      1  0.5155000000000  0.4284920000000  0.4935620000000 1.0
C      1  0.4676650000000  0.5645140000000  0.4781770000000 1.0
C      1  0.4680720000000  0.4475040000000  0.4565560000000 1.0
C      1  0.4679990000000  0.4872850000000  0.5687010000000 1.0
C      1  0.4868730000000  0.5387440000000  0.5590540000000 1.0
C      1  0.4868270000000  0.5305430000000  0.4384770000000 1.0
C      1  0.4872300000000  0.4302220000000  0.5058680000000 1.0
C      1  0.5548340000000  0.5231130000000  0.4764230000000 1.0
C      1  0.5550460000000  0.4672020000000  0.4934770000000 1.0
C      1  0.5549170000000  0.5099270000000  0.5333710000000 1.0
C      1  0.5273580000000  0.4548670000000  0.5021010000000 1.0
C      1  0.5271350000000  0.5233990000000  0.5396810000000 1.0
C      1  0.5270920000000  0.5216780000000  0.4615400000000 1.0
C      1  0.5074320000000  0.4833700000000  0.4503360000000 1.0
C      1  0.5075580000000  0.4642000000000  0.5408360000000 1.0
C      1  0.5072230000000  0.5521600000000  0.5121880000000 1.0
C      1  0.5050760000000  0.5210530000000  0.5202910000000 1.0
C      1  0.5051010000000  0.5059270000000  0.4732200000000 1.0
C      1  0.5052440000000  0.4727250000000  0.5098540000000 1.0
C      1  0.4513240000000  0.5294930000000  0.5019260000000 1.0
C      1  0.4514660000000  0.4854840000000  0.4749750000000 1.0
C      1  0.4515030000000  0.4841490000000  0.5265640000000 1.0
C      1  0.5390450000000  0.5540860000000  0.5065020000000 1.0
C      1  0.5392860000000  0.4776710000000  0.4515800000000 1.0
C      1  0.5393780000000  0.4683160000000  0.5452180000000 1.0
C      1  0.5178240000000  0.5000730000000  0.5759120000000 1.0
C      1  0.5175220000000  0.5646610000000  0.4636050000000 1.0
C      1  0.5179880000000  0.4351070000000  0.4638230000000 1.0
C      1  0.5565620000000  0.4801100000000  0.5234680000000 1.0
C      1  0.5563740000000  0.5294550000000  0.5072000000000 1.0
C      1  0.5564920000000  0.4906940000000  0.4726000000000 1.0
C      1  0.4607400000000  0.5478510000000  0.5215310000000 1.0
C      1  0.4608910000000  0.4933400000000  0.4492950000000 1.0
C      1  0.4610700000000  0.4580370000000  0.5326210000000 1.0
C      1  0.4839820000000  0.5577630000000  0.5348240000000 1.0
C      1  0.4841270000000  0.5000340000000  0.4341150000000 1.0
C      1  0.4843990000000  0.4416820000000  0.5344640000000 1.0
C      1  0.4963560000000  0.4552640000000  0.4575240000000 1.0
C      1  0.4963160000000  0.4844120000000  0.5615580000000 1.0
C      1  0.4959960000000  0.5599330000000  0.4842990000000 1.0
C      1  0.4484320000000  0.4974570000000  0.5514250000000 1.0
C      1  0.4482170000000  0.5443510000000  0.4779640000000 1.0
C      1  0.4485280000000  0.4572850000000  0.4740820000000 1.0
C      1  0.4813720000000  0.5141390000000  0.5403580000000 1.0
C      1  0.4812830000000  0.5266220000000  0.4691210000000 1.0
C      1  0.4815420000000  0.4586880000000  0.4939290000000 1.0
C      1  0.4530230000000  0.4997140000000  0.5011540000000 1.0
C      1  0.5104270000000  0.4999210000000  0.5011180000000 1.0
END
