TITL C-3577090-796-742 -6.03253557403819e-06 125000 -732.644256219396 0 0 117 (C1) n - 1
REM
REM in /home/bkarasulu/work/CARBON/AIRSS/Generating-Clusters/EDIP-Nigel-Params/with-SteepDescent/Higher-Symm/SD-CG/HFTN-CG
REM
REM
REM
REM
REM
REM ./C.cell (12c818d87b63d06a65506943cc24bca4)
REM
REM compiler GCC version 9.2.1 20190827 (Red Hat 9.2.1-1)
REM options -cpp -mtune=generic -march=x86-64 -g -O0 -fpre-include=/usr/include/finclude/math-vector-fortran.h
REM seed 1485064647 905067393 695263388 1181338085 7330233 -588733648 -57852600 430439949 1349481323 -42981831 -1358434205 -1855022267 -1427627007 -606778166 310590303 1387634690 426061722 1229795593 759046591 -2104535704 -1856209465 637721479 -1014246616 -1715028208 -1101881134 -690753251 -2002060115 585529909 1447662241 -2040857106 1120521712 698093183 -753154388
REM
CELL 1.54180   50.00000   50.00000   50.00000   90.00000   90.00000   90.00000
LATT -1
SFAC C  
C      1  0.5191350000000  0.4646790000000  0.4420860000000 1.0
C      1  0.4539840000000  0.4589800000000  0.4581870000000 1.0
C      1  0.4410840000000  0.4612640000000  0.5215170000000 1.0
C      1  0.5197920000000  0.4646390000000  0.5677190000000 1.0
C      1  0.5662220000000  0.4641670000000  0.5160380000000 1.0
C      1  0.4570310000000  0.4213590000000  0.5219780000000 1.0
C      1  0.5291200000000  0.4374930000000  0.5590310000000 1.0
C      1  0.5550780000000  0.4364540000000  0.5129210000000 1.0
C      1  0.5105080000000  0.4353950000000  0.4419310000000 1.0
C      1  0.4523130000000  0.4322370000000  0.4734230000000 1.0
C      1  0.4959700000000  0.4628970000000  0.5829740000000 1.0
C      1  0.5851910000000  0.4658720000000  0.5374300000000 1.0
C      1  0.5466530000000  0.4677040000000  0.4307100000000 1.0
C      1  0.4596970000000  0.4549710000000  0.4307790000000 1.0
C      1  0.4109760000000  0.4662380000000  0.5255790000000 1.0
C      1  0.5637900000000  0.5231830000000  0.4386540000000 1.0
C      1  0.4583100000000  0.5383860000000  0.4061300000000 1.0
C      1  0.4046370000000  0.5336480000000  0.5030430000000 1.0
C      1  0.4810460000000  0.5225900000000  0.5885690000000 1.0
C      1  0.5818950000000  0.5251180000000  0.5480500000000 1.0
C      1  0.4700860000000  0.5589580000000  0.4206920000000 1.0
C      1  0.4227020000000  0.5565850000000  0.4996040000000 1.0
C      1  0.4792810000000  0.5489050000000  0.5755590000000 1.0
C      1  0.5679550000000  0.5511250000000  0.5454590000000 1.0
C      1  0.5578200000000  0.5490280000000  0.4514180000000 1.0
C      1  0.4742870000000  0.4689920000000  0.4123120000000 1.0
C      1  0.4048330000000  0.4773060000000  0.5003190000000 1.0
C      1  0.4703870000000  0.4726490000000  0.5807590000000 1.0
C      1  0.5796370000000  0.4768910000000  0.5621400000000 1.0
C      1  0.5684100000000  0.4727890000000  0.4480740000000 1.0
C      1  0.5268810000000  0.5246200000000  0.4141740000000 1.0
C      1  0.4442490000000  0.5174710000000  0.4476420000000 1.0
C      1  0.4296530000000  0.5224410000000  0.5436300000000 1.0
C      1  0.5254730000000  0.5239880000000  0.5885030000000 1.0
C      1  0.5847340000000  0.5201310000000  0.5040940000000 1.0
C      1  0.4924260000000  0.5227880000000  0.4512390000000 1.0
C      1  0.4637260000000  0.5266120000000  0.4891750000000 1.0
C      1  0.4813260000000  0.5257300000000  0.5297070000000 1.0
C      1  0.5243230000000  0.5281140000000  0.5322550000000 1.0
C      1  0.5295370000000  0.5282930000000  0.4886390000000 1.0
C      1  0.4589540000000  0.4827200000000  0.5036730000000 1.0
C      1  0.5144080000000  0.4811230000000  0.5398670000000 1.0
C      1  0.5383340000000  0.4853820000000  0.5182730000000 1.0
C      1  0.5104930000000  0.4845760000000  0.4676940000000 1.0
C      1  0.4728410000000  0.4800240000000  0.4738940000000 1.0
C      1  0.5189410000000  0.4766260000000  0.4053770000000 1.0
C      1  0.4260980000000  0.4701370000000  0.4593910000000 1.0
C      1  0.4307370000000  0.4743780000000  0.5568630000000 1.0
C      1  0.5405730000000  0.4760230000000  0.5867470000000 1.0
C      1  0.5808360000000  0.4703620000000  0.4908360000000 1.0
C      1  0.5513310000000  0.4245340000000  0.4859270000000 1.0
C      1  0.5015320000000  0.4294940000000  0.4161340000000 1.0
C      1  0.4322700000000  0.4352330000000  0.4949480000000 1.0
C      1  0.4685720000000  0.4372410000000  0.5459770000000 1.0
C      1  0.5559600000000  0.4339260000000  0.5660700000000 1.0
C      1  0.5164970000000  0.5131370000000  0.4646920000000 1.0
C      1  0.4685150000000  0.5107390000000  0.4648210000000 1.0
C      1  0.4594840000000  0.5112830000000  0.5128250000000 1.0
C      1  0.5035600000000  0.5089590000000  0.5437500000000 1.0
C      1  0.5417440000000  0.5142120000000  0.5131850000000 1.0
C      1  0.5027890000000  0.5838820000000  0.5498490000000 1.0
C      1  0.5469050000000  0.5832240000000  0.5135050000000 1.0
C      1  0.5229970000000  0.5819380000000  0.4630960000000 1.0
C      1  0.4681140000000  0.5870340000000  0.4615100000000 1.0
C      1  0.4601010000000  0.5835530000000  0.5153470000000 1.0
C      1  0.5242490000000  0.4079030000000  0.4847550000000 1.0
C      1  0.5014600000000  0.4211980000000  0.4678000000000 1.0
C      1  0.4732320000000  0.4103750000000  0.4759390000000 1.0
C      1  0.4777910000000  0.4052470000000  0.5056740000000 1.0
C      1  0.5088730000000  0.4070840000000  0.5123210000000 1.0
C      1  0.5720710000000  0.5665500000000  0.5197080000000 1.0
C      1  0.5375890000000  0.5674440000000  0.4398290000000 1.0
C      1  0.4518440000000  0.5709970000000  0.4407730000000 1.0
C      1  0.4340210000000  0.5697340000000  0.5240490000000 1.0
C      1  0.5029760000000  0.5673930000000  0.5759170000000 1.0
C      1  0.4950510000000  0.5715020000000  0.4598690000000 1.0
C      1  0.4687320000000  0.5704840000000  0.4887510000000 1.0
C      1  0.4817420000000  0.5701620000000  0.5316120000000 1.0
C      1  0.5256840000000  0.5718800000000  0.5325520000000 1.0
C      1  0.5333170000000  0.5703390000000  0.4891950000000 1.0
C      1  0.4928070000000  0.4499790000000  0.5324380000000 1.0
C      1  0.5160400000000  0.4306320000000  0.5327090000000 1.0
C      1  0.5241310000000  0.4507580000000  0.4947960000000 1.0
C      1  0.4985080000000  0.4456450000000  0.4835150000000 1.0
C      1  0.4784340000000  0.4492680000000  0.5048950000000 1.0
C      1  0.5631910000000  0.4588360000000  0.5782570000000 1.0
C      1  0.5714380000000  0.4533190000000  0.4694200000000 1.0
C      1  0.4982190000000  0.4552830000000  0.4043160000000 1.0
C      1  0.4132510000000  0.4560220000000  0.4821900000000 1.0
C      1  0.4532760000000  0.4561620000000  0.5638220000000 1.0
C      1  0.5547010000000  0.5200020000000  0.4119260000000 1.0
C      1  0.4548410000000  0.5137560000000  0.4187370000000 1.0
C      1  0.4075530000000  0.5178330000000  0.5263800000000 1.0
C      1  0.5035100000000  0.5182890000000  0.6051870000000 1.0
C      1  0.6003130000000  0.5181950000000  0.5276650000000 1.0
C      1  0.5689520000000  0.5038590000000  0.5633810000000 1.0
C      1  0.5710020000000  0.5005860000000  0.4564270000000 1.0
C      1  0.4796450000000  0.4971790000000  0.4172740000000 1.0
C      1  0.4209190000000  0.5019040000000  0.4934450000000 1.0
C      1  0.4644620000000  0.5009130000000  0.5768080000000 1.0
C      1  0.5070460000000  0.5038410000000  0.4061300000000 1.0
C      1  0.4235750000000  0.4996380000000  0.4624050000000 1.0
C      1  0.4387680000000  0.5021500000000  0.5625130000000 1.0
C      1  0.5468160000000  0.5044640000000  0.5825910000000 1.0
C      1  0.5821720000000  0.4988800000000  0.4834520000000 1.0
C      1  0.4403200000000  0.5494460000000  0.5453490000000 1.0
C      1  0.5280050000000  0.5507690000000  0.5770280000000 1.0
C      1  0.5760200000000  0.5471400000000  0.4972410000000 1.0
C      1  0.5184940000000  0.5516760000000  0.4226410000000 1.0
C      1  0.4393330000000  0.5475660000000  0.4548580000000 1.0
C      1  0.4472060000000  0.5501780000000  0.4832580000000 1.0
C      1  0.4693920000000  0.5482020000000  0.5476230000000 1.0
C      1  0.5383110000000  0.5501340000000  0.5491850000000 1.0
C      1  0.5517980000000  0.5482230000000  0.4803150000000 1.0
C      1  0.4933710000000  0.5508520000000  0.4380150000000 1.0
C      1  0.5272560000000  0.4781760000000  0.4917320000000 1.0
C      1  0.5026610000000  0.5510690000000  0.5087430000000 1.0
END
