TITL C-3577077-324-676 -5.88069264965674e-07 125000 -676.862593134029 0 0 110 (C1) n - 1
REM
REM in /home/bkarasulu/work/CARBON/AIRSS/Generating-Clusters/EDIP-Nigel-Params/with-SteepDescent/Higher-Symm/SD-CG/HFTN-CG
REM
REM
REM
REM
REM
REM ./C.cell (12c818d87b63d06a65506943cc24bca4)
REM
REM compiler GCC version 9.2.1 20190827 (Red Hat 9.2.1-1)
REM options -cpp -mtune=generic -march=x86-64 -g -O0 -fpre-include=/usr/include/finclude/math-vector-fortran.h
REM seed 746530287 1708476038 -703548807 -842529103 -922305384 -1580617194 1503037938 1459508390 824927445 1504109977 965415738 1816581577 -880391786 -1629980305 -826269389 -393318597 311384831 -1529493488 1461209503 1111681244 622249874 -894498612 817539183 -1901553248 506991340 411410864 318108350 1130845827 -352979557 441484298 2031361251 -53493646 -898404551
REM
CELL 1.54180   50.00000   50.00000   50.00000   90.00000   90.00000   90.00000
LATT -1
SFAC C  
C      1  0.5106170000000  0.4104150000000  0.4611810000000 1.0
C      1  0.5910570000000  0.4849930000000  0.4608550000000 1.0
C      1  0.5479570000000  0.5798460000000  0.4663350000000 1.0
C      1  0.4358790000000  0.5684730000000  0.4592100000000 1.0
C      1  0.4244700000000  0.4700170000000  0.4602890000000 1.0
C      1  0.4926400000000  0.4191940000000  0.5392900000000 1.0
C      1  0.4217110000000  0.4820680000000  0.5389680000000 1.0
C      1  0.4588850000000  0.5694130000000  0.5359320000000 1.0
C      1  0.5565850000000  0.5606200000000  0.5422810000000 1.0
C      1  0.5754590000000  0.4685850000000  0.5367600000000 1.0
C      1  0.5530940000000  0.4572130000000  0.4437950000000 1.0
C      1  0.5533610000000  0.5347850000000  0.4496500000000 1.0
C      1  0.4827020000000  0.5643710000000  0.4430060000000 1.0
C      1  0.4261410000000  0.5092150000000  0.4393500000000 1.0
C      1  0.4771580000000  0.4361660000000  0.4420050000000 1.0
C      1  0.4449970000000  0.4519150000000  0.5607320000000 1.0
C      1  0.4378630000000  0.5382570000000  0.5585940000000 1.0
C      1  0.5168190000000  0.5698060000000  0.5597830000000 1.0
C      1  0.5738350000000  0.5061820000000  0.5597570000000 1.0
C      1  0.5290950000000  0.4333810000000  0.5597100000000 1.0
C      1  0.4564600000000  0.4330590000000  0.5146500000000 1.0
C      1  0.5483020000000  0.4405510000000  0.5145000000000 1.0
C      1  0.5793490000000  0.5295510000000  0.5154700000000 1.0
C      1  0.4972190000000  0.5712760000000  0.5141470000000 1.0
C      1  0.4221830000000  0.5213350000000  0.5125620000000 1.0
C      1  0.5413480000000  0.4362850000000  0.4869320000000 1.0
C      1  0.4503060000000  0.4390300000000  0.4873250000000 1.0
C      1  0.4231080000000  0.5299190000000  0.4852950000000 1.0
C      1  0.5075820000000  0.5708800000000  0.4860770000000 1.0
C      1  0.5828830000000  0.5225230000000  0.4883850000000 1.0
C      1  0.4427440000000  0.4910630000000  0.4877140000000 1.0
C      1  0.4939720000000  0.4431320000000  0.4816950000000 1.0
C      1  0.5457760000000  0.4794430000000  0.4817440000000 1.0
C      1  0.5225140000000  0.5431160000000  0.4799910000000 1.0
C      1  0.4639740000000  0.5421220000000  0.4760110000000 1.0
C      1  0.5602900000000  0.4903590000000  0.5076920000000 1.0
C      1  0.5048190000000  0.4423250000000  0.5102370000000 1.0
C      1  0.4485870000000  0.4759220000000  0.5115070000000 1.0
C      1  0.4597800000000  0.5426180000000  0.5068640000000 1.0
C      1  0.5389370000000  0.5439980000000  0.5056840000000 1.0
C      1  0.5623750000000  0.4422580000000  0.4681810000000 1.0
C      1  0.5743420000000  0.5410250000000  0.4686030000000 1.0
C      1  0.4853590000000  0.5793630000000  0.4679620000000 1.0
C      1  0.4115410000000  0.5120190000000  0.4653000000000 1.0
C      1  0.4640890000000  0.4220220000000  0.4676780000000 1.0
C      1  0.4365440000000  0.4406510000000  0.5346010000000 1.0
C      1  0.4242040000000  0.5423350000000  0.5325220000000 1.0
C      1  0.5158720000000  0.5824840000000  0.5334410000000 1.0
C      1  0.5891300000000  0.5104090000000  0.5345120000000 1.0
C      1  0.5362970000000  0.4221620000000  0.5334450000000 1.0
C      1  0.4969450000000  0.5493550000000  0.5658110000000 1.0
C      1  0.4504130000000  0.5136740000000  0.5687210000000 1.0
C      1  0.4725840000000  0.4556890000000  0.5698220000000 1.0
C      1  0.5340340000000  0.4615500000000  0.5665550000000 1.0
C      1  0.5483960000000  0.5192950000000  0.5674320000000 1.0
C      1  0.5072860000000  0.5506970000000  0.4343860000000 1.0
C      1  0.5498110000000  0.5083030000000  0.4385850000000 1.0
C      1  0.5242490000000  0.4549630000000  0.4368670000000 1.0
C      1  0.4659310000000  0.4612590000000  0.4294320000000 1.0
C      1  0.4514730000000  0.5230930000000  0.4323660000000 1.0
C      1  0.5033620000000  0.5242710000000  0.4220630000000 1.0
C      1  0.4768970000000  0.5103080000000  0.4209980000000 1.0
C      1  0.4843780000000  0.4811360000000  0.4174820000000 1.0
C      1  0.5134240000000  0.4773590000000  0.4214340000000 1.0
C      1  0.5248140000000  0.5041140000000  0.4239210000000 1.0
C      1  0.5002160000000  0.5254000000000  0.5828150000000 1.0
C      1  0.5247820000000  0.5082170000000  0.5821130000000 1.0
C      1  0.5161640000000  0.4796530000000  0.5820490000000 1.0
C      1  0.4861070000000  0.4792150000000  0.5826630000000 1.0
C      1  0.4762080000000  0.5075610000000  0.5832620000000 1.0
C      1  0.4169190000000  0.4531340000000  0.5135250000000 1.0
C      1  0.5187380000000  0.4061440000000  0.5136610000000 1.0
C      1  0.5989880000000  0.4893100000000  0.5136720000000 1.0
C      1  0.5400430000000  0.5818850000000  0.5154200000000 1.0
C      1  0.4283010000000  0.5654400000000  0.5123120000000 1.0
C      1  0.5796250000000  0.4590220000000  0.4873310000000 1.0
C      1  0.4828010000000  0.4062490000000  0.4879490000000 1.0
C      1  0.4038650000000  0.4898250000000  0.4864610000000 1.0
C      1  0.4614460000000  0.5799360000000  0.4861640000000 1.0
C      1  0.5657330000000  0.5637100000000  0.4846740000000 1.0
C      1  0.4249980000000  0.4509980000000  0.4837920000000 1.0
C      1  0.5262400000000  0.4127500000000  0.4852100000000 1.0
C      1  0.5978120000000  0.4990260000000  0.4850170000000 1.0
C      1  0.5303920000000  0.5902070000000  0.4869110000000 1.0
C      1  0.4233040000000  0.5580500000000  0.4833730000000 1.0
C      1  0.5747990000000  0.4495810000000  0.5154320000000 1.0
C      1  0.4747950000000  0.4115280000000  0.5168930000000 1.0
C      1  0.4095010000000  0.4966440000000  0.5160220000000 1.0
C      1  0.4718140000000  0.5836990000000  0.5141040000000 1.0
C      1  0.5755520000000  0.5573700000000  0.5211950000000 1.0
C      1  0.5213150000000  0.5238390000000  0.5252000000000 1.0
C      1  0.4836080000000  0.5238810000000  0.5233500000000 1.0
C      1  0.4739290000000  0.4916530000000  0.5269870000000 1.0
C      1  0.5002290000000  0.4717610000000  0.5271400000000 1.0
C      1  0.5294690000000  0.4922600000000  0.5244620000000 1.0
C      1  0.4802970000000  0.5179950000000  0.4710130000000 1.0
C      1  0.5070480000000  0.5175680000000  0.4806080000000 1.0
C      1  0.5164360000000  0.4897660000000  0.4820730000000 1.0
C      1  0.4926030000000  0.4731790000000  0.4779180000000 1.0
C      1  0.4686110000000  0.4907410000000  0.4707020000000 1.0
C      1  0.5352660000000  0.5580570000000  0.4465080000000 1.0
C      1  0.4541760000000  0.5531820000000  0.4397920000000 1.0
C      1  0.4508760000000  0.4811240000000  0.4465330000000 1.0
C      1  0.5064650000000  0.4314330000000  0.4411640000000 1.0
C      1  0.5617990000000  0.4847770000000  0.4537460000000 1.0
C      1  0.4743570000000  0.5437160000000  0.5471310000000 1.0
C      1  0.5363420000000  0.5391070000000  0.5489590000000 1.0
C      1  0.5484500000000  0.4799540000000  0.5476930000000 1.0
C      1  0.4947230000000  0.4488590000000  0.5511980000000 1.0
C      1  0.4506520000000  0.4893820000000  0.5517220000000 1.0
END
