TITL C-3577079-311-368 -4.27634283320779e-08 125000 -659.282080719271 0 0 106 (C1) n - 1
REM
REM in /home/bkarasulu/work/CARBON/AIRSS/Generating-Clusters/EDIP-Nigel-Params/with-SteepDescent/Higher-Symm/SD-CG/HFTN-CG
REM
REM
REM
REM
REM
REM ./C.cell (12c818d87b63d06a65506943cc24bca4)
REM
REM compiler GCC version 9.2.1 20190827 (Red Hat 9.2.1-1)
REM options -cpp -mtune=generic -march=x86-64 -g -O0 -fpre-include=/usr/include/finclude/math-vector-fortran.h
REM seed -1133873703 1719197232 969604772 1933313612 1702476526 -2076485635 -2045454964 -1429898536 -1777697740 -886737875 2047073261 -1364459609 -1758985407 333360447 119539600 1294976407 -1634965225 1727955582 -785358397 -465402262 1817738070 -1514509507 -1568646803 -1565679909 29974863 -504051425 1569456196 -1150737105 1782498661 788120016 -72449699 919649381 48146285
REM
CELL 1.54180   50.00000   50.00000   50.00000   90.00000   90.00000   90.00000
LATT -1
SFAC C  
C      1  0.5387160000000  0.4985960000000  0.5780570000000 1.0
C      1  0.5842440000000  0.5542600000000  0.4991740000000 1.0
C      1  0.5073050000000  0.5783350000000  0.5446600000000 1.0
C      1  0.4535510000000  0.5027780000000  0.4191880000000 1.0
C      1  0.5384000000000  0.4981130000000  0.4285220000000 1.0
C      1  0.4478170000000  0.4981160000000  0.5781310000000 1.0
C      1  0.4313530000000  0.5409270000000  0.4975340000000 1.0
C      1  0.5735890000000  0.4633740000000  0.5036740000000 1.0
C      1  0.4220050000000  0.4495720000000  0.5016270000000 1.0
C      1  0.4997220000000  0.5763500000000  0.4567420000000 1.0
C      1  0.4974980000000  0.4189920000000  0.4468980000000 1.0
C      1  0.4984840000000  0.4183730000000  0.5388620000000 1.0
C      1  0.5432290000000  0.4264830000000  0.5147400000000 1.0
C      1  0.5105400000000  0.5390790000000  0.4235290000000 1.0
C      1  0.4233770000000  0.5177550000000  0.5422870000000 1.0
C      1  0.4543760000000  0.4168870000000  0.4807750000000 1.0
C      1  0.5457000000000  0.5792480000000  0.4788510000000 1.0
C      1  0.4656080000000  0.5738020000000  0.5135430000000 1.0
C      1  0.4872510000000  0.5427150000000  0.5753060000000 1.0
C      1  0.5117540000000  0.4535190000000  0.5722800000000 1.0
C      1  0.4764770000000  0.4560130000000  0.4202530000000 1.0
C      1  0.5731280000000  0.5176910000000  0.4585420000000 1.0
C      1  0.4249310000000  0.4754420000000  0.4556670000000 1.0
C      1  0.5743570000000  0.4868870000000  0.5479820000000 1.0
C      1  0.5301450000000  0.4994080000000  0.5285010000000 1.0
C      1  0.5291480000000  0.5214750000000  0.5073430000000 1.0
C      1  0.5015230000000  0.5306380000000  0.5173360000000 1.0
C      1  0.4809660000000  0.4957170000000  0.4949350000000 1.0
C      1  0.5242570000000  0.5097080000000  0.4787970000000 1.0
C      1  0.4948210000000  0.5081750000000  0.5379600000000 1.0
C      1  0.4833450000000  0.5271480000000  0.4934000000000 1.0
C      1  0.5223970000000  0.4729890000000  0.5111590000000 1.0
C      1  0.4797990000000  0.4865320000000  0.5232530000000 1.0
C      1  0.5019950000000  0.5289320000000  0.4701000000000 1.0
C      1  0.5086480000000  0.4853040000000  0.4868180000000 1.0
C      1  0.4970550000000  0.4626120000000  0.5249950000000 1.0
C      1  0.4270080000000  0.5171810000000  0.5136000000000 1.0
C      1  0.5143560000000  0.4232350000000  0.5141020000000 1.0
C      1  0.5124300000000  0.5097520000000  0.4217290000000 1.0
C      1  0.5774330000000  0.5270910000000  0.4858410000000 1.0
C      1  0.4210860000000  0.4737590000000  0.4845760000000 1.0
C      1  0.5748750000000  0.4878130000000  0.5191980000000 1.0
C      1  0.4822600000000  0.4208230000000  0.4739580000000 1.0
C      1  0.5167910000000  0.5825670000000  0.4800670000000 1.0
C      1  0.4939180000000  0.5805900000000  0.5180360000000 1.0
C      1  0.4806320000000  0.5148350000000  0.5665240000000 1.0
C      1  0.5143010000000  0.4824520000000  0.5741510000000 1.0
C      1  0.4763090000000  0.4848830000000  0.4135930000000 1.0
C      1  0.4574340000000  0.4495450000000  0.5549870000000 1.0
C      1  0.5591860000000  0.4703620000000  0.4626580000000 1.0
C      1  0.4577670000000  0.5649840000000  0.4645470000000 1.0
C      1  0.5245460000000  0.4571330000000  0.4383590000000 1.0
C      1  0.4600530000000  0.5424180000000  0.4427950000000 1.0
C      1  0.5370600000000  0.5439100000000  0.5684880000000 1.0
C      1  0.4357210000000  0.4682780000000  0.5441660000000 1.0
C      1  0.5602100000000  0.5430320000000  0.5460580000000 1.0
C      1  0.4414940000000  0.5239610000000  0.4577890000000 1.0
C      1  0.5505800000000  0.5674750000000  0.5299480000000 1.0
C      1  0.4551960000000  0.4263540000000  0.5326200000000 1.0
C      1  0.5385160000000  0.4459500000000  0.4630190000000 1.0
C      1  0.4924370000000  0.4456220000000  0.5497230000000 1.0
C      1  0.5494700000000  0.4989670000000  0.4566630000000 1.0
C      1  0.4590150000000  0.5524740000000  0.4926080000000 1.0
C      1  0.5007270000000  0.4429810000000  0.4300320000000 1.0
C      1  0.4948550000000  0.5471830000000  0.4478600000000 1.0
C      1  0.5100990000000  0.5530120000000  0.5600300000000 1.0
C      1  0.4302700000000  0.4936290000000  0.5569530000000 1.0
C      1  0.5513180000000  0.5058270000000  0.5518900000000 1.0
C      1  0.4369250000000  0.4994530000000  0.4433770000000 1.0
C      1  0.5613450000000  0.5721940000000  0.5030880000000 1.0
C      1  0.4455790000000  0.4321380000000  0.5046230000000 1.0
C      1  0.5456250000000  0.4523710000000  0.5001920000000 1.0
C      1  0.5562660000000  0.4238310000000  0.5390390000000 1.0
C      1  0.5351550000000  0.5518300000000  0.4209570000000 1.0
C      1  0.4265930000000  0.5415510000000  0.5562050000000 1.0
C      1  0.4381680000000  0.4180850000000  0.4581860000000 1.0
C      1  0.5569940000000  0.5761260000000  0.4537620000000 1.0
C      1  0.4497210000000  0.5752640000000  0.5360980000000 1.0
C      1  0.4649160000000  0.5591210000000  0.5758590000000 1.0
C      1  0.5356300000000  0.4399230000000  0.5755740000000 1.0
C      1  0.4539860000000  0.4397810000000  0.4196820000000 1.0
C      1  0.5748540000000  0.5370030000000  0.4387750000000 1.0
C      1  0.4169660000000  0.4539660000000  0.4401150000000 1.0
C      1  0.5729270000000  0.4615850000000  0.5593890000000 1.0
C      1  0.4740110000000  0.4056960000000  0.5345110000000 1.0
C      1  0.5393580000000  0.4717370000000  0.4195440000000 1.0
C      1  0.4205430000000  0.5355100000000  0.4723320000000 1.0
C      1  0.5249440000000  0.4163040000000  0.4644800000000 1.0
C      1  0.4740580000000  0.5871870000000  0.4596160000000 1.0
C      1  0.5338250000000  0.5866310000000  0.5416520000000 1.0
C      1  0.4667060000000  0.4765990000000  0.5816520000000 1.0
C      1  0.5358660000000  0.5242820000000  0.5886170000000 1.0
C      1  0.4583780000000  0.5306990000000  0.4152470000000 1.0
C      1  0.5878440000000  0.5371430000000  0.5275050000000 1.0
C      1  0.4160530000000  0.4574650000000  0.5276700000000 1.0
C      1  0.5826990000000  0.4672220000000  0.4775920000000 1.0
C      1  0.4153690000000  0.4967990000000  0.4989170000000 1.0
C      1  0.5059420000000  0.4109930000000  0.4893330000000 1.0
C      1  0.4983530000000  0.4968810000000  0.4010610000000 1.0
C      1  0.5877720000000  0.5115240000000  0.5092170000000 1.0
C      1  0.5055490000000  0.5987960000000  0.4999600000000 1.0
C      1  0.4907550000000  0.4934000000000  0.5851070000000 1.0
C      1  0.4429950000000  0.5633420000000  0.5597640000000 1.0
C      1  0.5591260000000  0.5586810000000  0.4326150000000 1.0
C      1  0.5595590000000  0.4377130000000  0.5624110000000 1.0
C      1  0.4324170000000  0.4319440000000  0.4349500000000 1.0
END
