TITL C-3578208-4450-184 -2.09149093982517e-06 125000 -692.011704960073 0 0 111 (C1) n - 1
REM
REM in /home/bkarasulu/work/CARBON/AIRSS/Generating-Clusters/EDIP-Nigel-Params/with-SteepDescent/Higher-Symm/SD-CG/HFTN-CG
REM
REM
REM
REM
REM
REM ./C.cell (12c818d87b63d06a65506943cc24bca4)
REM
REM compiler GCC version 9.2.1 20190827 (Red Hat 9.2.1-1)
REM options -cpp -mtune=generic -march=x86-64 -g -O0 -fpre-include=/usr/include/finclude/math-vector-fortran.h
REM seed 2130696313 -184118770 287520781 1293464490 1958182653 -1178449528 643531294 -83205627 -495141315 -609825938 510365299 -1332267382 2017635324 2138688058 -8261363 -1914832069 -470847691 68318190 -1757849779 1667576132 1795434649 -1569592106 233753156 -993824235 -1712883590 -566823573 -1861799674 -210981946 1499113567 -1310411330 1549044858 -2119144235 -1326029305
REM
CELL 1.54180   50.00000   50.00000   50.00000   90.00000   90.00000   90.00000
LATT -1
SFAC C  
C      1  0.5266960000000  0.4692540000000  0.4211790000000 1.0
C      1  0.4714030000000  0.5300440000000  0.5770590000000 1.0
C      1  0.4798210000000  0.5022610000000  0.5851090000000 1.0
C      1  0.5195370000000  0.4977030000000  0.4193140000000 1.0
C      1  0.5666990000000  0.4575970000000  0.5554670000000 1.0
C      1  0.4352180000000  0.5401360000000  0.4437590000000 1.0
C      1  0.5261410000000  0.5346250000000  0.4481790000000 1.0
C      1  0.4718320000000  0.4616190000000  0.5599930000000 1.0
C      1  0.4653520000000  0.5438230000000  0.4442740000000 1.0
C      1  0.5359120000000  0.4589930000000  0.5568180000000 1.0
C      1  0.4754440000000  0.4579490000000  0.4272060000000 1.0
C      1  0.5216750000000  0.5427990000000  0.5694920000000 1.0
C      1  0.4817400000000  0.5615100000000  0.4638310000000 1.0
C      1  0.5220250000000  0.4398870000000  0.5381270000000 1.0
C      1  0.4943410000000  0.4478080000000  0.5752190000000 1.0
C      1  0.5082800000000  0.5505480000000  0.4298270000000 1.0
C      1  0.4378770000000  0.5016230000000  0.5604520000000 1.0
C      1  0.5613270000000  0.4935100000000  0.4450510000000 1.0
C      1  0.4508380000000  0.5324950000000  0.4845640000000 1.0
C      1  0.5544870000000  0.4657780000000  0.5139580000000 1.0
C      1  0.4838890000000  0.5344830000000  0.4235510000000 1.0
C      1  0.5179930000000  0.4661160000000  0.5795380000000 1.0
C      1  0.5394480000000  0.5162190000000  0.5093130000000 1.0
C      1  0.4603640000000  0.4816110000000  0.4932730000000 1.0
C      1  0.5419180000000  0.5540440000000  0.4640000000000 1.0
C      1  0.4562730000000  0.4384770000000  0.5473890000000 1.0
C      1  0.5637330000000  0.5513070000000  0.5314570000000 1.0
C      1  0.4336580000000  0.4500510000000  0.4672890000000 1.0
C      1  0.4127400000000  0.4992270000000  0.4884410000000 1.0
C      1  0.5894200000000  0.5023090000000  0.5143760000000 1.0
C      1  0.4192950000000  0.4577770000000  0.5138950000000 1.0
C      1  0.5820620000000  0.5463030000000  0.4880100000000 1.0
C      1  0.5138000000000  0.4238970000000  0.4382840000000 1.0
C      1  0.4845660000000  0.5725760000000  0.5553960000000 1.0
C      1  0.4778650000000  0.4212670000000  0.5364280000000 1.0
C      1  0.5271810000000  0.5791730000000  0.4660280000000 1.0
C      1  0.4392330000000  0.5603990000000  0.4757540000000 1.0
C      1  0.5658380000000  0.4400410000000  0.5303180000000 1.0
C      1  0.3965330000000  0.4697710000000  0.5246730000000 1.0
C      1  0.6026550000000  0.5341000000000  0.4732000000000 1.0
C      1  0.4830070000000  0.4204180000000  0.5068500000000 1.0
C      1  0.5203880000000  0.5878950000000  0.4940910000000 1.0
C      1  0.3983000000000  0.4965320000000  0.5170360000000 1.0
C      1  0.6012890000000  0.5069970000000  0.4811630000000 1.0
C      1  0.5685320000000  0.4418530000000  0.4684710000000 1.0
C      1  0.4352670000000  0.5625320000000  0.5242710000000 1.0
C      1  0.4221030000000  0.5368220000000  0.5229590000000 1.0
C      1  0.5853070000000  0.4639370000000  0.4767590000000 1.0
C      1  0.4982520000000  0.5873250000000  0.5360500000000 1.0
C      1  0.5006750000000  0.4208740000000  0.4627970000000 1.0
C      1  0.5113480000000  0.4541800000000  0.5088650000000 1.0
C      1  0.4972580000000  0.5440990000000  0.4909410000000 1.0
C      1  0.5428670000000  0.4206240000000  0.5282380000000 1.0
C      1  0.4715130000000  0.5888730000000  0.4661430000000 1.0
C      1  0.4310130000000  0.4717450000000  0.4897210000000 1.0
C      1  0.5691040000000  0.5291910000000  0.5106370000000 1.0
C      1  0.4270240000000  0.5240680000000  0.4978070000000 1.0
C      1  0.5794180000000  0.4754640000000  0.5032190000000 1.0
C      1  0.5411720000000  0.5130170000000  0.4331810000000 1.0
C      1  0.4575540000000  0.4842790000000  0.5753650000000 1.0
C      1  0.4993480000000  0.4716470000000  0.4614340000000 1.0
C      1  0.4996150000000  0.5218120000000  0.5372350000000 1.0
C      1  0.5504500000000  0.4679430000000  0.4374090000000 1.0
C      1  0.4523420000000  0.5265800000000  0.5537770000000 1.0
C      1  0.4420220000000  0.5770670000000  0.5001190000000 1.0
C      1  0.5562370000000  0.4200540000000  0.4806620000000 1.0
C      1  0.5343360000000  0.5535170000000  0.5415550000000 1.0
C      1  0.4594920000000  0.4479940000000  0.4505780000000 1.0
C      1  0.5291490000000  0.5169460000000  0.5821120000000 1.0
C      1  0.4697300000000  0.4849420000000  0.4168460000000 1.0
C      1  0.5075620000000  0.4141400000000  0.4908590000000 1.0
C      1  0.4939570000000  0.5849670000000  0.5073780000000 1.0
C      1  0.4904230000000  0.5048890000000  0.4265600000000 1.0
C      1  0.5088350000000  0.4952550000000  0.5761930000000 1.0
C      1  0.5033980000000  0.5751880000000  0.4476410000000 1.0
C      1  0.5009820000000  0.4266650000000  0.5541950000000 1.0
C      1  0.5049700000000  0.4502050000000  0.4294810000000 1.0
C      1  0.4926710000000  0.5501640000000  0.5704980000000 1.0
C      1  0.4830480000000  0.4594000000000  0.4859190000000 1.0
C      1  0.5184950000000  0.5368550000000  0.5194540000000 1.0
C      1  0.5550450000000  0.5099610000000  0.5751490000000 1.0
C      1  0.4440280000000  0.4918140000000  0.4247850000000 1.0
C      1  0.4328610000000  0.4269970000000  0.4848210000000 1.0
C      1  0.5664000000000  0.5758520000000  0.5171070000000 1.0
C      1  0.5084190000000  0.5211510000000  0.4700310000000 1.0
C      1  0.4854640000000  0.4761270000000  0.5367960000000 1.0
C      1  0.4099690000000  0.5144040000000  0.5375530000000 1.0
C      1  0.5869170000000  0.4892960000000  0.4616800000000 1.0
C      1  0.5271700000000  0.5832130000000  0.5395050000000 1.0
C      1  0.4720980000000  0.4244500000000  0.4618220000000 1.0
C      1  0.4348370000000  0.4424460000000  0.5305520000000 1.0
C      1  0.5699060000000  0.5531790000000  0.4636330000000 1.0
C      1  0.4188930000000  0.5179000000000  0.4546300000000 1.0
C      1  0.5817880000000  0.4824600000000  0.5472430000000 1.0
C      1  0.4373820000000  0.4964450000000  0.4515910000000 1.0
C      1  0.5623080000000  0.5031920000000  0.5490970000000 1.0
C      1  0.5362890000000  0.4120900000000  0.4998740000000 1.0
C      1  0.4682760000000  0.5912950000000  0.4944330000000 1.0
C      1  0.4886890000000  0.5010270000000  0.4568320000000 1.0
C      1  0.5088890000000  0.4952560000000  0.5456080000000 1.0
C      1  0.5299780000000  0.4745240000000  0.4689630000000 1.0
C      1  0.4711880000000  0.5202660000000  0.5286880000000 1.0
C      1  0.5404920000000  0.4938890000000  0.5303370000000 1.0
C      1  0.4601980000000  0.5033620000000  0.4703250000000 1.0
C      1  0.4649520000000  0.4916970000000  0.5216330000000 1.0
C      1  0.5251280000000  0.5016090000000  0.4859000000000 1.0
C      1  0.4607620000000  0.4214640000000  0.4877470000000 1.0
C      1  0.5417550000000  0.5899090000000  0.5149770000000 1.0
C      1  0.5369070000000  0.4551310000000  0.4914040000000 1.0
C      1  0.4714510000000  0.5371350000000  0.5042270000000 1.0
C      1  0.5038110000000  0.4852850000000  0.5028190000000 1.0
END
