TITL C-3577084-3642-396 3.04246055533487e-06 125000 -481.296197470039 0 0 79 (C1) n - 1
REM
REM in /home/bkarasulu/work/CARBON/AIRSS/Generating-Clusters/EDIP-Nigel-Params/with-SteepDescent/Higher-Symm/SD-CG/HFTN-CG
REM
REM
REM
REM
REM
REM ./C.cell (12c818d87b63d06a65506943cc24bca4)
REM
REM compiler GCC version 9.2.1 20190827 (Red Hat 9.2.1-1)
REM options -cpp -mtune=generic -march=x86-64 -g -O0 -fpre-include=/usr/include/finclude/math-vector-fortran.h
REM seed 409656558 1081282139 -1837744627 -676119476 1788631016 -1195576495 1725150564 -779477754 1213163915 1010753077 1440810895 -752162180 -1462656593 -360278886 342951222 1098549505 -2093564405 -2088736382 134670067 -900768551 -984323465 805221917 1441408562 -2089475098 1019670278 -1974374989 665817870 135259050 346082374 999386931 138198058 52737218 1438450886
REM
CELL 1.54180   50.00000   50.00000   50.00000   90.00000   90.00000   90.00000
LATT -1
SFAC C  
C      1  0.5667260000000  0.5282600000000  0.5578690000000 1.0
C      1  0.4438870000000  0.4480030000000  0.4732320000000 1.0
C      1  0.5723530000000  0.4972580000000  0.4897020000000 1.0
C      1  0.4633620000000  0.4279620000000  0.4650520000000 1.0
C      1  0.5736430000000  0.5020970000000  0.5178970000000 1.0
C      1  0.4663110000000  0.5125530000000  0.5196350000000 1.0
C      1  0.4844890000000  0.4491640000000  0.5298010000000 1.0
C      1  0.5724620000000  0.5294890000000  0.5295520000000 1.0
C      1  0.4676500000000  0.4853780000000  0.4703460000000 1.0
C      1  0.4361500000000  0.4697700000000  0.4546830000000 1.0
C      1  0.5528820000000  0.4823120000000  0.4500070000000 1.0
C      1  0.4750090000000  0.5648180000000  0.4664350000000 1.0
C      1  0.4858170000000  0.4591960000000  0.4684070000000 1.0
C      1  0.5009530000000  0.4949310000000  0.4442330000000 1.0
C      1  0.5284420000000  0.4932610000000  0.4847750000000 1.0
C      1  0.5277980000000  0.4297100000000  0.5091480000000 1.0
C      1  0.4517970000000  0.4864050000000  0.4346670000000 1.0
C      1  0.5371280000000  0.4871520000000  0.5336240000000 1.0
C      1  0.4143380000000  0.4930730000000  0.4996830000000 1.0
C      1  0.4827700000000  0.5761340000000  0.4945740000000 1.0
C      1  0.5617850000000  0.4994220000000  0.5604350000000 1.0
C      1  0.4293630000000  0.5405150000000  0.5364250000000 1.0
C      1  0.5503510000000  0.4526620000000  0.5045150000000 1.0
C      1  0.4559930000000  0.5423970000000  0.4649540000000 1.0
C      1  0.4362250000000  0.5180420000000  0.5195920000000 1.0
C      1  0.5157920000000  0.5063950000000  0.5381550000000 1.0
C      1  0.4883520000000  0.4521900000000  0.4383930000000 1.0
C      1  0.5120970000000  0.5768530000000  0.4948250000000 1.0
C      1  0.4805100000000  0.4914260000000  0.4985010000000 1.0
C      1  0.5250630000000  0.5777510000000  0.5226790000000 1.0
C      1  0.5240590000000  0.4774330000000  0.4581020000000 1.0
C      1  0.5048140000000  0.4718770000000  0.5690390000000 1.0
C      1  0.5028240000000  0.5065890000000  0.4868450000000 1.0
C      1  0.4788720000000  0.4636200000000  0.5571740000000 1.0
C      1  0.4857580000000  0.5354370000000  0.4274670000000 1.0
C      1  0.5336230000000  0.5311860000000  0.4351670000000 1.0
C      1  0.5241100000000  0.4398520000000  0.4610420000000 1.0
C      1  0.4174220000000  0.5178920000000  0.4855960000000 1.0
C      1  0.4829270000000  0.5357560000000  0.5131760000000 1.0
C      1  0.5117490000000  0.5036560000000  0.5674400000000 1.0
C      1  0.4886940000000  0.5566330000000  0.5517290000000 1.0
C      1  0.5139370000000  0.4414450000000  0.4347220000000 1.0
C      1  0.4827770000000  0.4180540000000  0.4843090000000 1.0
C      1  0.5673130000000  0.4551350000000  0.5306850000000 1.0
C      1  0.5111630000000  0.4285410000000  0.4848750000000 1.0
C      1  0.5108670000000  0.4342140000000  0.5342320000000 1.0
C      1  0.5394890000000  0.5096800000000  0.5775780000000 1.0
C      1  0.5822890000000  0.4799460000000  0.5336230000000 1.0
C      1  0.5533470000000  0.5762600000000  0.5212820000000 1.0
C      1  0.4336240000000  0.5417400000000  0.4828610000000 1.0
C      1  0.4970990000000  0.5269830000000  0.4670740000000 1.0
C      1  0.5127140000000  0.5316860000000  0.5219090000000 1.0
C      1  0.4588980000000  0.4852940000000  0.5576930000000 1.0
C      1  0.4607230000000  0.4338710000000  0.5193650000000 1.0
C      1  0.5572520000000  0.5184470000000  0.4776310000000 1.0
C      1  0.4950810000000  0.5618510000000  0.4416880000000 1.0
C      1  0.5659190000000  0.4717470000000  0.4767130000000 1.0
C      1  0.4369970000000  0.4801750000000  0.5408020000000 1.0
C      1  0.5281360000000  0.4740030000000  0.5077310000000 1.0
C      1  0.5196840000000  0.5519440000000  0.4788790000000 1.0
C      1  0.4280700000000  0.5652120000000  0.4974010000000 1.0
C      1  0.4411620000000  0.5615100000000  0.5218920000000 1.0
C      1  0.5378160000000  0.5348900000000  0.4966370000000 1.0
C      1  0.5583210000000  0.5497270000000  0.5128750000000 1.0
C      1  0.4312420000000  0.4747050000000  0.5142300000000 1.0
C      1  0.5157480000000  0.5553040000000  0.5401430000000 1.0
C      1  0.4650710000000  0.5209680000000  0.4463830000000 1.0
C      1  0.5506680000000  0.4572200000000  0.5544270000000 1.0
C      1  0.5229090000000  0.4518550000000  0.5554030000000 1.0
C      1  0.4806070000000  0.4784630000000  0.4287050000000 1.0
C      1  0.4727120000000  0.5089620000000  0.5481010000000 1.0
C      1  0.4696190000000  0.4098330000000  0.5077840000000 1.0
C      1  0.4432520000000  0.4513600000000  0.5023940000000 1.0
C      1  0.5093660000000  0.5170970000000  0.4259480000000 1.0
C      1  0.4844090000000  0.5302550000000  0.5650930000000 1.0
C      1  0.5245700000000  0.5567220000000  0.4494060000000 1.0
C      1  0.4716700000000  0.5622540000000  0.5207980000000 1.0
C      1  0.5544440000000  0.5130760000000  0.4487300000000 1.0
C      1  0.4966880000000  0.4650570000000  0.5054300000000 1.0
END
