TITL C-3578197-9521-12 1.8706624120546e-06 125000 -787.265767840302 0 0 127 (C1) n - 1
REM
REM in /home/bkarasulu/work/CARBON/AIRSS/Generating-Clusters/EDIP-Nigel-Params/with-SteepDescent/Higher-Symm/SD-CG/HFTN-CG
REM
REM
REM
REM
REM
REM ./C.cell (12c818d87b63d06a65506943cc24bca4)
REM
REM compiler GCC version 9.2.1 20190827 (Red Hat 9.2.1-1)
REM options -cpp -mtune=generic -march=x86-64 -g -O0 -fpre-include=/usr/include/finclude/math-vector-fortran.h
REM seed -884303908 1332987992 1092078023 -723973350 772779871 -1079276199 780792846 -1456427510 1903066309 488626099 -1052621012 -1457694286 1850883564 2143109877 679260838 -1355319437 -1600391255 645451145 -1460348887 26640636 690330956 2057452310 2030079700 1979596778 -1142508784 400406102 1521161935 -1864472112 -2002081239 643278112 631847170 -790303580 896207247
REM
CELL 1.54180   50.00000   50.00000   50.00000   90.00000   90.00000   90.00000
LATT -1
SFAC C  
C      1  0.5139170000000  0.4428470000000  0.4316390000000 1.0
C      1  0.4290910000000  0.4617460000000  0.4287560000000 1.0
C      1  0.4480570000000  0.5457690000000  0.4283230000000 1.0
C      1  0.5382000000000  0.5607210000000  0.4319050000000 1.0
C      1  0.5724610000000  0.5038370000000  0.4269150000000 1.0
C      1  0.4856820000000  0.4489160000000  0.4341560000000 1.0
C      1  0.4325960000000  0.4902340000000  0.4306910000000 1.0
C      1  0.4747740000000  0.5464320000000  0.4406490000000 1.0
C      1  0.5637420000000  0.5471740000000  0.4295020000000 1.0
C      1  0.5475540000000  0.4951670000000  0.4424470000000 1.0
C      1  0.5010960000000  0.4602400000000  0.4821070000000 1.0
C      1  0.4563320000000  0.4832530000000  0.4804560000000 1.0
C      1  0.4740850000000  0.5299750000000  0.4670000000000 1.0
C      1  0.5223010000000  0.5216550000000  0.4803740000000 1.0
C      1  0.5450610000000  0.4829420000000  0.4932770000000 1.0
C      1  0.5611920000000  0.4503240000000  0.5419270000000 1.0
C      1  0.4669460000000  0.4263210000000  0.5443080000000 1.0
C      1  0.4152520000000  0.4984390000000  0.5457550000000 1.0
C      1  0.4743270000000  0.5777440000000  0.5416880000000 1.0
C      1  0.5563060000000  0.5454700000000  0.5445870000000 1.0
C      1  0.5479680000000  0.4651990000000  0.4490220000000 1.0
C      1  0.4657350000000  0.4333800000000  0.4500300000000 1.0
C      1  0.4152390000000  0.5074030000000  0.4465410000000 1.0
C      1  0.4800100000000  0.5746500000000  0.4480890000000 1.0
C      1  0.5738150000000  0.5383490000000  0.4547440000000 1.0
C      1  0.4265990000000  0.5443270000000  0.4481100000000 1.0
C      1  0.5320050000000  0.5740250000000  0.4571960000000 1.0
C      1  0.5879080000000  0.5111990000000  0.4513760000000 1.0
C      1  0.5269650000000  0.4245970000000  0.4499890000000 1.0
C      1  0.4279500000000  0.4463310000000  0.4543060000000 1.0
C      1  0.5350910000000  0.5268130000000  0.5560520000000 1.0
C      1  0.5322610000000  0.4780080000000  0.5732750000000 1.0
C      1  0.4854340000000  0.4610740000000  0.5645650000000 1.0
C      1  0.4499540000000  0.5032390000000  0.5608360000000 1.0
C      1  0.4873570000000  0.5378100000000  0.5549330000000 1.0
C      1  0.4424910000000  0.4609160000000  0.5729420000000 1.0
C      1  0.4378390000000  0.5451650000000  0.5503910000000 1.0
C      1  0.5210690000000  0.5736070000000  0.5601710000000 1.0
C      1  0.5774880000000  0.5013610000000  0.5624860000000 1.0
C      1  0.5194210000000  0.4277080000000  0.5603560000000 1.0
C      1  0.5729060000000  0.4414080000000  0.4823260000000 1.0
C      1  0.4681270000000  0.4078580000000  0.4904220000000 1.0
C      1  0.4096230000000  0.5075780000000  0.4929040000000 1.0
C      1  0.4688850000000  0.5818760000000  0.4922510000000 1.0
C      1  0.5740900000000  0.5452370000000  0.5002720000000 1.0
C      1  0.4929670000000  0.4689230000000  0.5353070000000 1.0
C      1  0.4528470000000  0.4907720000000  0.5241040000000 1.0
C      1  0.4925400000000  0.5445190000000  0.5196430000000 1.0
C      1  0.5251200000000  0.5131510000000  0.5289850000000 1.0
C      1  0.5403580000000  0.4706850000000  0.5420250000000 1.0
C      1  0.4713560000000  0.5506930000000  0.4962480000000 1.0
C      1  0.5486860000000  0.5507830000000  0.5148940000000 1.0
C      1  0.5735560000000  0.4643840000000  0.5022010000000 1.0
C      1  0.4936840000000  0.4349090000000  0.5000900000000 1.0
C      1  0.4281930000000  0.4873320000000  0.5051330000000 1.0
C      1  0.5134020000000  0.5825600000000  0.5121150000000 1.0
C      1  0.5743020000000  0.5050960000000  0.5222210000000 1.0
C      1  0.5305090000000  0.4315390000000  0.5127140000000 1.0
C      1  0.4521990000000  0.4413940000000  0.5219980000000 1.0
C      1  0.4449200000000  0.5367460000000  0.5078440000000 1.0
C      1  0.4577710000000  0.5323820000000  0.5662160000000 1.0
C      1  0.5136740000000  0.5459790000000  0.5683420000000 1.0
C      1  0.5499510000000  0.5044180000000  0.5723260000000 1.0
C      1  0.5120120000000  0.4515710000000  0.5768060000000 1.0
C      1  0.4627910000000  0.4818470000000  0.5777850000000 1.0
C      1  0.4732660000000  0.4611740000000  0.4114840000000 1.0
C      1  0.4485060000000  0.5017170000000  0.4091940000000 1.0
C      1  0.4956200000000  0.5341140000000  0.4230590000000 1.0
C      1  0.4979140000000  0.5044720000000  0.4287320000000 1.0
C      1  0.5248330000000  0.4922830000000  0.4226060000000 1.0
C      1  0.5757350000000  0.5172520000000  0.4935860000000 1.0
C      1  0.5429740000000  0.4349140000000  0.4835150000000 1.0
C      1  0.4506160000000  0.4294650000000  0.4951800000000 1.0
C      1  0.4292870000000  0.5271360000000  0.4834130000000 1.0
C      1  0.4970620000000  0.5899110000000  0.4897140000000 1.0
C      1  0.4734610000000  0.5114850000000  0.5160190000000 1.0
C      1  0.5218360000000  0.5343570000000  0.5080510000000 1.0
C      1  0.5458250000000  0.4932220000000  0.5227130000000 1.0
C      1  0.5195880000000  0.4572090000000  0.5272790000000 1.0
C      1  0.4687410000000  0.4657910000000  0.5188240000000 1.0
C      1  0.6039950000000  0.4901980000000  0.4939040000000 1.0
C      1  0.5181380000000  0.4002170000000  0.4940110000000 1.0
C      1  0.4071740000000  0.4550930000000  0.5034210000000 1.0
C      1  0.4200460000000  0.5692610000000  0.4921380000000 1.0
C      1  0.5426990000000  0.5799950000000  0.5088470000000 1.0
C      1  0.5671280000000  0.5265560000000  0.4104070000000 1.0
C      1  0.5271760000000  0.4633790000000  0.4163860000000 1.0
C      1  0.4466030000000  0.4517920000000  0.4092760000000 1.0
C      1  0.4464460000000  0.5292980000000  0.4065010000000 1.0
C      1  0.5175750000000  0.5499050000000  0.4168610000000 1.0
C      1  0.4476860000000  0.5692100000000  0.5374200000000 1.0
C      1  0.5504100000000  0.5747870000000  0.5524740000000 1.0
C      1  0.5848430000000  0.4696710000000  0.5421080000000 1.0
C      1  0.4967840000000  0.4214060000000  0.5390970000000 1.0
C      1  0.4238810000000  0.4692990000000  0.5498540000000 1.0
C      1  0.5746950000000  0.5592200000000  0.4756410000000 1.0
C      1  0.5768120000000  0.4600060000000  0.4588750000000 1.0
C      1  0.4804910000000  0.4115470000000  0.4651750000000 1.0
C      1  0.4022580000000  0.4920430000000  0.4690680000000 1.0
C      1  0.4566340000000  0.5832290000000  0.4652710000000 1.0
C      1  0.4216860000000  0.5256380000000  0.5356060000000 1.0
C      1  0.5020090000000  0.5828440000000  0.5387460000000 1.0
C      1  0.5804650000000  0.5260480000000  0.5444010000000 1.0
C      1  0.5473940000000  0.4273860000000  0.5528170000000 1.0
C      1  0.4580790000000  0.4356220000000  0.5701650000000 1.0
C      1  0.6012670000000  0.4706740000000  0.5163980000000 1.0
C      1  0.5017340000000  0.4006780000000  0.5179640000000 1.0
C      1  0.4235890000000  0.4496630000000  0.5275310000000 1.0
C      1  0.4317110000000  0.5765710000000  0.5155890000000 1.0
C      1  0.5558880000000  0.5934460000000  0.5313600000000 1.0
C      1  0.4517980000000  0.4495150000000  0.4724290000000 1.0
C      1  0.4490350000000  0.5108900000000  0.4658980000000 1.0
C      1  0.5043470000000  0.5795840000000  0.4638590000000 1.0
C      1  0.5484330000000  0.5078290000000  0.4748880000000 1.0
C      1  0.5309000000000  0.4617130000000  0.4759410000000 1.0
C      1  0.4309190000000  0.5677330000000  0.4664110000000 1.0
C      1  0.5524630000000  0.5792670000000  0.4779550000000 1.0
C      1  0.5908070000000  0.4857850000000  0.4674490000000 1.0
C      1  0.5097870000000  0.4098250000000  0.4678160000000 1.0
C      1  0.4093420000000  0.4624880000000  0.4743460000000 1.0
C      1  0.4972830000000  0.5093720000000  0.4673720000000 1.0
C      1  0.4976470000000  0.4991220000000  0.5328580000000 1.0
C      1  0.4760510000000  0.4905270000000  0.4105720000000 1.0
C      1  0.4932500000000  0.5078380000000  0.5593710000000 1.0
C      1  0.5033080000000  0.5031970000000  0.6064490000000 1.0
C      1  0.4864520000000  0.4855330000000  0.4832290000000 1.0
C      1  0.5077840000000  0.4953370000000  0.5812510000000 1.0
END
