TITL C-3578204-4308-169 -4.36095033299197e-06 125000 -221.845082873028 0 0 39 (C1) n - 1
REM
REM in /home/bkarasulu/work/CARBON/AIRSS/Generating-Clusters/EDIP-Nigel-Params/with-SteepDescent/Higher-Symm/SD-CG/HFTN-CG
REM
REM
REM
REM
REM
REM ./C.cell (12c818d87b63d06a65506943cc24bca4)
REM
REM compiler GCC version 9.2.1 20190827 (Red Hat 9.2.1-1)
REM options -cpp -mtune=generic -march=x86-64 -g -O0 -fpre-include=/usr/include/finclude/math-vector-fortran.h
REM seed 1058041523 -136524880 355301519 1134567563 -1424488218 2056557097 2127514223 40571737 -1078523772 -2045559838 -1883137142 -313234767 505964664 895630308 -1780120785 -2053792182 316124526 -969847875 1746977994 2139625554 1945709414 -2132304295 995739035 1097137060 187105247 423176262 -1141587487 -604585399 1670575171 -1333825109 -658275289 561226740 1806598675
REM
CELL 1.54180   50.00000   50.00000   50.00000   90.00000   90.00000   90.00000
LATT -1
SFAC C  
C      1  0.5406930000000  0.5414450000000  0.4894240000000 1.0
C      1  0.5443770000000  0.4670670000000  0.4901060000000 1.0
C      1  0.4847180000000  0.4548210000000  0.5008000000000 1.0
C      1  0.4435420000000  0.4992690000000  0.4959440000000 1.0
C      1  0.4798080000000  0.5501190000000  0.4866210000000 1.0
C      1  0.5184910000000  0.4213800000000  0.5136290000000 1.0
C      1  0.4278060000000  0.4558840000000  0.5136340000000 1.0
C      1  0.4606110000000  0.5376450000000  0.5316790000000 1.0
C      1  0.5178690000000  0.5810600000000  0.5046660000000 1.0
C      1  0.5566630000000  0.4969480000000  0.5283360000000 1.0
C      1  0.4250270000000  0.4501190000000  0.5412290000000 1.0
C      1  0.4834880000000  0.5298670000000  0.5520250000000 1.0
C      1  0.5181580000000  0.5616070000000  0.5369020000000 1.0
C      1  0.5319900000000  0.5169730000000  0.5497030000000 1.0
C      1  0.5252910000000  0.4168480000000  0.5407500000000 1.0
C      1  0.5522350000000  0.5169350000000  0.4818890000000 1.0
C      1  0.5273910000000  0.4567400000000  0.4692110000000 1.0
C      1  0.4710630000000  0.4560470000000  0.4757990000000 1.0
C      1  0.4503300000000  0.5108840000000  0.4711660000000 1.0
C      1  0.4908590000000  0.5464740000000  0.4607130000000 1.0
C      1  0.4562660000000  0.5205600000000  0.5539750000000 1.0
C      1  0.5020940000000  0.5822530000000  0.5274730000000 1.0
C      1  0.5583350000000  0.5209160000000  0.5420430000000 1.0
C      1  0.5445230000000  0.4141450000000  0.5221410000000 1.0
C      1  0.4325490000000  0.4302560000000  0.5247340000000 1.0
C      1  0.5111910000000  0.4749630000000  0.4534360000000 1.0
C      1  0.4810830000000  0.4728370000000  0.4541110000000 1.0
C      1  0.4699850000000  0.5016590000000  0.4518050000000 1.0
C      1  0.4938340000000  0.5203360000000  0.4480070000000 1.0
C      1  0.5428740000000  0.5110280000000  0.4560160000000 1.0
C      1  0.5175060000000  0.5583400000000  0.4862480000000 1.0
C      1  0.5503620000000  0.4937160000000  0.5003690000000 1.0
C      1  0.5131250000000  0.4483710000000  0.5036900000000 1.0
C      1  0.4501350000000  0.4719680000000  0.5037050000000 1.0
C      1  0.4631380000000  0.5311140000000  0.5021240000000 1.0
C      1  0.5086350000000  0.5046180000000  0.4905340000000 1.0
C      1  0.5150240000000  0.5033130000000  0.4618510000000 1.0
C      1  0.5058350000000  0.5231250000000  0.5104880000000 1.0
C      1  0.5100710000000  0.5328250000000  0.5373680000000 1.0
END
