TITL C-3578194-7807-468 3.3260638283633e-07 125000 -140.827795320813 0 0 24 (C2) n - 1
REM
REM in /home/bkarasulu/work/CARBON/AIRSS/Generating-Clusters/EDIP-Nigel-Params/with-SteepDescent/Higher-Symm/SD-CG/HFTN-CG
REM
REM
REM
REM
REM
REM ./C.cell (12c818d87b63d06a65506943cc24bca4)
REM
REM compiler GCC version 9.2.1 20190827 (Red Hat 9.2.1-1)
REM options -cpp -mtune=generic -march=x86-64 -g -O0 -fpre-include=/usr/include/finclude/math-vector-fortran.h
REM seed -531519735 -858097156 1281051109 -994421881 -399436827 -890047966 519517819 -1700752890 -1474492363 2006571365 170190833 18181938 955392678 1270274654 -1850410919 1096209643 -1945059462 3608396 -1806723526 740900743 154153476 245906622 1624230093 -1199119856 152052000 -425579515 -1149115741 1351197652 1000047785 346222681 -762136459 -921203319 -1208825888
REM
CELL 1.54180   50.00000   50.00000   50.00000   90.00000   90.00000   90.00000
LATT -1
SFAC C  
C      1  0.5171660000000  0.4720880000000  0.4933130000000 1.0
C      1  0.5111990000000  0.5160000000000  0.4840900000000 1.0
C      1  0.5334360000000  0.4982720000000  0.5309330000000 1.0
C      1  0.4700000000000  0.4808060000000  0.4830740000000 1.0
C      1  0.4655720000000  0.5310660000000  0.4831390000000 1.0
C      1  0.4867590000000  0.5056030000000  0.5220550000000 1.0
C      1  0.5344280000000  0.4698520000000  0.5184540000000 1.0
C      1  0.5132320000000  0.5162850000000  0.5159020000000 1.0
C      1  0.5300100000000  0.4949720000000  0.4749200000000 1.0
C      1  0.4888030000000  0.4782130000000  0.5058730000000 1.0
C      1  0.4665530000000  0.5276310000000  0.5139870000000 1.0
C      1  0.4828420000000  0.5081900000000  0.4724870000000 1.0
C      1  0.5167360000000  0.4587580000000  0.5411630000000 1.0
C      1  0.5198670000000  0.4821260000000  0.4499010000000 1.0
C      1  0.5125760000000  0.5470280000000  0.5166790000000 1.0
C      1  0.4872800000000  0.4626010000000  0.5336430000000 1.0
C      1  0.4908890000000  0.4917240000000  0.4454430000000 1.0
C      1  0.4828890000000  0.5540040000000  0.5165220000000 1.0
C      1  0.5091330000000  0.4569290000000  0.4655110000000 1.0
C      1  0.5170930000000  0.4872520000000  0.5550230000000 1.0
C      1  0.5127160000000  0.5478540000000  0.4844890000000 1.0
C      1  0.4801550000000  0.4655890000000  0.4594280000000 1.0
C      1  0.4874080000000  0.4908760000000  0.5490530000000 1.0
C      1  0.4832570000000  0.5562820000000  0.4849180000000 1.0
END
