TITL C-3578194-7807-636 -3.1464828889466e-06 125000 -1188.68992494769 0 0 188 (C1) n - 1
REM
REM in /home/bkarasulu/work/CARBON/AIRSS/Generating-Clusters/EDIP-Nigel-Params/with-SteepDescent/Higher-Symm/SD-CG/HFTN-CG
REM
REM
REM
REM
REM
REM ./C.cell (12c818d87b63d06a65506943cc24bca4)
REM
REM compiler GCC version 9.2.1 20190827 (Red Hat 9.2.1-1)
REM options -cpp -mtune=generic -march=x86-64 -g -O0 -fpre-include=/usr/include/finclude/math-vector-fortran.h
REM seed -1195258979 -1984263443 81634399 -701946899 -173797655 -186710008 -491784240 -1677271978 7061634 -683123375 -2081943564 -1277427993 -1573357898 -1208428091 -1264011056 700295540 -1298083927 2064507705 1878450326 787236625 561963691 -336226111 761645705 1467494857 -431567111 -458324386 944504541 -1364843110 -2078553951 -1975942339 -2107942883 1644034911 -204755636
REM
CELL 1.54180   50.00000   50.00000   50.00000   90.00000   90.00000   90.00000
LATT -1
SFAC C  
C      1  0.4787730000000  0.5375200000000  0.5853100000000 1.0
C      1  0.4623680000000  0.5138470000000  0.5727780000000 1.0
C      1  0.4535700000000  0.4870080000000  0.5863550000000 1.0
C      1  0.4616330000000  0.4609870000000  0.5683780000000 1.0
C      1  0.4895460000000  0.4434940000000  0.5649300000000 1.0
C      1  0.5140760000000  0.4445340000000  0.5867740000000 1.0
C      1  0.5387690000000  0.4602270000000  0.5732070000000 1.0
C      1  0.5518380000000  0.4875570000000  0.5819470000000 1.0
C      1  0.5529650000000  0.5145350000000  0.5683820000000 1.0
C      1  0.5349270000000  0.5387460000000  0.5835810000000 1.0
C      1  0.5074490000000  0.5449640000000  0.5704950000000 1.0
C      1  0.4954440000000  0.4467770000000  0.4360660000000 1.0
C      1  0.5256580000000  0.4547090000000  0.4356280000000 1.0
C      1  0.5277360000000  0.4822060000000  0.4241020000000 1.0
C      1  0.5507790000000  0.4988560000000  0.4319080000000 1.0
C      1  0.5462690000000  0.5304520000000  0.4271170000000 1.0
C      1  0.5179910000000  0.5463430000000  0.4195530000000 1.0
C      1  0.4846350000000  0.5645520000000  0.4298740000000 1.0
C      1  0.4538710000000  0.5583090000000  0.4366560000000 1.0
C      1  0.4494460000000  0.5123840000000  0.4276200000000 1.0
C      1  0.4416450000000  0.4847780000000  0.4343250000000 1.0
C      1  0.4680530000000  0.4629410000000  0.4338770000000 1.0
C      1  0.5233830000000  0.4076550000000  0.4512590000000 1.0
C      1  0.5694830000000  0.4298730000000  0.4486630000000 1.0
C      1  0.5979160000000  0.4752270000000  0.4495320000000 1.0
C      1  0.5894010000000  0.5271400000000  0.4512990000000 1.0
C      1  0.5532840000000  0.5869300000000  0.4384670000000 1.0
C      1  0.5079690000000  0.6081090000000  0.4329750000000 1.0
C      1  0.4551230000000  0.6044380000000  0.4343970000000 1.0
C      1  0.4037370000000  0.5552260000000  0.4390540000000 1.0
C      1  0.4012750000000  0.5041620000000  0.4400570000000 1.0
C      1  0.4178460000000  0.4367800000000  0.4452530000000 1.0
C      1  0.4667710000000  0.4142030000000  0.4535230000000 1.0
C      1  0.4565190000000  0.5837910000000  0.4796090000000 1.0
C      1  0.4284810000000  0.5105700000000  0.5190410000000 1.0
C      1  0.4171940000000  0.5019520000000  0.4907430000000 1.0
C      1  0.4500740000000  0.4176640000000  0.5146700000000 1.0
C      1  0.4877550000000  0.4414660000000  0.5147810000000 1.0
C      1  0.5404550000000  0.4435050000000  0.5044720000000 1.0
C      1  0.5625810000000  0.4687570000000  0.5034070000000 1.0
C      1  0.5845730000000  0.5148760000000  0.5233550000000 1.0
C      1  0.5462490000000  0.5481170000000  0.5048730000000 1.0
C      1  0.5169000000000  0.5655720000000  0.5101420000000 1.0
C      1  0.4650170000000  0.5536850000000  0.5204450000000 1.0
C      1  0.4030300000000  0.4556810000000  0.4884490000000 1.0
C      1  0.4319780000000  0.4172600000000  0.4905160000000 1.0
C      1  0.5040760000000  0.3946420000000  0.4951380000000 1.0
C      1  0.5547050000000  0.4082830000000  0.4908650000000 1.0
C      1  0.5962500000000  0.4441400000000  0.4907830000000 1.0
C      1  0.5931700000000  0.4991230000000  0.4960330000000 1.0
C      1  0.5729170000000  0.5777200000000  0.4827210000000 1.0
C      1  0.5291180000000  0.6027550000000  0.4802620000000 1.0
C      1  0.4784290000000  0.6072580000000  0.4766780000000 1.0
C      1  0.4112590000000  0.5769090000000  0.4858410000000 1.0
C      1  0.4048640000000  0.5272330000000  0.4804010000000 1.0
C      1  0.5537820000000  0.5094060000000  0.5363770000000 1.0
C      1  0.5349630000000  0.5294700000000  0.5260350000000 1.0
C      1  0.5095450000000  0.5429580000000  0.5379910000000 1.0
C      1  0.4835120000000  0.5317290000000  0.5294590000000 1.0
C      1  0.4725410000000  0.5084980000000  0.5444040000000 1.0
C      1  0.4527130000000  0.4935570000000  0.5283170000000 1.0
C      1  0.4479410000000  0.4652020000000  0.5389190000000 1.0
C      1  0.4590270000000  0.4457230000000  0.5188570000000 1.0
C      1  0.5023290000000  0.4518180000000  0.5388970000000 1.0
C      1  0.5322330000000  0.4560600000000  0.5400140000000 1.0
C      1  0.5424670000000  0.4825070000000  0.5240540000000 1.0
C      1  0.4846190000000  0.4477370000000  0.6266010000000 1.0
C      1  0.5081740000000  0.4546720000000  0.6141250000000 1.0
C      1  0.5277340000000  0.4673270000000  0.6287510000000 1.0
C      1  0.5423410000000  0.4889130000000  0.6339370000000 1.0
C      1  0.5457910000000  0.5139680000000  0.6254900000000 1.0
C      1  0.5320200000000  0.5343440000000  0.6130460000000 1.0
C      1  0.5070900000000  0.5396180000000  0.6233200000000 1.0
C      1  0.4817730000000  0.5338920000000  0.6145300000000 1.0
C      1  0.4696580000000  0.5114800000000  0.6247810000000 1.0
C      1  0.4592760000000  0.4878330000000  0.6154600000000 1.0
C      1  0.4639440000000  0.4643390000000  0.6289800000000 1.0
C      1  0.4888660000000  0.4552620000000  0.4869510000000 1.0
C      1  0.5132830000000  0.4695370000000  0.4819240000000 1.0
C      1  0.5209740000000  0.4936430000000  0.4941500000000 1.0
C      1  0.5439480000000  0.5064360000000  0.4827560000000 1.0
C      1  0.5431330000000  0.5342710000000  0.4779010000000 1.0
C      1  0.5160030000000  0.5380740000000  0.4688250000000 1.0
C      1  0.4988260000000  0.5563700000000  0.4859600000000 1.0
C      1  0.4684220000000  0.5538710000000  0.4899930000000 1.0
C      1  0.4587080000000  0.5279550000000  0.4757100000000 1.0
C      1  0.4612100000000  0.5016890000000  0.4857360000000 1.0
C      1  0.4645070000000  0.4734470000000  0.4846510000000 1.0
C      1  0.4250950000000  0.4466800000000  0.4184540000000 1.0
C      1  0.4666570000000  0.4159010000000  0.4232070000000 1.0
C      1  0.5198590000000  0.4126680000000  0.4230030000000 1.0
C      1  0.5636470000000  0.4364400000000  0.4217610000000 1.0
C      1  0.5884110000000  0.4774060000000  0.4221320000000 1.0
C      1  0.5899280000000  0.5281430000000  0.4208170000000 1.0
C      1  0.5533630000000  0.5720550000000  0.4133530000000 1.0
C      1  0.5080070000000  0.5941560000000  0.4067250000000 1.0
C      1  0.4569760000000  0.5915480000000  0.4076220000000 1.0
C      1  0.4182870000000  0.5499130000000  0.4119390000000 1.0
C      1  0.4058500000000  0.4980230000000  0.4113480000000 1.0
C      1  0.5863130000000  0.4538090000000  0.5764340000000 1.0
C      1  0.5978130000000  0.5040330000000  0.5720350000000 1.0
C      1  0.5738870000000  0.5625910000000  0.5646470000000 1.0
C      1  0.5291860000000  0.5866480000000  0.5674590000000 1.0
C      1  0.4777640000000  0.5834650000000  0.5652610000000 1.0
C      1  0.4355900000000  0.5549210000000  0.5662390000000 1.0
C      1  0.4124790000000  0.5089370000000  0.5686680000000 1.0
C      1  0.4156400000000  0.4575490000000  0.5723210000000 1.0
C      1  0.4462820000000  0.4158530000000  0.5658800000000 1.0
C      1  0.5085470000000  0.3953180000000  0.5784020000000 1.0
C      1  0.5526660000000  0.4162980000000  0.5769990000000 1.0
C      1  0.4169410000000  0.4587730000000  0.5424670000000 1.0
C      1  0.4324730000000  0.4117010000000  0.5390720000000 1.0
C      1  0.5114240000000  0.3884760000000  0.5504110000000 1.0
C      1  0.5525460000000  0.4173460000000  0.5479360000000 1.0
C      1  0.5868260000000  0.4522170000000  0.5474610000000 1.0
C      1  0.6035260000000  0.4994220000000  0.5429330000000 1.0
C      1  0.5714240000000  0.5660380000000  0.5363640000000 1.0
C      1  0.5290040000000  0.5953710000000  0.5390270000000 1.0
C      1  0.4753560000000  0.5840950000000  0.5351400000000 1.0
C      1  0.4267830000000  0.5632090000000  0.5399790000000 1.0
C      1  0.4038650000000  0.5085780000000  0.5399980000000 1.0
C      1  0.5252850000000  0.4157810000000  0.5893970000000 1.0
C      1  0.5607350000000  0.4426750000000  0.5866950000000 1.0
C      1  0.5814630000000  0.4821390000000  0.5857870000000 1.0
C      1  0.5796620000000  0.5268230000000  0.5740400000000 1.0
C      1  0.5488540000000  0.5658590000000  0.5786550000000 1.0
C      1  0.5041560000000  0.5744360000000  0.5761180000000 1.0
C      1  0.4614890000000  0.5623030000000  0.5781250000000 1.0
C      1  0.4353680000000  0.5265530000000  0.5720300000000 1.0
C      1  0.4229350000000  0.4846930000000  0.5826050000000 1.0
C      1  0.4406000000000  0.4419420000000  0.5794750000000 1.0
C      1  0.4773940000000  0.4130410000000  0.5642550000000 1.0
C      1  0.4076250000000  0.4299740000000  0.5019190000000 1.0
C      1  0.4813370000000  0.4030540000000  0.5134370000000 1.0
C      1  0.5303940000000  0.4010020000000  0.5061850000000 1.0
C      1  0.5760970000000  0.4267950000000  0.5053860000000 1.0
C      1  0.6016700000000  0.4711380000000  0.5050920000000 1.0
C      1  0.5833660000000  0.5537810000000  0.4941400000000 1.0
C      1  0.5505610000000  0.5903690000000  0.4957090000000 1.0
C      1  0.5034100000000  0.6043480000000  0.4934250000000 1.0
C      1  0.4344740000000  0.5915510000000  0.4982540000000 1.0
C      1  0.4095870000000  0.5496610000000  0.4970630000000 1.0
C      1  0.3981710000000  0.4810230000000  0.5018180000000 1.0
C      1  0.4137150000000  0.5791630000000  0.4551680000000 1.0
C      1  0.4126890000000  0.5300820000000  0.4522180000000 1.0
C      1  0.4040580000000  0.4583400000000  0.4595080000000 1.0
C      1  0.4414120000000  0.4292670000000  0.4640290000000 1.0
C      1  0.4998010000000  0.3972250000000  0.4662090000000 1.0
C      1  0.5499280000000  0.4132060000000  0.4625700000000 1.0
C      1  0.5915930000000  0.4471350000000  0.4613400000000 1.0
C      1  0.5883300000000  0.5001120000000  0.4652980000000 1.0
C      1  0.5706200000000  0.5711280000000  0.4547440000000 1.0
C      1  0.5305540000000  0.6010990000000  0.4509170000000 1.0
C      1  0.4810700000000  0.6149420000000  0.4464190000000 1.0
C      1  0.4102410000000  0.4309270000000  0.5320180000000 1.0
C      1  0.4845060000000  0.3935960000000  0.5409780000000 1.0
C      1  0.5331400000000  0.4005850000000  0.5347020000000 1.0
C      1  0.5761830000000  0.4281690000000  0.5349700000000 1.0
C      1  0.6050040000000  0.4706510000000  0.5343690000000 1.0
C      1  0.5870450000000  0.5463040000000  0.5206870000000 1.0
C      1  0.5526790000000  0.5868300000000  0.5244410000000 1.0
C      1  0.5018150000000  0.5988070000000  0.5231700000000 1.0
C      1  0.4422800000000  0.5850160000000  0.5267280000000 1.0
C      1  0.4100130000000  0.5437750000000  0.5257450000000 1.0
C      1  0.3986190000000  0.4803230000000  0.5309610000000 1.0
C      1  0.4828200000000  0.5861850000000  0.3973810000000 1.0
C      1  0.4377430000000  0.5699350000000  0.4031030000000 1.0
C      1  0.4276870000000  0.5194200000000  0.4075650000000 1.0
C      1  0.4120390000000  0.4698980000000  0.4073430000000 1.0
C      1  0.4512580000000  0.4374700000000  0.4108180000000 1.0
C      1  0.4933470000000  0.4161890000000  0.4123950000000 1.0
C      1  0.5392230000000  0.4290530000000  0.4102220000000 1.0
C      1  0.5808090000000  0.4540810000000  0.4091500000000 1.0
C      1  0.5825510000000  0.5023710000000  0.4101470000000 1.0
C      1  0.5739450000000  0.5506280000000  0.4086290000000 1.0
C      1  0.5292470000000  0.5760370000000  0.3981160000000 1.0
C      1  0.4958000000000  0.5762000000000  0.4602140000000 1.0
C      1  0.4437270000000  0.5821650000000  0.4518630000000 1.0
C      1  0.4444480000000  0.5317520000000  0.4493690000000 1.0
C      1  0.4176580000000  0.4848610000000  0.4561230000000 1.0
C      1  0.4521320000000  0.4593720000000  0.4621450000000 1.0
C      1  0.4897230000000  0.4343140000000  0.4625730000000 1.0
C      1  0.5325970000000  0.4532160000000  0.4672750000000 1.0
C      1  0.5590830000000  0.4655500000000  0.4722520000000 1.0
C      1  0.5590480000000  0.4932380000000  0.4620170000000 1.0
C      1  0.5630300000000  0.5419240000000  0.4535090000000 1.0
C      1  0.5207710000000  0.5585340000000  0.4475400000000 1.0
C      1  0.5165930000000  0.4866880000000  0.4005550000000 1.0
END
