TITL C-3578205-846-533 -1.50514469287439e-06 125000 -823.402341391666 0 0 135 (C1) n - 1
REM
REM in /home/bkarasulu/work/CARBON/AIRSS/Generating-Clusters/EDIP-Nigel-Params/with-SteepDescent/Higher-Symm/SD-CG/HFTN-CG
REM
REM
REM
REM
REM
REM ./C.cell (12c818d87b63d06a65506943cc24bca4)
REM
REM compiler GCC version 9.2.1 20190827 (Red Hat 9.2.1-1)
REM options -cpp -mtune=generic -march=x86-64 -g -O0 -fpre-include=/usr/include/finclude/math-vector-fortran.h
REM seed 851067894 1980719306 734694494 -661980574 419807695 1170546082 -763302294 950891333 557715224 -234227832 2117266424 1539453996 -576825662 -1113759985 -980392113 1426005724 -1138355324 -264581183 -1176784133 -1380107333 -275998574 96449811 271048641 -1748994586 1898338507 165091525 877992505 -1839272195 -496229117 -2086089083 -1664737863 -2124147822 564078073
REM
CELL 1.54180   50.00000   50.00000   50.00000   90.00000   90.00000   90.00000
LATT -1
SFAC C  
C      1  0.5165700000000  0.4398270000000  0.4059190000000 1.0
C      1  0.5149680000000  0.3944970000000  0.5334280000000 1.0
C      1  0.5245900000000  0.4948730000000  0.6105880000000 1.0
C      1  0.5132520000000  0.6054940000000  0.5389670000000 1.0
C      1  0.5237420000000  0.5683240000000  0.4130380000000 1.0
C      1  0.4163650000000  0.4554490000000  0.5524160000000 1.0
C      1  0.4194590000000  0.5386580000000  0.5569100000000 1.0
C      1  0.4174240000000  0.5657370000000  0.4854610000000 1.0
C      1  0.4227120000000  0.5014680000000  0.4345680000000 1.0
C      1  0.4244430000000  0.4380690000000  0.4770250000000 1.0
C      1  0.4201160000000  0.5604400000000  0.5340040000000 1.0
C      1  0.4166910000000  0.5477830000000  0.4539840000000 1.0
C      1  0.4268360000000  0.4716990000000  0.4414910000000 1.0
C      1  0.4266500000000  0.4363430000000  0.5074030000000 1.0
C      1  0.4143210000000  0.4890110000000  0.5676090000000 1.0
C      1  0.5404170000000  0.4378990000000  0.4546180000000 1.0
C      1  0.5397050000000  0.4406300000000  0.5398530000000 1.0
C      1  0.5416380000000  0.5232970000000  0.5698970000000 1.0
C      1  0.5396460000000  0.5746480000000  0.5042970000000 1.0
C      1  0.5421510000000  0.5246270000000  0.4293730000000 1.0
C      1  0.5514610000000  0.4572730000000  0.5652290000000 1.0
C      1  0.5537690000000  0.5591920000000  0.5630360000000 1.0
C      1  0.5550220000000  0.5770430000000  0.4685740000000 1.0
C      1  0.5524200000000  0.4898010000000  0.4171160000000 1.0
C      1  0.5541200000000  0.4146570000000  0.4831970000000 1.0
C      1  0.4091100000000  0.4531650000000  0.5242080000000 1.0
C      1  0.4048400000000  0.5121520000000  0.5511500000000 1.0
C      1  0.4101780000000  0.5490650000000  0.5084290000000 1.0
C      1  0.4105850000000  0.5187330000000  0.4562900000000 1.0
C      1  0.4134270000000  0.4630530000000  0.4661800000000 1.0
C      1  0.4476210000000  0.4506400000000  0.4338040000000 1.0
C      1  0.4448910000000  0.4212930000000  0.5258270000000 1.0
C      1  0.4401620000000  0.4998990000000  0.5757860000000 1.0
C      1  0.4444870000000  0.5773260000000  0.5257070000000 1.0
C      1  0.4415720000000  0.5457070000000  0.4389960000000 1.0
C      1  0.5681050000000  0.4801160000000  0.4810840000000 1.0
C      1  0.5691750000000  0.4756790000000  0.5118700000000 1.0
C      1  0.5680430000000  0.5047370000000  0.5255380000000 1.0
C      1  0.5678600000000  0.5267760000000  0.5039590000000 1.0
C      1  0.5676980000000  0.5115910000000  0.4758730000000 1.0
C      1  0.4146170000000  0.5033680000000  0.5254970000000 1.0
C      1  0.4233510000000  0.5231990000000  0.5061200000000 1.0
C      1  0.4236440000000  0.5090730000000  0.4806270000000 1.0
C      1  0.4195290000000  0.4812690000000  0.4870950000000 1.0
C      1  0.4070100000000  0.4790960000000  0.5123510000000 1.0
C      1  0.4901510000000  0.5392910000000  0.5120880000000 1.0
C      1  0.4912190000000  0.5249340000000  0.4641090000000 1.0
C      1  0.4898880000000  0.4758770000000  0.4676660000000 1.0
C      1  0.4908020000000  0.4617600000000  0.5086200000000 1.0
C      1  0.4914440000000  0.5018620000000  0.5441410000000 1.0
C      1  0.5684390000000  0.4757390000000  0.4361190000000 1.0
C      1  0.5700750000000  0.4307300000000  0.5004720000000 1.0
C      1  0.5706500000000  0.4776410000000  0.5607160000000 1.0
C      1  0.5695530000000  0.5570320000000  0.5393180000000 1.0
C      1  0.5704130000000  0.5544320000000  0.4592730000000 1.0
C      1  0.4633930000000  0.5625720000000  0.4495870000000 1.0
C      1  0.4716810000000  0.4742320000000  0.4145240000000 1.0
C      1  0.4719720000000  0.4103090000000  0.5002990000000 1.0
C      1  0.4622220000000  0.4805540000000  0.5765050000000 1.0
C      1  0.4709650000000  0.5705580000000  0.5529590000000 1.0
C      1  0.5919250000000  0.5116390000000  0.5414530000000 1.0
C      1  0.5946300000000  0.5392550000000  0.5013730000000 1.0
C      1  0.5947350000000  0.5109820000000  0.4631780000000 1.0
C      1  0.5952200000000  0.4686110000000  0.4764230000000 1.0
C      1  0.5963550000000  0.4668520000000  0.5203370000000 1.0
C      1  0.4678510000000  0.4878450000000  0.5263030000000 1.0
C      1  0.4650100000000  0.5196880000000  0.5202790000000 1.0
C      1  0.4635450000000  0.5265810000000  0.4875070000000 1.0
C      1  0.4653010000000  0.4976410000000  0.4720760000000 1.0
C      1  0.4624540000000  0.4752250000000  0.4958290000000 1.0
C      1  0.5165210000000  0.4852740000000  0.4800830000000 1.0
C      1  0.5175630000000  0.4764560000000  0.5087620000000 1.0
C      1  0.5181440000000  0.5008720000000  0.5276160000000 1.0
C      1  0.5164010000000  0.5245810000000  0.5084110000000 1.0
C      1  0.5168040000000  0.5154380000000  0.4794820000000 1.0
C      1  0.5526880000000  0.4503510000000  0.5144520000000 1.0
C      1  0.5447200000000  0.5027520000000  0.5460060000000 1.0
C      1  0.5515800000000  0.5499040000000  0.5168800000000 1.0
C      1  0.5519780000000  0.5303400000000  0.4574690000000 1.0
C      1  0.5506030000000  0.4666680000000  0.4591120000000 1.0
C      1  0.5963060000000  0.4745460000000  0.5481390000000 1.0
C      1  0.5940750000000  0.5404420000000  0.5396110000000 1.0
C      1  0.5956760000000  0.5474910000000  0.4735020000000 1.0
C      1  0.5940370000000  0.4887950000000  0.4442050000000 1.0
C      1  0.5950270000000  0.4429990000000  0.4902900000000 1.0
C      1  0.5356610000000  0.4118660000000  0.5409600000000 1.0
C      1  0.5428230000000  0.5100180000000  0.5954380000000 1.0
C      1  0.5341040000000  0.5960050000000  0.5229070000000 1.0
C      1  0.5434490000000  0.5483150000000  0.4130480000000 1.0
C      1  0.5354150000000  0.4346530000000  0.4262270000000 1.0
C      1  0.4921910000000  0.4301530000000  0.5148120000000 1.0
C      1  0.4884880000000  0.4936250000000  0.5765460000000 1.0
C      1  0.4916700000000  0.5659170000000  0.5296790000000 1.0
C      1  0.4885230000000  0.5508160000000  0.4401300000000 1.0
C      1  0.4895020000000  0.4630260000000  0.4378280000000 1.0
C      1  0.5036840000000  0.5103690000000  0.6210310000000 1.0
C      1  0.4913360000000  0.6144850000000  0.5239890000000 1.0
C      1  0.5026690000000  0.5631830000000  0.3949330000000 1.0
C      1  0.4939270000000  0.4234910000000  0.4081700000000 1.0
C      1  0.4927100000000  0.3961560000000  0.5503780000000 1.0
C      1  0.4413390000000  0.4397460000000  0.5518400000000 1.0
C      1  0.4440520000000  0.5288370000000  0.5690680000000 1.0
C      1  0.4423050000000  0.5780310000000  0.4944880000000 1.0
C      1  0.4459660000000  0.5176500000000  0.4288050000000 1.0
C      1  0.4463040000000  0.4318290000000  0.4588730000000 1.0
C      1  0.5280400000000  0.5671060000000  0.4625560000000 1.0
C      1  0.5240910000000  0.4852380000000  0.4216130000000 1.0
C      1  0.5258500000000  0.4149530000000  0.4901650000000 1.0
C      1  0.5253490000000  0.4707840000000  0.5688480000000 1.0
C      1  0.5249000000000  0.5628770000000  0.5587680000000 1.0
C      1  0.4872530000000  0.4435580000000  0.5580330000000 1.0
C      1  0.4909650000000  0.5384000000000  0.5840910000000 1.0
C      1  0.4885200000000  0.5821580000000  0.4876400000000 1.0
C      1  0.4915940000000  0.5187490000000  0.4094690000000 1.0
C      1  0.4918690000000  0.4187600000000  0.4561830000000 1.0
C      1  0.5150590000000  0.5378340000000  0.5675920000000 1.0
C      1  0.5140470000000  0.5680560000000  0.4879870000000 1.0
C      1  0.5133050000000  0.5117490000000  0.4282850000000 1.0
C      1  0.5150590000000  0.4299820000000  0.4688620000000 1.0
C      1  0.5109370000000  0.4561720000000  0.5474880000000 1.0
C      1  0.4629350000000  0.4580560000000  0.5585370000000 1.0
C      1  0.4669590000000  0.5470640000000  0.5705130000000 1.0
C      1  0.4646830000000  0.5694650000000  0.4779260000000 1.0
C      1  0.4673320000000  0.5036780000000  0.4142380000000 1.0
C      1  0.4680930000000  0.4170570000000  0.4717170000000 1.0
C      1  0.5110550000000  0.5705090000000  0.4396510000000 1.0
C      1  0.5079300000000  0.4682310000000  0.4037750000000 1.0
C      1  0.5075080000000  0.3960350000000  0.5045650000000 1.0
C      1  0.5135690000000  0.4731560000000  0.5946840000000 1.0
C      1  0.5058170000000  0.5858640000000  0.5598940000000 1.0
C      1  0.4851510000000  0.5467560000000  0.4102910000000 1.0
C      1  0.4825370000000  0.4334460000000  0.4330930000000 1.0
C      1  0.4804900000000  0.4210350000000  0.5416930000000 1.0
C      1  0.4864760000000  0.5142040000000  0.5986770000000 1.0
C      1  0.4800990000000  0.5894670000000  0.5144520000000 1.0
END
