TITL C-3577090-796-748 -9.27898822472502e-06 125000 -792.17251607069 0 0 128 (C1) n - 1
REM
REM in /home/bkarasulu/work/CARBON/AIRSS/Generating-Clusters/EDIP-Nigel-Params/with-SteepDescent/Higher-Symm/SD-CG/HFTN-CG
REM
REM
REM
REM
REM
REM ./C.cell (12c818d87b63d06a65506943cc24bca4)
REM
REM compiler GCC version 9.2.1 20190827 (Red Hat 9.2.1-1)
REM options -cpp -mtune=generic -march=x86-64 -g -O0 -fpre-include=/usr/include/finclude/math-vector-fortran.h
REM seed 905682391 -2009948469 -489638116 -1485812173 1376160723 327797682 732273362 -1884231570 -2075406068 1842962491 -1208830392 -678508657 2107364536 -1914143144 2140379113 988525671 -218452378 1678778854 300411812 504478683 -1830363358 -1843078101 -2053349823 -786728135 404458165 -640519881 441665390 890241671 -280000778 -748876613 -2087235248 206760711 1104055323
REM
CELL 1.54180   50.00000   50.00000   50.00000   90.00000   90.00000   90.00000
LATT -1
SFAC C  
C      1  0.4291170000000  0.5462090000000  0.5635530000000 1.0
C      1  0.4088320000000  0.5479330000000  0.4673680000000 1.0
C      1  0.4825700000000  0.5486920000000  0.4024990000000 1.0
C      1  0.5710840000000  0.5462510000000  0.4369470000000 1.0
C      1  0.5896230000000  0.5433200000000  0.5307150000000 1.0
C      1  0.5179770000000  0.5463650000000  0.5961420000000 1.0
C      1  0.5717240000000  0.4546990000000  0.5647810000000 1.0
C      1  0.5924590000000  0.4535890000000  0.4663660000000 1.0
C      1  0.5189490000000  0.4556650000000  0.4059290000000 1.0
C      1  0.4277570000000  0.4587140000000  0.4359760000000 1.0
C      1  0.4109630000000  0.4570890000000  0.5322230000000 1.0
C      1  0.4831590000000  0.4542210000000  0.5964460000000 1.0
C      1  0.4945360000000  0.5495770000000  0.5385980000000 1.0
C      1  0.4668320000000  0.5518890000000  0.5162490000000 1.0
C      1  0.4691460000000  0.5511800000000  0.4721340000000 1.0
C      1  0.5004420000000  0.5523380000000  0.4602280000000 1.0
C      1  0.5299020000000  0.5523900000000  0.4841090000000 1.0
C      1  0.5263130000000  0.5507040000000  0.5195300000000 1.0
C      1  0.5122670000000  0.4480380000000  0.5418280000000 1.0
C      1  0.5373140000000  0.4475890000000  0.5174740000000 1.0
C      1  0.5321890000000  0.4468480000000  0.4835030000000 1.0
C      1  0.4978070000000  0.4490870000000  0.4652320000000 1.0
C      1  0.4689700000000  0.4514140000000  0.4826840000000 1.0
C      1  0.4741610000000  0.4497920000000  0.5202950000000 1.0
C      1  0.5601600000000  0.5736130000000  0.5066970000000 1.0
C      1  0.5255120000000  0.5737130000000  0.5569720000000 1.0
C      1  0.4635080000000  0.5768220000000  0.5517540000000 1.0
C      1  0.4390500000000  0.5758060000000  0.4918960000000 1.0
C      1  0.4739570000000  0.5801420000000  0.4392310000000 1.0
C      1  0.5353930000000  0.5768190000000  0.4494160000000 1.0
C      1  0.4390790000000  0.4290630000000  0.5051220000000 1.0
C      1  0.4777660000000  0.4265330000000  0.5571380000000 1.0
C      1  0.5418630000000  0.4204270000000  0.5514270000000 1.0
C      1  0.5643410000000  0.4228620000000  0.4935030000000 1.0
C      1  0.5249900000000  0.4268090000000  0.4449400000000 1.0
C      1  0.4631150000000  0.4281770000000  0.4489600000000 1.0
C      1  0.5067920000000  0.4772640000000  0.5334110000000 1.0
C      1  0.4819060000000  0.4777170000000  0.5176130000000 1.0
C      1  0.4775090000000  0.4807340000000  0.4886340000000 1.0
C      1  0.5029420000000  0.4783190000000  0.4718910000000 1.0
C      1  0.5298560000000  0.4783490000000  0.4860990000000 1.0
C      1  0.5324670000000  0.4791800000000  0.5170860000000 1.0
C      1  0.4956840000000  0.5203570000000  0.5306000000000 1.0
C      1  0.5194610000000  0.5215030000000  0.5138100000000 1.0
C      1  0.5245350000000  0.5226630000000  0.4846210000000 1.0
C      1  0.5010040000000  0.5224020000000  0.4675570000000 1.0
C      1  0.4651170000000  0.5223970000000  0.4834040000000 1.0
C      1  0.4680730000000  0.5199350000000  0.5142550000000 1.0
C      1  0.5216860000000  0.4441130000000  0.5708190000000 1.0
C      1  0.4532920000000  0.4457020000000  0.5533510000000 1.0
C      1  0.4262600000000  0.4461270000000  0.4831310000000 1.0
C      1  0.4776680000000  0.4451120000000  0.4271580000000 1.0
C      1  0.5516580000000  0.4427950000000  0.4451370000000 1.0
C      1  0.5761630000000  0.4416190000000  0.5171080000000 1.0
C      1  0.4780740000000  0.5579920000000  0.5730190000000 1.0
C      1  0.5500790000000  0.5559380000000  0.5552680000000 1.0
C      1  0.5723180000000  0.5568460000000  0.4834890000000 1.0
C      1  0.5209290000000  0.5589410000000  0.4280090000000 1.0
C      1  0.4520010000000  0.5579180000000  0.4473730000000 1.0
C      1  0.4282370000000  0.5588910000000  0.5160130000000 1.0
C      1  0.4288020000000  0.5671660000000  0.4649900000000 1.0
C      1  0.4934330000000  0.5678640000000  0.4195230000000 1.0
C      1  0.5620470000000  0.5639910000000  0.4564590000000 1.0
C      1  0.5675080000000  0.5601580000000  0.5322140000000 1.0
C      1  0.5068090000000  0.5645210000000  0.5783050000000 1.0
C      1  0.4367100000000  0.5654420000000  0.5448590000000 1.0
C      1  0.5710700000000  0.4356800000000  0.4663450000000 1.0
C      1  0.5061550000000  0.4381730000000  0.4234520000000 1.0
C      1  0.4361660000000  0.4408260000000  0.4555690000000 1.0
C      1  0.4328210000000  0.4398100000000  0.5320180000000 1.0
C      1  0.4949890000000  0.4348500000000  0.5802840000000 1.0
C      1  0.5679330000000  0.4345580000000  0.5459480000000 1.0
C      1  0.5639850000000  0.5022280000000  0.5579790000000 1.0
C      1  0.4837180000000  0.5033820000000  0.5913560000000 1.0
C      1  0.4168460000000  0.5057230000000  0.5272930000000 1.0
C      1  0.4372450000000  0.5053900000000  0.4411200000000 1.0
C      1  0.5129340000000  0.5021150000000  0.4223350000000 1.0
C      1  0.5879200000000  0.5029580000000  0.4687640000000 1.0
C      1  0.4369840000000  0.4985990000000  0.5577080000000 1.0
C      1  0.5129150000000  0.4988920000000  0.5805120000000 1.0
C      1  0.5839640000000  0.4954690000000  0.5266880000000 1.0
C      1  0.5614210000000  0.4991830000000  0.4503680000000 1.0
C      1  0.4843950000000  0.4989700000000  0.4093310000000 1.0
C      1  0.4169720000000  0.4991850000000  0.4730580000000 1.0
C      1  0.5565450000000  0.5231210000000  0.4319200000000 1.0
C      1  0.5941300000000  0.5213200000000  0.5144080000000 1.0
C      1  0.5302140000000  0.5229560000000  0.5874750000000 1.0
C      1  0.4415160000000  0.5234790000000  0.5737830000000 1.0
C      1  0.4065630000000  0.5255840000000  0.4837900000000 1.0
C      1  0.4690100000000  0.5253400000000  0.4093620000000 1.0
C      1  0.4412140000000  0.4804710000000  0.4250830000000 1.0
C      1  0.4057810000000  0.4793980000000  0.5164270000000 1.0
C      1  0.4686150000000  0.4773760000000  0.5906500000000 1.0
C      1  0.5581200000000  0.4772420000000  0.5739880000000 1.0
C      1  0.5950840000000  0.4764020000000  0.4821030000000 1.0
C      1  0.5311070000000  0.4784120000000  0.4163600000000 1.0
C      1  0.5875230000000  0.4703950000000  0.5099170000000 1.0
C      1  0.5301650000000  0.4723330000000  0.5813910000000 1.0
C      1  0.4507590000000  0.4731070000000  0.5680350000000 1.0
C      1  0.4123450000000  0.4732270000000  0.4888250000000 1.0
C      1  0.4690220000000  0.4742410000000  0.4197230000000 1.0
C      1  0.5522080000000  0.4722150000000  0.4357640000000 1.0
C      1  0.4133540000000  0.5317140000000  0.5111220000000 1.0
C      1  0.4691410000000  0.5282080000000  0.5803140000000 1.0
C      1  0.5514800000000  0.5285770000000  0.5687320000000 1.0
C      1  0.5852410000000  0.5275940000000  0.4873440000000 1.0
C      1  0.5294160000000  0.5288220000000  0.4225810000000 1.0
C      1  0.4497620000000  0.5306560000000  0.4307930000000 1.0
C      1  0.4861440000000  0.5928470000000  0.4653280000000 1.0
C      1  0.5177900000000  0.5903600000000  0.4719710000000 1.0
C      1  0.5308530000000  0.5893560000000  0.5043820000000 1.0
C      1  0.5132440000000  0.5887900000000  0.5322110000000 1.0
C      1  0.4812780000000  0.5907100000000  0.5298250000000 1.0
C      1  0.4674410000000  0.5897220000000  0.4933930000000 1.0
C      1  0.5130220000000  0.4102730000000  0.4710990000000 1.0
C      1  0.4795470000000  0.4109780000000  0.4722750000000 1.0
C      1  0.4654270000000  0.4117730000000  0.5011400000000 1.0
C      1  0.4908100000000  0.4112600000000  0.5315510000000 1.0
C      1  0.5243720000000  0.4076890000000  0.5286550000000 1.0
C      1  0.5345870000000  0.4085180000000  0.4979020000000 1.0
C      1  0.5443600000000  0.5018340000000  0.4754340000000 1.0
C      1  0.5019510000000  0.4990670000000  0.4499980000000 1.0
C      1  0.5536320000000  0.4980160000000  0.5290100000000 1.0
C      1  0.4471380000000  0.5028070000000  0.5283340000000 1.0
C      1  0.4489970000000  0.5000330000000  0.4701700000000 1.0
C      1  0.5036560000000  0.4999940000000  0.5519390000000 1.0
C      1  0.4924460000000  0.5684570000000  0.4999620000000 1.0
C      1  0.4980710000000  0.4314580000000  0.5053640000000 1.0
END
