TITL C-3577089-586-692 -1.29621448664517e-06 125000 -450.583941766784 0 0 72 (C1) n - 1
REM
REM in /home/bkarasulu/work/CARBON/AIRSS/Generating-Clusters/EDIP-Nigel-Params/with-SteepDescent/Higher-Symm/SD-CG/HFTN-CG
REM
REM
REM
REM
REM
REM ./C.cell (12c818d87b63d06a65506943cc24bca4)
REM
REM compiler GCC version 9.2.1 20190827 (Red Hat 9.2.1-1)
REM options -cpp -mtune=generic -march=x86-64 -g -O0 -fpre-include=/usr/include/finclude/math-vector-fortran.h
REM seed -1641996834 1046089050 1002645474 -1069283442 -211258217 830202039 -1697562857 1116184811 1217698875 1004058674 931059883 -362488898 1747439019 -355418732 -709656435 -102795620 -157404269 1550673425 1185733459 1358166264 481435747 -31013028 -1039458393 -978011235 -68698496 262808106 949238717 120948583 -103085781 1015595275 -1226335308 -1228092699 -919867159
REM
CELL 1.54180   50.00000   50.00000   50.00000   90.00000   90.00000   90.00000
LATT -1
SFAC C  
C      1  0.4534690000000  0.4645300000000  0.4603160000000 1.0
C      1  0.4925180000000  0.5579330000000  0.4601710000000 1.0
C      1  0.5542460000000  0.4773390000000  0.4601650000000 1.0
C      1  0.5083260000000  0.5184630000000  0.4716580000000 1.0
C      1  0.5122820000000  0.4837000000000  0.4718010000000 1.0
C      1  0.4801160000000  0.4978110000000  0.4712360000000 1.0
C      1  0.5093470000000  0.4505470000000  0.5493390000000 1.0
C      1  0.4525650000000  0.5164880000000  0.5491810000000 1.0
C      1  0.5381130000000  0.5328060000000  0.5492940000000 1.0
C      1  0.4234510000000  0.4888120000000  0.5258550000000 1.0
C      1  0.5285980000000  0.5717880000000  0.5257960000000 1.0
C      1  0.5479330000000  0.4392540000000  0.5258590000000 1.0
C      1  0.4813430000000  0.4569620000000  0.4555380000000 1.0
C      1  0.4724640000000  0.5371260000000  0.4551650000000 1.0
C      1  0.5458050000000  0.5050200000000  0.4552550000000 1.0
C      1  0.5165280000000  0.5478460000000  0.4482900000000 1.0
C      1  0.5333460000000  0.4618700000000  0.4482020000000 1.0
C      1  0.4502790000000  0.4905280000000  0.4482540000000 1.0
C      1  0.4899320000000  0.5517490000000  0.5458850000000 1.0
C      1  0.5499660000000  0.4827560000000  0.5460290000000 1.0
C      1  0.4600120000000  0.4652410000000  0.5460390000000 1.0
C      1  0.5320450000000  0.4139480000000  0.5274790000000 1.0
C      1  0.4094680000000  0.5152250000000  0.5275290000000 1.0
C      1  0.5584650000000  0.5707510000000  0.5274810000000 1.0
C      1  0.4774290000000  0.5724750000000  0.5313790000000 1.0
C      1  0.5741430000000  0.4832180000000  0.5314890000000 1.0
C      1  0.4481480000000  0.4440790000000  0.5315980000000 1.0
C      1  0.5379700000000  0.4566550000000  0.5468430000000 1.0
C      1  0.4434360000000  0.4886860000000  0.5468830000000 1.0
C      1  0.5185120000000  0.5545230000000  0.5468170000000 1.0
C      1  0.4704210000000  0.4952360000000  0.4281690000000 1.0
C      1  0.5102790000000  0.5280550000000  0.4282360000000 1.0
C      1  0.5189070000000  0.4772670000000  0.4283950000000 1.0
C      1  0.5331870000000  0.5048220000000  0.5533490000000 1.0
C      1  0.4875130000000  0.4687540000000  0.5534170000000 1.0
C      1  0.4792730000000  0.5261650000000  0.5532110000000 1.0
C      1  0.4905010000000  0.4748710000000  0.4345110000000 1.0
C      1  0.4804550000000  0.5229610000000  0.4301990000000 1.0
C      1  0.5293790000000  0.5053060000000  0.4302820000000 1.0
C      1  0.5581840000000  0.5144490000000  0.5025460000000 1.0
C      1  0.4832630000000  0.4423740000000  0.5029080000000 1.0
C      1  0.4584020000000  0.5429700000000  0.5024750000000 1.0
C      1  0.4945730000000  0.4163890000000  0.5153910000000 1.0
C      1  0.4303440000000  0.5463570000000  0.5152210000000 1.0
C      1  0.5750790000000  0.5371150000000  0.5152710000000 1.0
C      1  0.4401110000000  0.4888400000000  0.4998290000000 1.0
C      1  0.5203470000000  0.5572650000000  0.4998160000000 1.0
C      1  0.5395950000000  0.4536740000000  0.4998730000000 1.0
C      1  0.5630570000000  0.4679060000000  0.4868220000000 1.0
C      1  0.4405880000000  0.4613640000000  0.4868220000000 1.0
C      1  0.4962620000000  0.5704060000000  0.4867440000000 1.0
C      1  0.5680620000000  0.5632660000000  0.4986260000000 1.0
C      1  0.5207110000000  0.4095230000000  0.4986090000000 1.0
C      1  0.4111200000000  0.5272470000000  0.4986580000000 1.0
C      1  0.5520630000000  0.5253700000000  0.4757040000000 1.0
C      1  0.4960270000000  0.4427080000000  0.4763900000000 1.0
C      1  0.4520680000000  0.5320240000000  0.4757090000000 1.0
C      1  0.4534150000000  0.4408140000000  0.5040460000000 1.0
C      1  0.4720040000000  0.5695680000000  0.5038280000000 1.0
C      1  0.5744160000000  0.4893630000000  0.5039370000000 1.0
C      1  0.5094020000000  0.5272030000000  0.5024260000000 1.0
C      1  0.5190030000000  0.4781940000000  0.5026250000000 1.0
C      1  0.4717360000000  0.4943770000000  0.5022410000000 1.0
C      1  0.4908010000000  0.4707350000000  0.5148930000000 1.0
C      1  0.4792420000000  0.5224060000000  0.5146730000000 1.0
C      1  0.5299470000000  0.5067040000000  0.5148090000000 1.0
C      1  0.5454170000000  0.5546360000000  0.4808700000000 1.0
C      1  0.5246560000000  0.4334520000000  0.4808260000000 1.0
C      1  0.4298310000000  0.5118620000000  0.4809000000000 1.0
C      1  0.5053740000000  0.4222710000000  0.5433710000000 1.0
C      1  0.4301350000000  0.5341540000000  0.5432510000000 1.0
C      1  0.5645990000000  0.5434500000000  0.5432950000000 1.0
END
