TITL C-3578203-1966-340 -1.97538854496493e-06 125000 -716.775559550346 0 0 117 (C1) n - 1
REM
REM in /home/bkarasulu/work/CARBON/AIRSS/Generating-Clusters/EDIP-Nigel-Params/with-SteepDescent/Higher-Symm/SD-CG/HFTN-CG
REM
REM
REM
REM
REM
REM ./C.cell (12c818d87b63d06a65506943cc24bca4)
REM
REM compiler GCC version 9.2.1 20190827 (Red Hat 9.2.1-1)
REM options -cpp -mtune=generic -march=x86-64 -g -O0 -fpre-include=/usr/include/finclude/math-vector-fortran.h
REM seed 1031005838 -2003408320 -1799346394 1323045605 1218794565 1580739210 1121481183 -1178936919 -1568619985 1342238736 -2050588520 1718607066 -2003412994 2037587577 1110744967 580737873 1702772929 -1209131908 1110955626 -269615125 -1713319771 944376395 -1230670707 1951661256 1595663200 459928407 983741805 -1004485424 -1949903583 -1151649829 -830081384 -867149307 249293408
REM
CELL 1.54180   50.00000   50.00000   50.00000   90.00000   90.00000   90.00000
LATT -1
SFAC C  
C      1  0.4541160000000  0.4460930000000  0.5542310000000 1.0
C      1  0.4488350000000  0.5406890000000  0.5603450000000 1.0
C      1  0.5477050000000  0.5552780000000  0.5536420000000 1.0
C      1  0.5507690000000  0.4590790000000  0.5594820000000 1.0
C      1  0.4594390000000  0.4488850000000  0.4402710000000 1.0
C      1  0.4450540000000  0.5479060000000  0.4468070000000 1.0
C      1  0.5410760000000  0.5507800000000  0.4404310000000 1.0
C      1  0.5542230000000  0.4543010000000  0.4456990000000 1.0
C      1  0.5551210000000  0.5003570000000  0.5198030000000 1.0
C      1  0.5000380000000  0.4475090000000  0.5197210000000 1.0
C      1  0.4452460000000  0.5006970000000  0.5201120000000 1.0
C      1  0.5004150000000  0.5535800000000  0.5201030000000 1.0
C      1  0.5530670000000  0.5003700000000  0.4801230000000 1.0
C      1  0.4998540000000  0.4454970000000  0.4801770000000 1.0
C      1  0.4469860000000  0.5007940000000  0.4804890000000 1.0
C      1  0.5001950000000  0.5552990000000  0.4803360000000 1.0
C      1  0.4857310000000  0.4746870000000  0.5189110000000 1.0
C      1  0.4674750000000  0.5189420000000  0.5265170000000 1.0
C      1  0.5150580000000  0.5268770000000  0.5193780000000 1.0
C      1  0.5329050000000  0.4821600000000  0.5261550000000 1.0
C      1  0.4814880000000  0.4676090000000  0.4738100000000 1.0
C      1  0.4737900000000  0.5154230000000  0.4810280000000 1.0
C      1  0.5181680000000  0.5328490000000  0.4740280000000 1.0
C      1  0.5260120000000  0.4860450000000  0.4809360000000 1.0
C      1  0.5895120000000  0.4642640000000  0.5278830000000 1.0
C      1  0.4631850000000  0.4099270000000  0.5207120000000 1.0
C      1  0.4104110000000  0.5363970000000  0.5287900000000 1.0
C      1  0.5377940000000  0.5911540000000  0.5200810000000 1.0
C      1  0.5905860000000  0.4633210000000  0.4790920000000 1.0
C      1  0.4640190000000  0.4105990000000  0.4720930000000 1.0
C      1  0.4093800000000  0.5379160000000  0.4805080000000 1.0
C      1  0.5361830000000  0.5896520000000  0.4716670000000 1.0
C      1  0.4230400000000  0.5265360000000  0.5533440000000 1.0
C      1  0.5318060000000  0.5800290000000  0.5472610000000 1.0
C      1  0.5767080000000  0.4736130000000  0.5526510000000 1.0
C      1  0.4696220000000  0.4212090000000  0.5477950000000 1.0
C      1  0.4203810000000  0.5319480000000  0.4532840000000 1.0
C      1  0.5265740000000  0.5767080000000  0.4471220000000 1.0
C      1  0.5791670000000  0.4697720000000  0.4520500000000 1.0
C      1  0.4736160000000  0.4231050000000  0.4473430000000 1.0
C      1  0.4819370000000  0.5129150000000  0.5501880000000 1.0
C      1  0.5131370000000  0.5193770000000  0.5472160000000 1.0
C      1  0.5187290000000  0.4883500000000  0.5499960000000 1.0
C      1  0.4881540000000  0.4827130000000  0.5464210000000 1.0
C      1  0.4809020000000  0.5132970000000  0.4530880000000 1.0
C      1  0.5118450000000  0.5188180000000  0.4500830000000 1.0
C      1  0.5175590000000  0.4882890000000  0.4535700000000 1.0
C      1  0.4872980000000  0.4820210000000  0.4501040000000 1.0
C      1  0.5325210000000  0.4987770000000  0.4115280000000 1.0
C      1  0.5109690000000  0.4684280000000  0.4121340000000 1.0
C      1  0.4736550000000  0.5002950000000  0.4086350000000 1.0
C      1  0.4911800000000  0.5269450000000  0.4095690000000 1.0
C      1  0.5269420000000  0.5087340000000  0.5905870000000 1.0
C      1  0.4987540000000  0.4673890000000  0.5883600000000 1.0
C      1  0.4684240000000  0.4889620000000  0.5880180000000 1.0
C      1  0.5003030000000  0.5262340000000  0.5917630000000 1.0
C      1  0.5747680000000  0.4416310000000  0.4893360000000 1.0
C      1  0.4418870000000  0.4255000000000  0.4815300000000 1.0
C      1  0.4253290000000  0.5595200000000  0.4908320000000 1.0
C      1  0.5586320000000  0.5751460000000  0.4809560000000 1.0
C      1  0.5748810000000  0.4420490000000  0.5182400000000 1.0
C      1  0.4415540000000  0.4258170000000  0.5104520000000 1.0
C      1  0.4251860000000  0.5587770000000  0.5197240000000 1.0
C      1  0.5594660000000  0.5752700000000  0.5098040000000 1.0
C      1  0.4105300000000  0.4626720000000  0.5143830000000 1.0
C      1  0.4635600000000  0.5898830000000  0.5169020000000 1.0
C      1  0.5902450000000  0.5380310000000  0.5140030000000 1.0
C      1  0.5372400000000  0.4109550000000  0.5165200000000 1.0
C      1  0.4108440000000  0.4635850000000  0.4836700000000 1.0
C      1  0.4624680000000  0.5903760000000  0.4862360000000 1.0
C      1  0.5898270000000  0.5373040000000  0.4832400000000 1.0
C      1  0.5378140000000  0.4106770000000  0.4857470000000 1.0
C      1  0.5627960000000  0.5498940000000  0.5254100000000 1.0
C      1  0.5486900000000  0.4378020000000  0.5315900000000 1.0
C      1  0.4381970000000  0.4511710000000  0.5260730000000 1.0
C      1  0.4513990000000  0.5626130000000  0.5332400000000 1.0
C      1  0.5626470000000  0.5487910000000  0.4678870000000 1.0
C      1  0.5493100000000  0.4383640000000  0.4738810000000 1.0
C      1  0.4377930000000  0.4515780000000  0.4678080000000 1.0
C      1  0.4505890000000  0.5629670000000  0.4750240000000 1.0
C      1  0.5262450000000  0.4789080000000  0.5780650000000 1.0
C      1  0.4755280000000  0.4669830000000  0.5680210000000 1.0
C      1  0.4724640000000  0.5185290000000  0.5784540000000 1.0
C      1  0.5273510000000  0.5348470000000  0.5689540000000 1.0
C      1  0.5331500000000  0.4756180000000  0.4319010000000 1.0
C      1  0.4814480000000  0.4724550000000  0.4219320000000 1.0
C      1  0.4653430000000  0.5274880000000  0.4314190000000 1.0
C      1  0.5210870000000  0.5262670000000  0.4218900000000 1.0
C      1  0.5280800000000  0.4566330000000  0.4865000000000 1.0
C      1  0.4548230000000  0.4717160000000  0.4836910000000 1.0
C      1  0.4719260000000  0.5446370000000  0.4871640000000 1.0
C      1  0.5451150000000  0.5291920000000  0.4835320000000 1.0
C      1  0.5289460000000  0.4554140000000  0.5162550000000 1.0
C      1  0.4563130000000  0.4725320000000  0.5134770000000 1.0
C      1  0.4713990000000  0.5457600000000  0.5169530000000 1.0
C      1  0.5443020000000  0.5286630000000  0.5132650000000 1.0
C      1  0.4896710000000  0.5967510000000  0.4751090000000 1.0
C      1  0.5958890000000  0.5097380000000  0.4746510000000 1.0
C      1  0.5105880000000  0.4039000000000  0.4752120000000 1.0
C      1  0.4042130000000  0.4911200000000  0.4752250000000 1.0
C      1  0.4910650000000  0.5964210000000  0.5252930000000 1.0
C      1  0.5966670000000  0.5107220000000  0.5248130000000 1.0
C      1  0.5096950000000  0.4047390000000  0.5251970000000 1.0
C      1  0.4037520000000  0.4897870000000  0.5252350000000 1.0
C      1  0.4257390000000  0.4981320000000  0.5442770000000 1.0
C      1  0.5030780000000  0.5746160000000  0.5420140000000 1.0
C      1  0.5745890000000  0.5023830000000  0.5440100000000 1.0
C      1  0.4981710000000  0.4266650000000  0.5420300000000 1.0
C      1  0.4259440000000  0.5032520000000  0.4585040000000 1.0
C      1  0.4979260000000  0.5745550000000  0.4560100000000 1.0
C      1  0.5738580000000  0.4983490000000  0.4578500000000 1.0
C      1  0.5021310000000  0.4258010000000  0.4561290000000 1.0
C      1  0.5916020000000  0.4898050000000  0.4989990000000 1.0
C      1  0.4897300000000  0.4088590000000  0.5008960000000 1.0
C      1  0.4085140000000  0.5110110000000  0.4996750000000 1.0
C      1  0.5109420000000  0.5918950000000  0.5008330000000 1.0
C      1  0.5003110000000  0.5010280000000  0.4999680000000 1.0
END
