TITL C-3577082-504-17 -4.35423146150181e-06 125000 -1105.23753688204 0 0 178 (C1) n - 1
REM
REM in /home/bkarasulu/work/CARBON/AIRSS/Generating-Clusters/EDIP-Nigel-Params/with-SteepDescent/Higher-Symm/SD-CG/HFTN-CG
REM
REM
REM
REM
REM
REM ./C.cell (12c818d87b63d06a65506943cc24bca4)
REM
REM compiler GCC version 9.2.1 20190827 (Red Hat 9.2.1-1)
REM options -cpp -mtune=generic -march=x86-64 -g -O0 -fpre-include=/usr/include/finclude/math-vector-fortran.h
REM seed 1407401175 1509221805 -368528301 -652183282 44188322 2123908061 -231745836 -1343512201 1501595166 -384973060 1105167452 1953646461 1598781611 1027052819 429003132 -1791363572 1762489213 -695446507 151211557 454387008 638088003 -115493820 1720238844 -1958827670 771853066 454607916 -1414506395 -1720525496 -361167323 -541436575 -1791967909 -1210988162 1094040081
REM
CELL 1.54180   50.00000   50.00000   50.00000   90.00000   90.00000   90.00000
LATT -1
SFAC C  
C      1  0.5960120000000  0.4690710000000  0.4737650000000 1.0
C      1  0.4746170000000  0.4725860000000  0.6069440000000 1.0
C      1  0.4214950000000  0.4653360000000  0.4241300000000 1.0
C      1  0.5205000000000  0.4990600000000  0.6003380000000 1.0
C      1  0.4091600000000  0.4924280000000  0.4648060000000 1.0
C      1  0.5797750000000  0.4964650000000  0.4343680000000 1.0
C      1  0.5829710000000  0.4538450000000  0.5515520000000 1.0
C      1  0.4065740000000  0.4644520000000  0.5539850000000 1.0
C      1  0.5091760000000  0.4613510000000  0.3958170000000 1.0
C      1  0.5007840000000  0.5657320000000  0.5245730000000 1.0
C      1  0.4869820000000  0.5668850000000  0.4819930000000 1.0
C      1  0.5102650000000  0.5793340000000  0.4994370000000 1.0
C      1  0.4808890000000  0.5243740000000  0.6070890000000 1.0
C      1  0.4197990000000  0.5172690000000  0.4294440000000 1.0
C      1  0.6004350000000  0.5209580000000  0.4652450000000 1.0
C      1  0.5374340000000  0.4773050000000  0.5946460000000 1.0
C      1  0.3977000000000  0.4732930000000  0.4835150000000 1.0
C      1  0.5585670000000  0.4757740000000  0.4326030000000 1.0
C      1  0.4053070000000  0.5538120000000  0.5042780000000 1.0
C      1  0.5514950000000  0.5672890000000  0.4174370000000 1.0
C      1  0.5485240000000  0.5665350000000  0.5849180000000 1.0
C      1  0.4878550000000  0.4711280000000  0.4664490000000 1.0
C      1  0.5220400000000  0.4664690000000  0.5045150000000 1.0
C      1  0.4757730000000  0.4647360000000  0.5293630000000 1.0
C      1  0.5264530000000  0.5269880000000  0.4000230000000 1.0
C      1  0.5687400000000  0.5259180000000  0.5632980000000 1.0
C      1  0.3968490000000  0.5331490000000  0.5357980000000 1.0
C      1  0.5573350000000  0.4407270000000  0.4833770000000 1.0
C      1  0.4772280000000  0.4409910000000  0.5755120000000 1.0
C      1  0.4551700000000  0.4437630000000  0.4426510000000 1.0
C      1  0.5581570000000  0.5825320000000  0.4402430000000 1.0
C      1  0.5260580000000  0.5829930000000  0.5790490000000 1.0
C      1  0.4153400000000  0.5745120000000  0.4854220000000 1.0
C      1  0.4194610000000  0.5193700000000  0.5784090000000 1.0
C      1  0.4764950000000  0.5186600000000  0.3945910000000 1.0
C      1  0.6044910000000  0.5178930000000  0.5315420000000 1.0
C      1  0.4878130000000  0.4928510000000  0.5256150000000 1.0
C      1  0.4842760000000  0.4958830000000  0.4792730000000 1.0
C      1  0.5028290000000  0.4966750000000  0.5011980000000 1.0
C      1  0.4298760000000  0.4152060000000  0.5321340000000 1.0
C      1  0.5092070000000  0.4107590000000  0.4225660000000 1.0
C      1  0.5627720000000  0.4041810000000  0.5407690000000 1.0
C      1  0.4625510000000  0.4065350000000  0.4509390000000 1.0
C      1  0.5669970000000  0.3975560000000  0.4867600000000 1.0
C      1  0.4734710000000  0.4012060000000  0.5554650000000 1.0
C      1  0.5050130000000  0.5436830000000  0.6037860000000 1.0
C      1  0.4065170000000  0.5375820000000  0.4484680000000 1.0
C      1  0.5906790000000  0.5422080000000  0.4450050000000 1.0
C      1  0.3950280000000  0.4634190000000  0.5269980000000 1.0
C      1  0.5398290000000  0.4554580000000  0.3975460000000 1.0
C      1  0.5692280000000  0.4523400000000  0.5767830000000 1.0
C      1  0.5714480000000  0.5147610000000  0.4976740000000 1.0
C      1  0.4622340000000  0.5148270000000  0.5684050000000 1.0
C      1  0.4625720000000  0.5113100000000  0.4359020000000 1.0
C      1  0.5031360000000  0.4489110000000  0.4222600000000 1.0
C      1  0.5606930000000  0.4426560000000  0.5350050000000 1.0
C      1  0.4320090000000  0.4499320000000  0.5468810000000 1.0
C      1  0.5898380000000  0.5392430000000  0.5473160000000 1.0
C      1  0.4175400000000  0.5375610000000  0.5553870000000 1.0
C      1  0.4986460000000  0.5382830000000  0.4020830000000 1.0
C      1  0.5461930000000  0.4687170000000  0.4858910000000 1.0
C      1  0.4873850000000  0.4610420000000  0.5565020000000 1.0
C      1  0.4612580000000  0.4607270000000  0.4653410000000 1.0
C      1  0.4748440000000  0.4394590000000  0.4202580000000 1.0
C      1  0.5729870000000  0.4355880000000  0.5087140000000 1.0
C      1  0.4474530000000  0.4359120000000  0.5712230000000 1.0
C      1  0.4963100000000  0.6201990000000  0.5071710000000 1.0
C      1  0.4736210000000  0.6217000000000  0.4911980000000 1.0
C      1  0.5201490000000  0.6210750000000  0.4930480000000 1.0
C      1  0.5699040000000  0.4961790000000  0.5574800000000 1.0
C      1  0.4077930000000  0.5094720000000  0.5186090000000 1.0
C      1  0.5207720000000  0.4977260000000  0.4043020000000 1.0
C      1  0.4587390000000  0.5601350000000  0.4922370000000 1.0
C      1  0.5302170000000  0.5633860000000  0.4695410000000 1.0
C      1  0.5239470000000  0.5607870000000  0.5408110000000 1.0
C      1  0.4461120000000  0.5260420000000  0.5899150000000 1.0
C      1  0.4535970000000  0.5246680000000  0.4120060000000 1.0
C      1  0.5981480000000  0.5232540000000  0.5036710000000 1.0
C      1  0.4914790000000  0.4156670000000  0.5385830000000 1.0
C      1  0.4788380000000  0.4124650000000  0.4745610000000 1.0
C      1  0.5381690000000  0.4012820000000  0.4882240000000 1.0
C      1  0.4218240000000  0.5619270000000  0.4581880000000 1.0
C      1  0.5770040000000  0.5664660000000  0.4579530000000 1.0
C      1  0.5000580000000  0.5677380000000  0.5858820000000 1.0
C      1  0.4677150000000  0.5908580000000  0.5385430000000 1.0
C      1  0.4797990000000  0.5860130000000  0.4590820000000 1.0
C      1  0.5455020000000  0.5865100000000  0.5073720000000 1.0
C      1  0.4426340000000  0.5958550000000  0.5235340000000 1.0
C      1  0.5064060000000  0.5962010000000  0.4455850000000 1.0
C      1  0.5513120000000  0.5989470000000  0.5344450000000 1.0
C      1  0.4907990000000  0.5389980000000  0.5208570000000 1.0
C      1  0.4944200000000  0.5387570000000  0.4744720000000 1.0
C      1  0.5079780000000  0.5271930000000  0.4995170000000 1.0
C      1  0.4687020000000  0.4830860000000  0.4283480000000 1.0
C      1  0.5653840000000  0.4876740000000  0.5056410000000 1.0
C      1  0.4532620000000  0.4871130000000  0.5640500000000 1.0
C      1  0.5510380000000  0.4907960000000  0.5330820000000 1.0
C      1  0.4358790000000  0.4978930000000  0.5306110000000 1.0
C      1  0.5045050000000  0.4982570000000  0.4308060000000 1.0
C      1  0.4875540000000  0.5511100000000  0.5636800000000 1.0
C      1  0.4488470000000  0.5495520000000  0.4621270000000 1.0
C      1  0.5576680000000  0.5525400000000  0.4766750000000 1.0
C      1  0.5148690000000  0.4725000000000  0.5585290000000 1.0
C      1  0.4419050000000  0.4721020000000  0.4860860000000 1.0
C      1  0.5385160000000  0.4791100000000  0.4568740000000 1.0
C      1  0.5389300000000  0.4453760000000  0.5731370000000 1.0
C      1  0.4168420000000  0.4532670000000  0.4965300000000 1.0
C      1  0.5547830000000  0.4403580000000  0.4184640000000 1.0
C      1  0.5619130000000  0.5230950000000  0.4720070000000 1.0
C      1  0.4906340000000  0.5212470000000  0.5694770000000 1.0
C      1  0.4448690000000  0.5184120000000  0.4590650000000 1.0
C      1  0.4646540000000  0.4223120000000  0.4978240000000 1.0
C      1  0.5300300000000  0.4187930000000  0.4660480000000 1.0
C      1  0.5163660000000  0.4028510000000  0.5319130000000 1.0
C      1  0.5748570000000  0.5866650000000  0.5437590000000 1.0
C      1  0.4219740000000  0.5834150000000  0.5385370000000 1.0
C      1  0.5062050000000  0.5833020000000  0.4206860000000 1.0
C      1  0.5340320000000  0.5903490000000  0.4580670000000 1.0
C      1  0.5258010000000  0.5917030000000  0.5490320000000 1.0
C      1  0.4428940000000  0.5862240000000  0.4946940000000 1.0
C      1  0.5877610000000  0.4436700000000  0.4607750000000 1.0
C      1  0.4863150000000  0.4464400000000  0.6031450000000 1.0
C      1  0.4148920000000  0.4392440000000  0.4362390000000 1.0
C      1  0.5594400000000  0.5580660000000  0.5079820000000 1.0
C      1  0.4622590000000  0.5615950000000  0.5469830000000 1.0
C      1  0.4669210000000  0.5640170000000  0.4406940000000 1.0
C      1  0.5114850000000  0.5445800000000  0.4512900000000 1.0
C      1  0.5364720000000  0.5403940000000  0.5221090000000 1.0
C      1  0.4617880000000  0.5422190000000  0.5174750000000 1.0
C      1  0.5989980000000  0.4926430000000  0.4559150000000 1.0
C      1  0.4921610000000  0.4969120000000  0.6061870000000 1.0
C      1  0.4098150000000  0.4895850000000  0.4361070000000 1.0
C      1  0.5224850000000  0.5188850000000  0.4434790000000 1.0
C      1  0.5315460000000  0.5125230000000  0.5342350000000 1.0
C      1  0.4517200000000  0.5142730000000  0.5117070000000 1.0
C      1  0.4949080000000  0.5571110000000  0.4272730000000 1.0
C      1  0.5821190000000  0.5630570000000  0.5298020000000 1.0
C      1  0.4324420000000  0.5630390000000  0.5553830000000 1.0
C      1  0.5064340000000  0.5019170000000  0.5476700000000 1.0
C      1  0.4550240000000  0.5014270000000  0.4845760000000 1.0
C      1  0.5377050000000  0.5075920000000  0.4640210000000 1.0
C      1  0.4971460000000  0.4156000000000  0.5821180000000 1.0
C      1  0.4264760000000  0.4196290000000  0.4553220000000 1.0
C      1  0.5766790000000  0.4155250000000  0.4562310000000 1.0
C      1  0.4799840000000  0.4868820000000  0.3970980000000 1.0
C      1  0.5969130000000  0.4877570000000  0.5393900000000 1.0
C      1  0.4209550000000  0.4891160000000  0.5700600000000 1.0
C      1  0.4952150000000  0.6040840000000  0.5324470000000 1.0
C      1  0.4595740000000  0.6038810000000  0.4753070000000 1.0
C      1  0.5412010000000  0.6057990000000  0.4831790000000 1.0
C      1  0.5724080000000  0.5251930000000  0.4291400000000 1.0
C      1  0.5269770000000  0.5264040000000  0.5939720000000 1.0
C      1  0.4022840000000  0.5193330000000  0.4707990000000 1.0
C      1  0.5084980000000  0.4711970000000  0.4451260000000 1.0
C      1  0.5354310000000  0.4649000000000  0.5336000000000 1.0
C      1  0.4453940000000  0.4679950000000  0.5253950000000 1.0
C      1  0.5463930000000  0.4823220000000  0.4058420000000 1.0
C      1  0.5641740000000  0.4801250000000  0.5832670000000 1.0
C      1  0.3903060000000  0.4858990000000  0.5099820000000 1.0
C      1  0.4187080000000  0.4241530000000  0.4844370000000 1.0
C      1  0.5578550000000  0.4145410000000  0.4320960000000 1.0
C      1  0.5272700000000  0.4175320000000  0.5760600000000 1.0
C      1  0.4455740000000  0.4095160000000  0.5574450000000 1.0
C      1  0.4795140000000  0.4111350000000  0.4248870000000 1.0
C      1  0.5775220000000  0.4069940000000  0.5139650000000 1.0
C      1  0.5919640000000  0.4750900000000  0.5102930000000 1.0
C      1  0.4494710000000  0.4749000000000  0.5919000000000 1.0
C      1  0.4467270000000  0.4717300000000  0.4096490000000 1.0
C      1  0.4378480000000  0.4122410000000  0.5041780000000 1.0
C      1  0.5311140000000  0.4043580000000  0.4400050000000 1.0
C      1  0.5362330000000  0.3996630000000  0.5531310000000 1.0
C      1  0.4835820000000  0.4350880000000  0.5172510000000 1.0
C      1  0.5026510000000  0.4298100000000  0.4724480000000 1.0
C      1  0.5283880000000  0.4176300000000  0.5105030000000 1.0
C      1  0.4127700000000  0.5277240000000  0.4954750000000 1.0
C      1  0.5496630000000  0.5393820000000  0.4152260000000 1.0
C      1  0.5515470000000  0.5387050000000  0.5839080000000 1.0
C      1  0.5087710000000  0.4384240000000  0.5008260000000 1.0
END
