TITL C-3578200-9634-770 -9.03905501888662e-07 125000 -661.108419522533 0 0 106 (C1) n - 1
REM
REM in /home/bkarasulu/work/CARBON/AIRSS/Generating-Clusters/EDIP-Nigel-Params/with-SteepDescent/Higher-Symm/SD-CG/HFTN-CG
REM
REM
REM
REM
REM
REM ./C.cell (12c818d87b63d06a65506943cc24bca4)
REM
REM compiler GCC version 9.2.1 20190827 (Red Hat 9.2.1-1)
REM options -cpp -mtune=generic -march=x86-64 -g -O0 -fpre-include=/usr/include/finclude/math-vector-fortran.h
REM seed -869551866 -2090318809 522029316 -350374045 -674079753 -423816284 636207778 855547842 -606648904 -1293715318 -945873065 1056302811 1062148369 1253199121 -1284492283 588970900 -1877281480 -186235476 -1742244882 -1321139401 -1602597246 1391040000 2028357268 -1422532730 -531680993 1220554275 -1217718850 1748119831 -1920631333 -156910045 763926857 -43929662 -884887198
REM
CELL 1.54180   50.00000   50.00000   50.00000   90.00000   90.00000   90.00000
LATT -1
SFAC C  
C      1  0.4736360000000  0.4678320000000  0.5045010000000 1.0
C      1  0.5260730000000  0.5323750000000  0.4953530000000 1.0
C      1  0.4720670000000  0.4918630000000  0.4581320000000 1.0
C      1  0.5278720000000  0.5081220000000  0.5414270000000 1.0
C      1  0.4776380000000  0.5576650000000  0.5048610000000 1.0
C      1  0.5221940000000  0.4432120000000  0.4957750000000 1.0
C      1  0.5056170000000  0.5568730000000  0.5457440000000 1.0
C      1  0.4946430000000  0.4435800000000  0.4544010000000 1.0
C      1  0.5048680000000  0.4688100000000  0.4992020000000 1.0
C      1  0.4946550000000  0.5322730000000  0.5008260000000 1.0
C      1  0.5139800000000  0.4907320000000  0.4819050000000 1.0
C      1  0.4854020000000  0.5104180000000  0.5178330000000 1.0
C      1  0.4877500000000  0.4833800000000  0.5809420000000 1.0
C      1  0.5125740000000  0.5164430000000  0.4186330000000 1.0
C      1  0.5145590000000  0.5658570000000  0.4280570000000 1.0
C      1  0.4858980000000  0.4327570000000  0.5731230000000 1.0
C      1  0.4723270000000  0.5603490000000  0.4398440000000 1.0
C      1  0.5277010000000  0.4397930000000  0.5608460000000 1.0
C      1  0.4826190000000  0.4736530000000  0.4197270000000 1.0
C      1  0.5175460000000  0.5262060000000  0.5799220000000 1.0
C      1  0.4465090000000  0.5154250000000  0.4905440000000 1.0
C      1  0.5532410000000  0.4844190000000  0.5088750000000 1.0
C      1  0.4695160000000  0.4420870000000  0.5503610000000 1.0
C      1  0.5264530000000  0.5526180000000  0.4518060000000 1.0
C      1  0.5880610000000  0.4922350000000  0.4795920000000 1.0
C      1  0.4120640000000  0.5077090000000  0.5206810000000 1.0
C      1  0.5074920000000  0.5295620000000  0.4607060000000 1.0
C      1  0.4918840000000  0.4715930000000  0.5384220000000 1.0
C      1  0.4788060000000  0.5417520000000  0.4652460000000 1.0
C      1  0.5209690000000  0.4582440000000  0.5353780000000 1.0
C      1  0.5475930000000  0.5705550000000  0.4949500000000 1.0
C      1  0.4525530000000  0.4292640000000  0.5046780000000 1.0
C      1  0.5357860000000  0.4607880000000  0.4328980000000 1.0
C      1  0.4645630000000  0.5394280000000  0.5672440000000 1.0
C      1  0.4917900000000  0.5814200000000  0.4359220000000 1.0
C      1  0.5089430000000  0.4180110000000  0.5647100000000 1.0
C      1  0.5451690000000  0.5322320000000  0.5669560000000 1.0
C      1  0.4548740000000  0.4676710000000  0.4326580000000 1.0
C      1  0.5394760000000  0.4816840000000  0.5345030000000 1.0
C      1  0.4605040000000  0.5182900000000  0.4652040000000 1.0
C      1  0.5825270000000  0.4602380000000  0.5164410000000 1.0
C      1  0.4170330000000  0.5397200000000  0.4839250000000 1.0
C      1  0.4900270000000  0.5739230000000  0.5281240000000 1.0
C      1  0.5102150000000  0.4267930000000  0.4722190000000 1.0
C      1  0.4964120000000  0.4558570000000  0.5883440000000 1.0
C      1  0.5040390000000  0.5440270000000  0.4112250000000 1.0
C      1  0.4606030000000  0.4965530000000  0.5115210000000 1.0
C      1  0.5391910000000  0.5039040000000  0.4880260000000 1.0
C      1  0.5056810000000  0.4658930000000  0.4386990000000 1.0
C      1  0.4945750000000  0.5343430000000  0.5612300000000 1.0
C      1  0.4092680000000  0.4823940000000  0.5318320000000 1.0
C      1  0.5910970000000  0.5174780000000  0.4682730000000 1.0
C      1  0.5671510000000  0.5488070000000  0.4939600000000 1.0
C      1  0.4328310000000  0.4509120000000  0.5057410000000 1.0
C      1  0.4737650000000  0.5459950000000  0.4132910000000 1.0
C      1  0.5266910000000  0.4541480000000  0.5873490000000 1.0
C      1  0.5380730000000  0.5113580000000  0.4343830000000 1.0
C      1  0.4622190000000  0.4887050000000  0.5657540000000 1.0
C      1  0.4730890000000  0.4283320000000  0.5243590000000 1.0
C      1  0.5269010000000  0.5713840000000  0.4752090000000 1.0
C      1  0.4627210000000  0.5185070000000  0.4126420000000 1.0
C      1  0.5375330000000  0.4816890000000  0.5875100000000 1.0
C      1  0.5339190000000  0.5574050000000  0.5400120000000 1.0
C      1  0.4663060000000  0.4427510000000  0.4597550000000 1.0
C      1  0.5771910000000  0.5387430000000  0.5192470000000 1.0
C      1  0.4227240000000  0.4610260000000  0.4804610000000 1.0
C      1  0.5666960000000  0.4782670000000  0.4653360000000 1.0
C      1  0.4333630000000  0.5218760000000  0.5349760000000 1.0
C      1  0.4404780000000  0.5482720000000  0.5269670000000 1.0
C      1  0.5593530000000  0.4519940000000  0.4733380000000 1.0
C      1  0.4357210000000  0.4713330000000  0.5275020000000 1.0
C      1  0.5646090000000  0.5286360000000  0.4721630000000 1.0
C      1  0.4908610000000  0.4079800000000  0.4852570000000 1.0
C      1  0.5096220000000  0.5925050000000  0.5147270000000 1.0
C      1  0.5503680000000  0.5354580000000  0.4466740000000 1.0
C      1  0.4506130000000  0.4651070000000  0.5527700000000 1.0
C      1  0.4866600000000  0.5018930000000  0.4148390000000 1.0
C      1  0.5135320000000  0.4980000000000  0.5844190000000 1.0
C      1  0.4629540000000  0.4189570000000  0.4789090000000 1.0
C      1  0.5374640000000  0.5812600000000  0.5208070000000 1.0
C      1  0.5674500000000  0.5116200000000  0.5595400000000 1.0
C      1  0.4324840000000  0.4882080000000  0.4401280000000 1.0
C      1  0.5393570000000  0.5319560000000  0.5236830000000 1.0
C      1  0.4604770000000  0.4680890000000  0.4760080000000 1.0
C      1  0.4969890000000  0.5057380000000  0.5438540000000 1.0
C      1  0.5029880000000  0.4939080000000  0.4553590000000 1.0
C      1  0.4959930000000  0.4128040000000  0.5143430000000 1.0
C      1  0.5041840000000  0.5872210000000  0.4857200000000 1.0
C      1  0.5611700000000  0.4874860000000  0.5727270000000 1.0
C      1  0.4389060000000  0.5123370000000  0.4269880000000 1.0
C      1  0.5315830000000  0.4154060000000  0.4560180000000 1.0
C      1  0.4685980000000  0.5850540000000  0.5444230000000 1.0
C      1  0.4084160000000  0.5115560000000  0.4902690000000 1.0
C      1  0.5912230000000  0.4883970000000  0.5100270000000 1.0
C      1  0.4757090000000  0.5836900000000  0.4771040000000 1.0
C      1  0.5242700000000  0.4169340000000  0.5233110000000 1.0
C      1  0.4342930000000  0.5567190000000  0.4999490000000 1.0
C      1  0.5657190000000  0.4430870000000  0.5000980000000 1.0
C      1  0.4223090000000  0.4880460000000  0.4696330000000 1.0
C      1  0.5774430000000  0.5117730000000  0.5300800000000 1.0
C      1  0.5469500000000  0.4388320000000  0.4505320000000 1.0
C      1  0.4533500000000  0.5614050000000  0.5496530000000 1.0
C      1  0.5516220000000  0.4851530000000  0.4400070000000 1.0
C      1  0.4488110000000  0.5150260000000  0.5601330000000 1.0
C      1  0.4494380000000  0.5792560000000  0.4891760000000 1.0
C      1  0.5503260000000  0.4206960000000  0.5106340000000 1.0
END
