TITL C-3578208-4450-677 -2.31518372353639e-06 125000 -500.547685674692 0 0 81 (C1) n - 1
REM
REM in /home/bkarasulu/work/CARBON/AIRSS/Generating-Clusters/EDIP-Nigel-Params/with-SteepDescent/Higher-Symm/SD-CG/HFTN-CG
REM
REM
REM
REM
REM
REM ./C.cell (12c818d87b63d06a65506943cc24bca4)
REM
REM compiler GCC version 9.2.1 20190827 (Red Hat 9.2.1-1)
REM options -cpp -mtune=generic -march=x86-64 -g -O0 -fpre-include=/usr/include/finclude/math-vector-fortran.h
REM seed 1906015424 328636181 -2035600146 988308938 -513052824 2043973423 -1132879415 -782707011 -1602195096 -776170991 -919860478 -1935513548 1005418276 -450467 -861141973 -1201641161 -1003560411 137328792 203582029 802723468 473361142 -1556677701 -443209392 931485076 -509345287 1992367130 1747195195 -1279066329 1188342464 627390129 -880603710 319490323 -1294845815
REM
CELL 1.54180   50.00000   50.00000   50.00000   90.00000   90.00000   90.00000
LATT -1
SFAC C  
C      1  0.5851160000000  0.5267350000000  0.5026130000000 1.0
C      1  0.4141410000000  0.4821620000000  0.5066500000000 1.0
C      1  0.5053070000000  0.5366670000000  0.5769030000000 1.0
C      1  0.4956890000000  0.4644150000000  0.5784580000000 1.0
C      1  0.5031430000000  0.5248490000000  0.4919540000000 1.0
C      1  0.4933810000000  0.4790170000000  0.5026430000000 1.0
C      1  0.5654180000000  0.5468240000000  0.5093640000000 1.0
C      1  0.4316440000000  0.4583900000000  0.5125700000000 1.0
C      1  0.4484720000000  0.4645730000000  0.4662650000000 1.0
C      1  0.5672240000000  0.5413740000000  0.4656000000000 1.0
C      1  0.4563510000000  0.5104020000000  0.5103100000000 1.0
C      1  0.5365580000000  0.4886820000000  0.5062950000000 1.0
C      1  0.5626920000000  0.5021180000000  0.4370910000000 1.0
C      1  0.4363310000000  0.5014650000000  0.4362760000000 1.0
C      1  0.4983300000000  0.5466120000000  0.4656610000000 1.0
C      1  0.5049900000000  0.4431110000000  0.4513560000000 1.0
C      1  0.5701200000000  0.4594750000000  0.5200470000000 1.0
C      1  0.4270780000000  0.5406310000000  0.5231380000000 1.0
C      1  0.4507110000000  0.4682220000000  0.5337200000000 1.0
C      1  0.5462080000000  0.5333950000000  0.5272520000000 1.0
C      1  0.4345440000000  0.5446330000000  0.4949980000000 1.0
C      1  0.5646450000000  0.4457660000000  0.4949130000000 1.0
C      1  0.4778650000000  0.5460830000000  0.5348900000000 1.0
C      1  0.5213860000000  0.4534790000000  0.5361990000000 1.0
C      1  0.5136060000000  0.4573840000000  0.5070620000000 1.0
C      1  0.4758000000000  0.5347590000000  0.5064220000000 1.0
C      1  0.5685250000000  0.4963230000000  0.4855830000000 1.0
C      1  0.4261280000000  0.5023410000000  0.4873530000000 1.0
C      1  0.5271970000000  0.5162860000000  0.5107320000000 1.0
C      1  0.4702610000000  0.4868110000000  0.5193810000000 1.0
C      1  0.5175590000000  0.4680360000000  0.4400470000000 1.0
C      1  0.4874900000000  0.5310870000000  0.4415140000000 1.0
C      1  0.5246540000000  0.5690630000000  0.5078100000000 1.0
C      1  0.4737720000000  0.4393640000000  0.5063810000000 1.0
C      1  0.5155610000000  0.4284980000000  0.4746660000000 1.0
C      1  0.4827690000000  0.5686300000000  0.4791490000000 1.0
C      1  0.4433250000000  0.5291520000000  0.4419780000000 1.0
C      1  0.5623080000000  0.4727290000000  0.4404930000000 1.0
C      1  0.4499830000000  0.5329850000000  0.5414580000000 1.0
C      1  0.5461560000000  0.4727950000000  0.5324040000000 1.0
C      1  0.5407810000000  0.5387480000000  0.4558500000000 1.0
C      1  0.4610990000000  0.4560300000000  0.4402890000000 1.0
C      1  0.4559960000000  0.5629170000000  0.4885950000000 1.0
C      1  0.5413800000000  0.4342720000000  0.4847620000000 1.0
C      1  0.4965410000000  0.4239680000000  0.4961640000000 1.0
C      1  0.5006160000000  0.5801790000000  0.4977710000000 1.0
C      1  0.5652660000000  0.5154900000000  0.5442080000000 1.0
C      1  0.4316100000000  0.4867750000000  0.5514240000000 1.0
C      1  0.5194880000000  0.4756860000000  0.5871330000000 1.0
C      1  0.4825080000000  0.5258450000000  0.5881960000000 1.0
C      1  0.5286930000000  0.5235230000000  0.5849600000000 1.0
C      1  0.4731280000000  0.4782470000000  0.5874510000000 1.0
C      1  0.5493380000000  0.5633330000000  0.4918460000000 1.0
C      1  0.4484390000000  0.4467680000000  0.4910150000000 1.0
C      1  0.4720230000000  0.4459720000000  0.5367340000000 1.0
C      1  0.5266080000000  0.5551370000000  0.5349760000000 1.0
C      1  0.4800910000000  0.4361560000000  0.4418200000000 1.0
C      1  0.5226890000000  0.5595790000000  0.4568060000000 1.0
C      1  0.4538580000000  0.5232720000000  0.4695180000000 1.0
C      1  0.5541240000000  0.4735990000000  0.4700910000000 1.0
C      1  0.4960260000000  0.4576410000000  0.5501710000000 1.0
C      1  0.5033500000000  0.5428310000000  0.5484540000000 1.0
C      1  0.5347540000000  0.4970050000000  0.5779180000000 1.0
C      1  0.4656470000000  0.5047540000000  0.5822080000000 1.0
C      1  0.5079500000000  0.5139240000000  0.4279450000000 1.0
C      1  0.4986750000000  0.4860530000000  0.4239490000000 1.0
C      1  0.5251190000000  0.4876090000000  0.4633330000000 1.0
C      1  0.4717090000000  0.4971460000000  0.4643610000000 1.0
C      1  0.4645980000000  0.5396490000000  0.4273100000000 1.0
C      1  0.5417790000000  0.4614010000000  0.4251920000000 1.0
C      1  0.5338040000000  0.5121050000000  0.4446580000000 1.0
C      1  0.4698680000000  0.4849890000000  0.4339510000000 1.0
C      1  0.5769070000000  0.5138030000000  0.4614440000000 1.0
C      1  0.4290800000000  0.4871340000000  0.4615740000000 1.0
C      1  0.5523390000000  0.4919240000000  0.5553700000000 1.0
C      1  0.4456500000000  0.5104870000000  0.5621160000000 1.0
C      1  0.4092450000000  0.4954380000000  0.5327220000000 1.0
C      1  0.5864330000000  0.5075390000000  0.5244340000000 1.0
C      1  0.5896710000000  0.4797320000000  0.5197370000000 1.0
C      1  0.4060970000000  0.5232860000000  0.5289930000000 1.0
C      1  0.4982900000000  0.4968680000000  0.4800130000000 1.0
END
