TITL C-3578205-846-364 -2.4697585596837e-06 125000 -1063.75303006842 0 0 171 (C1) n - 1
REM
REM in /home/bkarasulu/work/CARBON/AIRSS/Generating-Clusters/EDIP-Nigel-Params/with-SteepDescent/Higher-Symm/SD-CG/HFTN-CG
REM
REM
REM
REM
REM
REM ./C.cell (12c818d87b63d06a65506943cc24bca4)
REM
REM compiler GCC version 9.2.1 20190827 (Red Hat 9.2.1-1)
REM options -cpp -mtune=generic -march=x86-64 -g -O0 -fpre-include=/usr/include/finclude/math-vector-fortran.h
REM seed -1593494477 -113692671 519449522 750260974 -1316262850 -1904938037 -1324634886 300522862 -1741243634 596463469 2065965156 215749331 1995941685 1976596475 -1514314987 535674182 1217609840 1366817543 -612656438 2048968475 -2026117940 -384439212 -889797508 1136783330 245253443 -832982530 888841917 600660646 -1100815465 1207672555 727285933 -1799087467 -48982016
REM
CELL 1.54180   50.00000   50.00000   50.00000   90.00000   90.00000   90.00000
LATT -1
SFAC C  
C      1  0.4732310000000  0.4362220000000  0.5963610000000 1.0
C      1  0.4710280000000  0.3914050000000  0.5436360000000 1.0
C      1  0.4735630000000  0.3881380000000  0.4782750000000 1.0
C      1  0.4785540000000  0.4211690000000  0.4240400000000 1.0
C      1  0.4838110000000  0.4656420000000  0.3939700000000 1.0
C      1  0.4781900000000  0.5340360000000  0.3902300000000 1.0
C      1  0.4863770000000  0.5885000000000  0.4231060000000 1.0
C      1  0.4717590000000  0.6157120000000  0.4849560000000 1.0
C      1  0.4741280000000  0.5958740000000  0.5459720000000 1.0
C      1  0.4783700000000  0.5506730000000  0.5894880000000 1.0
C      1  0.4797130000000  0.5021560000000  0.6110350000000 1.0
C      1  0.6082320000000  0.4609900000000  0.5077390000000 1.0
C      1  0.5976840000000  0.4518790000000  0.4832250000000 1.0
C      1  0.5966090000000  0.4686660000000  0.4598340000000 1.0
C      1  0.5991000000000  0.5031020000000  0.4430250000000 1.0
C      1  0.5995800000000  0.5312950000000  0.4454210000000 1.0
C      1  0.5987710000000  0.5564780000000  0.4737660000000 1.0
C      1  0.6001920000000  0.5578950000000  0.5020430000000 1.0
C      1  0.6017200000000  0.5427010000000  0.5369910000000 1.0
C      1  0.5998800000000  0.5199810000000  0.5540600000000 1.0
C      1  0.5954980000000  0.4822140000000  0.5505980000000 1.0
C      1  0.5961510000000  0.4596460000000  0.5331670000000 1.0
C      1  0.5853190000000  0.5782840000000  0.5162850000000 1.0
C      1  0.5871210000000  0.5672200000000  0.5433330000000 1.0
C      1  0.5774220000000  0.5162310000000  0.5720660000000 1.0
C      1  0.5752560000000  0.4875720000000  0.5715450000000 1.0
C      1  0.5764860000000  0.4384870000000  0.5356390000000 1.0
C      1  0.5774510000000  0.4194170000000  0.5135590000000 1.0
C      1  0.5789610000000  0.4298840000000  0.4866790000000 1.0
C      1  0.5750730000000  0.4661900000000  0.4404940000000 1.0
C      1  0.5775360000000  0.4913820000000  0.4270050000000 1.0
C      1  0.5758840000000  0.5462080000000  0.4374420000000 1.0
C      1  0.5763030000000  0.5669480000000  0.4576170000000 1.0
C      1  0.5026670000000  0.5616130000000  0.5730940000000 1.0
C      1  0.4947330000000  0.5255480000000  0.5984810000000 1.0
C      1  0.4993800000000  0.4636910000000  0.5884400000000 1.0
C      1  0.4916360000000  0.4202010000000  0.5577660000000 1.0
C      1  0.4928560000000  0.4083070000000  0.5049530000000 1.0
C      1  0.5005300000000  0.4102020000000  0.4420320000000 1.0
C      1  0.4961000000000  0.4423920000000  0.4098390000000 1.0
C      1  0.4950650000000  0.5055640000000  0.4096820000000 1.0
C      1  0.4846460000000  0.5589570000000  0.4256780000000 1.0
C      1  0.4987090000000  0.5984580000000  0.4644700000000 1.0
C      1  0.4978170000000  0.5936530000000  0.5178690000000 1.0
C      1  0.4603420000000  0.5355040000000  0.4868360000000 1.0
C      1  0.4713030000000  0.5504880000000  0.5076790000000 1.0
C      1  0.4686130000000  0.5392500000000  0.5326310000000 1.0
C      1  0.4675520000000  0.5175160000000  0.5484650000000 1.0
C      1  0.4700600000000  0.4914230000000  0.5553100000000 1.0
C      1  0.4670410000000  0.4661500000000  0.5430840000000 1.0
C      1  0.4564560000000  0.4710360000000  0.5154790000000 1.0
C      1  0.4698550000000  0.4524490000000  0.4979010000000 1.0
C      1  0.4752500000000  0.4640430000000  0.4720630000000 1.0
C      1  0.4725590000000  0.4981530000000  0.4570910000000 1.0
C      1  0.4724150000000  0.5269890000000  0.4632840000000 1.0
C      1  0.5629380000000  0.5330050000000  0.5909530000000 1.0
C      1  0.5496160000000  0.4759050000000  0.5802260000000 1.0
C      1  0.5546980000000  0.4304850000000  0.5542960000000 1.0
C      1  0.5546530000000  0.4009910000000  0.5156530000000 1.0
C      1  0.5620090000000  0.4130150000000  0.4693870000000 1.0
C      1  0.5632130000000  0.4428370000000  0.4280630000000 1.0
C      1  0.5555510000000  0.4984620000000  0.4086200000000 1.0
C      1  0.5611330000000  0.5494680000000  0.4123950000000 1.0
C      1  0.5533280000000  0.5849570000000  0.4604850000000 1.0
C      1  0.5586480000000  0.5903730000000  0.5121550000000 1.0
C      1  0.5611150000000  0.5711450000000  0.5564330000000 1.0
C      1  0.5275080000000  0.4118970000000  0.4289150000000 1.0
C      1  0.5343580000000  0.4769170000000  0.4080870000000 1.0
C      1  0.5171180000000  0.5280700000000  0.4145000000000 1.0
C      1  0.5357150000000  0.5849740000000  0.4368120000000 1.0
C      1  0.5193520000000  0.6119280000000  0.4835130000000 1.0
C      1  0.5181580000000  0.5950920000000  0.5402480000000 1.0
C      1  0.5255050000000  0.5620130000000  0.5936630000000 1.0
C      1  0.5303840000000  0.4946500000000  0.5954890000000 1.0
C      1  0.5185730000000  0.4400660000000  0.5915820000000 1.0
C      1  0.5141930000000  0.4014770000000  0.5471730000000 1.0
C      1  0.5161840000000  0.4083540000000  0.4832460000000 1.0
C      1  0.4953800000000  0.5699730000000  0.4725010000000 1.0
C      1  0.4965860000000  0.5652430000000  0.5016890000000 1.0
C      1  0.5074880000000  0.5369810000000  0.5533650000000 1.0
C      1  0.5050880000000  0.5118100000000  0.5707310000000 1.0
C      1  0.5104880000000  0.4776310000000  0.5597170000000 1.0
C      1  0.4918010000000  0.4481020000000  0.5423670000000 1.0
C      1  0.4929010000000  0.4393050000000  0.5121450000000 1.0
C      1  0.4931940000000  0.4454790000000  0.4576270000000 1.0
C      1  0.5011100000000  0.4612460000000  0.4347090000000 1.0
C      1  0.4938400000000  0.4920550000000  0.4372480000000 1.0
C      1  0.4934960000000  0.5465680000000  0.4532350000000 1.0
C      1  0.4385320000000  0.5846820000000  0.4625900000000 1.0
C      1  0.4361890000000  0.5902020000000  0.5143850000000 1.0
C      1  0.4365720000000  0.5662520000000  0.5619820000000 1.0
C      1  0.4371990000000  0.5225300000000  0.5896100000000 1.0
C      1  0.4389490000000  0.4707470000000  0.5905680000000 1.0
C      1  0.4381540000000  0.4284290000000  0.5591760000000 1.0
C      1  0.4404620000000  0.4098510000000  0.5103930000000 1.0
C      1  0.4405110000000  0.4196470000000  0.4596120000000 1.0
C      1  0.4430660000000  0.4533210000000  0.4208800000000 1.0
C      1  0.4441510000000  0.5018650000000  0.4066550000000 1.0
C      1  0.4418860000000  0.5517480000000  0.4210600000000 1.0
C      1  0.4493040000000  0.5827070000000  0.5405470000000 1.0
C      1  0.4515700000000  0.5460880000000  0.5785870000000 1.0
C      1  0.4531930000000  0.4973210000000  0.5958580000000 1.0
C      1  0.4521950000000  0.4460860000000  0.5796880000000 1.0
C      1  0.4529360000000  0.4127760000000  0.5374520000000 1.0
C      1  0.4545150000000  0.4086470000000  0.4837400000000 1.0
C      1  0.4557510000000  0.4327240000000  0.4372630000000 1.0
C      1  0.4586790000000  0.4752210000000  0.4082430000000 1.0
C      1  0.4572130000000  0.5285550000000  0.4088050000000 1.0
C      1  0.4516270000000  0.5776750000000  0.4349180000000 1.0
C      1  0.4504210000000  0.5958760000000  0.4879640000000 1.0
C      1  0.5376760000000  0.5084350000000  0.5314000000000 1.0
C      1  0.5333370000000  0.4817310000000  0.5392570000000 1.0
C      1  0.5350320000000  0.4632260000000  0.5180370000000 1.0
C      1  0.5181830000000  0.4491220000000  0.5003880000000 1.0
C      1  0.5210060000000  0.4440920000000  0.4706280000000 1.0
C      1  0.5312070000000  0.4685010000000  0.4425360000000 1.0
C      1  0.5196990000000  0.5013880000000  0.4494490000000 1.0
C      1  0.5210320000000  0.5318180000000  0.4538550000000 1.0
C      1  0.5317030000000  0.5379970000000  0.4804860000000 1.0
C      1  0.5202770000000  0.5468140000000  0.5050560000000 1.0
C      1  0.5256250000000  0.5336810000000  0.5307540000000 1.0
C      1  0.4129720000000  0.5281580000000  0.4564810000000 1.0
C      1  0.4070040000000  0.5462330000000  0.4783720000000 1.0
C      1  0.4070500000000  0.5484520000000  0.5076820000000 1.0
C      1  0.4070810000000  0.5360780000000  0.5343490000000 1.0
C      1  0.4044770000000  0.5123180000000  0.5511020000000 1.0
C      1  0.4111440000000  0.4843660000000  0.5500460000000 1.0
C      1  0.4058630000000  0.4614190000000  0.5333430000000 1.0
C      1  0.4159550000000  0.4547740000000  0.5063160000000 1.0
C      1  0.4083130000000  0.4567730000000  0.4776860000000 1.0
C      1  0.4152040000000  0.4755110000000  0.4563500000000 1.0
C      1  0.4091360000000  0.5017830000000  0.4458650000000 1.0
C      1  0.5095580000000  0.5990530000000  0.4370250000000 1.0
C      1  0.4957910000000  0.6189410000000  0.5024870000000 1.0
C      1  0.4987710000000  0.5889990000000  0.5615580000000 1.0
C      1  0.5199520000000  0.5380650000000  0.6113710000000 1.0
C      1  0.5038230000000  0.4833890000000  0.6096090000000 1.0
C      1  0.4955850000000  0.4204230000000  0.5870420000000 1.0
C      1  0.4958320000000  0.3889680000000  0.5279500000000 1.0
C      1  0.4991810000000  0.3912840000000  0.4649430000000 1.0
C      1  0.5234810000000  0.4293220000000  0.4048480000000 1.0
C      1  0.5072260000000  0.4844270000000  0.3929990000000 1.0
C      1  0.4998670000000  0.5485630000000  0.4023000000000 1.0
C      1  0.4190730000000  0.4606870000000  0.4327160000000 1.0
C      1  0.4185250000000  0.5022460000000  0.4190660000000 1.0
C      1  0.4186180000000  0.5435430000000  0.4339360000000 1.0
C      1  0.4142390000000  0.5713520000000  0.4678810000000 1.0
C      1  0.4123610000000  0.5758060000000  0.5111140000000 1.0
C      1  0.4118330000000  0.5560190000000  0.5535950000000 1.0
C      1  0.4116990000000  0.5197310000000  0.5773640000000 1.0
C      1  0.4153130000000  0.4752360000000  0.5761820000000 1.0
C      1  0.4135210000000  0.4399500000000  0.5504980000000 1.0
C      1  0.4183950000000  0.4265950000000  0.5088650000000 1.0
C      1  0.4155970000000  0.4319930000000  0.4655230000000 1.0
C      1  0.5454360000000  0.4492030000000  0.4050280000000 1.0
C      1  0.5451410000000  0.5258420000000  0.4032130000000 1.0
C      1  0.5455640000000  0.5730800000000  0.4134540000000 1.0
C      1  0.5447670000000  0.5962950000000  0.4863310000000 1.0
C      1  0.5461530000000  0.5884900000000  0.5384390000000 1.0
C      1  0.5529990000000  0.5594200000000  0.5825160000000 1.0
C      1  0.5424400000000  0.5193330000000  0.6076370000000 1.0
C      1  0.5408260000000  0.4484140000000  0.5735130000000 1.0
C      1  0.5388830000000  0.4124510000000  0.5376200000000 1.0
C      1  0.5440980000000  0.3972930000000  0.4875670000000 1.0
C      1  0.5495710000000  0.4234330000000  0.4447030000000 1.0
C      1  0.4635490000000  0.4967650000000  0.5053800000000 1.0
C      1  0.4892690000000  0.5038830000000  0.4977500000000 1.0
C      1  0.5898360000000  0.5105320000000  0.4987000000000 1.0
C      1  0.5647770000000  0.5061240000000  0.4950410000000 1.0
C      1  0.5138560000000  0.4926520000000  0.4924400000000 1.0
C      1  0.5411580000000  0.4952260000000  0.4876010000000 1.0
END
