TITL C-3578206-1180-608 -4.79995184133943e-06 125000 -796.064444350076 0 0 133 (C1) n - 1
REM
REM in /home/bkarasulu/work/CARBON/AIRSS/Generating-Clusters/EDIP-Nigel-Params/with-SteepDescent/Higher-Symm/SD-CG/HFTN-CG
REM
REM
REM
REM
REM
REM ./C.cell (12c818d87b63d06a65506943cc24bca4)
REM
REM compiler GCC version 9.2.1 20190827 (Red Hat 9.2.1-1)
REM options -cpp -mtune=generic -march=x86-64 -g -O0 -fpre-include=/usr/include/finclude/math-vector-fortran.h
REM seed -318760018 1178059124 231821176 -424089348 -1473405602 -168453725 1141991154 -2079079281 1873476678 155039860 1844556706 -658678605 877220414 -1995929740 -447778951 968629972 270477544 728514566 2098438395 -563758415 -2063237453 1570071878 -494752006 -1495049135 -2038020555 297646924 -1638798136 44247459 -1147900031 -391438884 1883787643 1864263019 884296111
REM
CELL 1.54180   50.00000   50.00000   50.00000   90.00000   90.00000   90.00000
LATT -1
SFAC C  
C      1  0.5297300000000  0.5791670000000  0.4944630000000 1.0
C      1  0.4769790000000  0.5808530000000  0.5073520000000 1.0
C      1  0.4340140000000  0.5536130000000  0.4916110000000 1.0
C      1  0.4138050000000  0.5060570000000  0.5085220000000 1.0
C      1  0.4240640000000  0.4536870000000  0.4951520000000 1.0
C      1  0.4674440000000  0.4181750000000  0.5062780000000 1.0
C      1  0.5191890000000  0.4146170000000  0.4914210000000 1.0
C      1  0.5642400000000  0.4435960000000  0.5092710000000 1.0
C      1  0.5857610000000  0.4910440000000  0.4918740000000 1.0
C      1  0.5731240000000  0.5439080000000  0.5084550000000 1.0
C      1  0.5387350000000  0.5253160000000  0.4169720000000 1.0
C      1  0.5150150000000  0.5430890000000  0.5839650000000 1.0
C      1  0.4893210000000  0.5451930000000  0.4157050000000 1.0
C      1  0.4639170000000  0.5302970000000  0.5852030000000 1.0
C      1  0.4530760000000  0.5027130000000  0.4147080000000 1.0
C      1  0.4605800000000  0.4745640000000  0.5857950000000 1.0
C      1  0.4842150000000  0.4571940000000  0.4168150000000 1.0
C      1  0.5135800000000  0.4567100000000  0.5834170000000 1.0
C      1  0.5368470000000  0.4713890000000  0.4166610000000 1.0
C      1  0.5465920000000  0.4997120000000  0.5843350000000 1.0
C      1  0.5219160000000  0.5284770000000  0.4814550000000 1.0
C      1  0.4999990000000  0.5350650000000  0.5192810000000 1.0
C      1  0.4794410000000  0.5262420000000  0.4811310000000 1.0
C      1  0.4651680000000  0.5093120000000  0.5199410000000 1.0
C      1  0.4626950000000  0.4858660000000  0.4827930000000 1.0
C      1  0.4772130000000  0.4679850000000  0.5184740000000 1.0
C      1  0.4984690000000  0.4627580000000  0.4814590000000 1.0
C      1  0.5199530000000  0.4695130000000  0.5190500000000 1.0
C      1  0.5327160000000  0.4880400000000  0.4821620000000 1.0
C      1  0.5345340000000  0.5102070000000  0.5185310000000 1.0
C      1  0.5313070000000  0.4981190000000  0.4514360000000 1.0
C      1  0.5266340000000  0.5178550000000  0.5493760000000 1.0
C      1  0.5107080000000  0.5287710000000  0.4509670000000 1.0
C      1  0.4906600000000  0.5290640000000  0.5497950000000 1.0
C      1  0.4751520000000  0.5141480000000  0.4513850000000 1.0
C      1  0.4708060000000  0.4977000000000  0.5494770000000 1.0
C      1  0.4745220000000  0.4802940000000  0.4533110000000 1.0
C      1  0.4915050000000  0.4694320000000  0.5473470000000 1.0
C      1  0.5086140000000  0.4706060000000  0.4510380000000 1.0
C      1  0.5260000000000  0.4819770000000  0.5492140000000 1.0
C      1  0.4980620000000  0.4325070000000  0.5813410000000 1.0
C      1  0.5401090000000  0.4427110000000  0.4183020000000 1.0
C      1  0.5645000000000  0.4774810000000  0.5815610000000 1.0
C      1  0.5672600000000  0.5206860000000  0.4187670000000 1.0
C      1  0.5407930000000  0.5553570000000  0.5815380000000 1.0
C      1  0.5017010000000  0.5711250000000  0.4185790000000 1.0
C      1  0.4587330000000  0.5586610000000  0.5826860000000 1.0
C      1  0.4333160000000  0.5235190000000  0.4172860000000 1.0
C      1  0.4324480000000  0.4802760000000  0.5836340000000 1.0
C      1  0.4580040000000  0.4455590000000  0.4191270000000 1.0
C      1  0.4426710000000  0.4281490000000  0.5322770000000 1.0
C      1  0.4984880000000  0.4084910000000  0.4692030000000 1.0
C      1  0.5499970000000  0.4260290000000  0.5288040000000 1.0
C      1  0.5852240000000  0.4689540000000  0.4704780000000 1.0
C      1  0.5852470000000  0.5253310000000  0.5287500000000 1.0
C      1  0.5559400000000  0.5710340000000  0.4699810000000 1.0
C      1  0.5018170000000  0.5914510000000  0.5327350000000 1.0
C      1  0.4482620000000  0.5721100000000  0.4697650000000 1.0
C      1  0.4149880000000  0.5291780000000  0.5305960000000 1.0
C      1  0.4108080000000  0.4757290000000  0.4686450000000 1.0
C      1  0.5095180000000  0.5576280000000  0.4887510000000 1.0
C      1  0.4732470000000  0.5515050000000  0.5120120000000 1.0
C      1  0.4477630000000  0.5263890000000  0.4884470000000 1.0
C      1  0.4398760000000  0.4911100000000  0.5131650000000 1.0
C      1  0.4533660000000  0.4565800000000  0.4902770000000 1.0
C      1  0.4880620000000  0.4393820000000  0.5112000000000 1.0
C      1  0.5247210000000  0.4448380000000  0.4890750000000 1.0
C      1  0.5516660000000  0.4706290000000  0.5118890000000 1.0
C      1  0.5595500000000  0.5064000000000  0.4889670000000 1.0
C      1  0.5435150000000  0.5407410000000  0.5107620000000 1.0
C      1  0.4921750000000  0.5657510000000  0.4657410000000 1.0
C      1  0.4542620000000  0.5490480000000  0.5352730000000 1.0
C      1  0.4333940000000  0.5133550000000  0.4653540000000 1.0
C      1  0.4372360000000  0.4719630000000  0.5360750000000 1.0
C      1  0.4628200000000  0.4404920000000  0.4677450000000 1.0
C      1  0.5060650000000  0.4301380000000  0.5330230000000 1.0
C      1  0.5436210000000  0.4484300000000  0.4664950000000 1.0
C      1  0.5672350000000  0.4851440000000  0.5331810000000 1.0
C      1  0.5629910000000  0.5252350000000  0.4664140000000 1.0
C      1  0.5348200000000  0.5579600000000  0.5332130000000 1.0
C      1  0.4240620000000  0.4878050000000  0.5571630000000 1.0
C      1  0.4457410000000  0.4473750000000  0.4449880000000 1.0
C      1  0.4873690000000  0.4261040000000  0.5555520000000 1.0
C      1  0.5350850000000  0.4313730000000  0.4441920000000 1.0
C      1  0.5667180000000  0.4659190000000  0.5554510000000 1.0
C      1  0.5766350000000  0.5116650000000  0.4443970000000 1.0
C      1  0.5527970000000  0.5531290000000  0.5556790000000 1.0
C      1  0.5112310000000  0.5762410000000  0.4452980000000 1.0
C      1  0.4632560000000  0.5685740000000  0.5559750000000 1.0
C      1  0.4315810000000  0.5340200000000  0.4440310000000 1.0
C      1  0.4610540000000  0.4382520000000  0.5529140000000 1.0
C      1  0.5066730000000  0.4266770000000  0.4466730000000 1.0
C      1  0.5480890000000  0.4439610000000  0.5521490000000 1.0
C      1  0.5723980000000  0.4829640000000  0.4467870000000 1.0
C      1  0.5689850000000  0.5291810000000  0.5531940000000 1.0
C      1  0.5375440000000  0.5635020000000  0.4477160000000 1.0
C      1  0.4919190000000  0.5730100000000  0.5536710000000 1.0
C      1  0.4535860000000  0.5527170000000  0.4476310000000 1.0
C      1  0.4304290000000  0.5159820000000  0.5529630000000 1.0
C      1  0.4316260000000  0.4727320000000  0.4475020000000 1.0
C      1  0.4737490000000  0.5845040000000  0.4785010000000 1.0
C      1  0.4285290000000  0.5548640000000  0.5217680000000 1.0
C      1  0.4084850000000  0.5037260000000  0.4780790000000 1.0
C      1  0.4237400000000  0.4487850000000  0.5243190000000 1.0
C      1  0.4697250000000  0.4138050000000  0.4772660000000 1.0
C      1  0.5182920000000  0.4071350000000  0.5199740000000 1.0
C      1  0.5696160000000  0.4441120000000  0.4791630000000 1.0
C      1  0.5930040000000  0.4892530000000  0.5203010000000 1.0
C      1  0.5743720000000  0.5492780000000  0.4784160000000 1.0
C      1  0.5288440000000  0.5847290000000  0.5235450000000 1.0
C      1  0.5360050000000  0.4387550000000  0.5776120000000 1.0
C      1  0.5656950000000  0.4714940000000  0.4213030000000 1.0
C      1  0.5704120000000  0.5156260000000  0.5785380000000 1.0
C      1  0.5463210000000  0.5529780000000  0.4222930000000 1.0
C      1  0.5049610000000  0.5698290000000  0.5790820000000 1.0
C      1  0.4649590000000  0.5597060000000  0.4221350000000 1.0
C      1  0.4356240000000  0.5280000000000  0.5785760000000 1.0
C      1  0.4305140000000  0.4852200000000  0.4214710000000 1.0
C      1  0.4523880000000  0.4474760000000  0.5788070000000 1.0
C      1  0.4932830000000  0.4298910000000  0.4214940000000 1.0
C      1  0.4798920000000  0.4867920000000  0.6045430000000 1.0
C      1  0.4921340000000  0.4771060000000  0.3965240000000 1.0
C      1  0.5079150000000  0.4768780000000  0.6042960000000 1.0
C      1  0.5208320000000  0.4848260000000  0.3957210000000 1.0
C      1  0.5262180000000  0.5005420000000  0.6058540000000 1.0
C      1  0.5225680000000  0.5149730000000  0.3943550000000 1.0
C      1  0.5088310000000  0.5254770000000  0.6067460000000 1.0
C      1  0.4940110000000  0.5255760000000  0.3940380000000 1.0
C      1  0.4800670000000  0.5165590000000  0.6059390000000 1.0
C      1  0.4755530000000  0.5016680000000  0.3953580000000 1.0
C      1  0.5013360000000  0.5033650000000  0.5694640000000 1.0
C      1  0.5015490000000  0.5031130000000  0.4311720000000 1.0
C      1  0.4966720000000  0.5012550000000  0.5009910000000 1.0
END
