TITL C-3578207-9274-531 -2.04012648580096e-06 125000 -221.499684345571 0 0 38 (C1) n - 1
REM
REM in /home/bkarasulu/work/CARBON/AIRSS/Generating-Clusters/EDIP-Nigel-Params/with-SteepDescent/Higher-Symm/SD-CG/HFTN-CG
REM
REM
REM
REM
REM
REM ./C.cell (12c818d87b63d06a65506943cc24bca4)
REM
REM compiler GCC version 9.2.1 20190827 (Red Hat 9.2.1-1)
REM options -cpp -mtune=generic -march=x86-64 -g -O0 -fpre-include=/usr/include/finclude/math-vector-fortran.h
REM seed 1302836762 -1969477253 55125148 1794308419 -211850389 -1850782501 -1711742117 -398258335 164808920 7495382 -1114649601 309250522 1046000531 -186866405 -97975315 1981343895 -940558438 -1944645073 840673778 -1309012209 1648667753 -158864088 2016042241 -566263067 -1229463421 1075541196 2125624882 834805424 -766486572 -112278865 614052543 2020930969 1239397852
REM
CELL 1.54180   50.00000   50.00000   50.00000   90.00000   90.00000   90.00000
LATT -1
SFAC C  
C      1  0.5416720000000  0.4670000000000  0.4678900000000 1.0
C      1  0.4725060000000  0.4635580000000  0.4632850000000 1.0
C      1  0.4629390000000  0.4617560000000  0.5320830000000 1.0
C      1  0.5329920000000  0.4646360000000  0.5357990000000 1.0
C      1  0.5374740000000  0.5346890000000  0.4600850000000 1.0
C      1  0.4638580000000  0.5305380000000  0.4681840000000 1.0
C      1  0.4639400000000  0.5283030000000  0.5391870000000 1.0
C      1  0.5370050000000  0.5340450000000  0.5318460000000 1.0
C      1  0.5540920000000  0.5123000000000  0.5205660000000 1.0
C      1  0.5242780000000  0.5120690000000  0.4459260000000 1.0
C      1  0.4480190000000  0.5063620000000  0.4784970000000 1.0
C      1  0.4793580000000  0.5064100000000  0.5534010000000 1.0
C      1  0.5428890000000  0.4862380000000  0.5163300000000 1.0
C      1  0.5200050000000  0.4877100000000  0.4601310000000 1.0
C      1  0.4616240000000  0.4816310000000  0.4837680000000 1.0
C      1  0.4837350000000  0.4817560000000  0.5395940000000 1.0
C      1  0.5503330000000  0.5308640000000  0.4868080000000 1.0
C      1  0.4915250000000  0.5299380000000  0.4565700000000 1.0
C      1  0.4496720000000  0.5244680000000  0.5126780000000 1.0
C      1  0.5106640000000  0.5279560000000  0.5454790000000 1.0
C      1  0.5534740000000  0.4683410000000  0.4951450000000 1.0
C      1  0.5001960000000  0.4645760000000  0.4525410000000 1.0
C      1  0.4514860000000  0.4616010000000  0.5032510000000 1.0
C      1  0.5055330000000  0.4638190000000  0.5473370000000 1.0
C      1  0.4651970000000  0.5423860000000  0.4953300000000 1.0
C      1  0.4896720000000  0.5433000000000  0.5332990000000 1.0
C      1  0.5382350000000  0.5503050000000  0.5051470000000 1.0
C      1  0.5120150000000  0.5502840000000  0.4639640000000 1.0
C      1  0.4639470000000  0.4379010000000  0.4900060000000 1.0
C      1  0.4811870000000  0.4380850000000  0.5333130000000 1.0
C      1  0.5347650000000  0.4429940000000  0.5151360000000 1.0
C      1  0.5190750000000  0.4443690000000  0.4675510000000 1.0
C      1  0.5109440000000  0.4490450000000  0.4970620000000 1.0
C      1  0.4928230000000  0.5373410000000  0.5045580000000 1.0
C      1  0.5009540000000  0.5083990000000  0.5000320000000 1.0
C      1  0.5026070000000  0.4794230000000  0.4998340000000 1.0
C      1  0.5117160000000  0.5570490000000  0.4930770000000 1.0
C      1  0.4877280000000  0.4310960000000  0.5055950000000 1.0
END
