TITL C-3578204-4308-721 -7.18718819260362e-07 125000 -157.214419383128 0 0 27 (C1) n - 1
REM
REM in /home/bkarasulu/work/CARBON/AIRSS/Generating-Clusters/EDIP-Nigel-Params/with-SteepDescent/Higher-Symm/SD-CG/HFTN-CG
REM
REM
REM
REM
REM
REM ./C.cell (12c818d87b63d06a65506943cc24bca4)
REM
REM compiler GCC version 9.2.1 20190827 (Red Hat 9.2.1-1)
REM options -cpp -mtune=generic -march=x86-64 -g -O0 -fpre-include=/usr/include/finclude/math-vector-fortran.h
REM seed -207606293 2119155850 488774066 -1227661535 1560749110 854100107 66751258 1508446970 216480154 1734977551 1640779368 -1127472547 -1544501806 -1503917252 2097660912 680885594 -1986418238 -990513354 -2137137352 -1629533454 -1822953039 1786367184 1979430164 -169649489 688770278 -983245523 1925075021 1906022813 -848853745 -175948002 -280640591 -2004373254 1782759693
REM
CELL 1.54180   50.00000   50.00000   50.00000   90.00000   90.00000   90.00000
LATT -1
SFAC C  
C      1  0.5634550000000  0.4770390000000  0.5186040000000 1.0
C      1  0.4544600000000  0.5169380000000  0.5113280000000 1.0
C      1  0.4563640000000  0.5065590000000  0.4669270000000 1.0
C      1  0.4574910000000  0.4792810000000  0.4808410000000 1.0
C      1  0.5313670000000  0.5162690000000  0.4709080000000 1.0
C      1  0.4742220000000  0.4593080000000  0.4696620000000 1.0
C      1  0.4984300000000  0.4663540000000  0.4574700000000 1.0
C      1  0.5213050000000  0.4676650000000  0.4751400000000 1.0
C      1  0.5007790000000  0.5462460000000  0.4881700000000 1.0
C      1  0.5222890000000  0.5418450000000  0.5081880000000 1.0
C      1  0.5010040000000  0.4876660000000  0.5563100000000 1.0
C      1  0.4861900000000  0.5063780000000  0.5699440000000 1.0
C      1  0.5028630000000  0.5214700000000  0.4738780000000 1.0
C      1  0.4978580000000  0.5206960000000  0.5171300000000 1.0
C      1  0.4715230000000  0.5246330000000  0.5567730000000 1.0
C      1  0.5035500000000  0.4905850000000  0.5273900000000 1.0
C      1  0.4942750000000  0.4887910000000  0.4409140000000 1.0
C      1  0.4487170000000  0.5273650000000  0.4855440000000 1.0
C      1  0.5602810000000  0.4944700000000  0.4965070000000 1.0
C      1  0.4636890000000  0.4895170000000  0.5074950000000 1.0
C      1  0.4836350000000  0.5115090000000  0.4542410000000 1.0
C      1  0.5445080000000  0.5291980000000  0.4937350000000 1.0
C      1  0.4724800000000  0.5317150000000  0.5298050000000 1.0
C      1  0.5441490000000  0.4602900000000  0.5287380000000 1.0
C      1  0.5413960000000  0.4889990000000  0.4745100000000 1.0
C      1  0.5249570000000  0.4741060000000  0.5127130000000 1.0
C      1  0.4787620000000  0.4751080000000  0.5271370000000 1.0
END
