TITL C-3577090-796-714 -9.97314672582297e-07 125000 -926.603215953331 0 0 146 (C1) n - 1
REM
REM in /home/bkarasulu/work/CARBON/AIRSS/Generating-Clusters/EDIP-Nigel-Params/with-SteepDescent/Higher-Symm/SD-CG/HFTN-CG
REM
REM
REM
REM
REM
REM ./C.cell (12c818d87b63d06a65506943cc24bca4)
REM
REM compiler GCC version 9.2.1 20190827 (Red Hat 9.2.1-1)
REM options -cpp -mtune=generic -march=x86-64 -g -O0 -fpre-include=/usr/include/finclude/math-vector-fortran.h
REM seed -2084430223 387173436 -558129244 1994034681 -775083256 -1110262155 903992746 -2110616039 174089425 -1668250487 219421094 -1378577626 -1204398652 1822016957 -1261121236 1201763350 -952984055 385895263 1146798508 333902117 570350489 -740588754 -1605357848 1675361337 555308199 -2058159938 1571448932 1862978987 2100055440 1314771286 12876419 -68705058 744338224
REM
CELL 1.54180   50.00000   50.00000   50.00000   90.00000   90.00000   90.00000
LATT -1
SFAC C  
C      1  0.3871430000000  0.4773200000000  0.5408950000000 1.0
C      1  0.5716880000000  0.4147370000000  0.5401140000000 1.0
C      1  0.5366170000000  0.6024020000000  0.5417730000000 1.0
C      1  0.6117430000000  0.4794960000000  0.4544130000000 1.0
C      1  0.4251500000000  0.4137170000000  0.4584300000000 1.0
C      1  0.4631730000000  0.6025670000000  0.4575440000000 1.0
C      1  0.4311300000000  0.4133770000000  0.5098630000000 1.0
C      1  0.6130130000000  0.4839260000000  0.5055100000000 1.0
C      1  0.4597640000000  0.5987780000000  0.5078320000000 1.0
C      1  0.5653720000000  0.4137830000000  0.4904380000000 1.0
C      1  0.3878540000000  0.4823860000000  0.4898820000000 1.0
C      1  0.5427880000000  0.6017010000000  0.4908200000000 1.0
C      1  0.5356380000000  0.4200220000000  0.4963490000000 1.0
C      1  0.5535310000000  0.5734590000000  0.4952960000000 1.0
C      1  0.4048280000000  0.5074660000000  0.4942810000000 1.0
C      1  0.4607550000000  0.4190130000000  0.5051090000000 1.0
C      1  0.4463370000000  0.5711030000000  0.5045420000000 1.0
C      1  0.5960700000000  0.5100990000000  0.5038250000000 1.0
C      1  0.3951820000000  0.5238560000000  0.5188380000000 1.0
C      1  0.5263810000000  0.4022410000000  0.5206740000000 1.0
C      1  0.5720660000000  0.5733320000000  0.5204270000000 1.0
C      1  0.6041160000000  0.5264250000000  0.4786210000000 1.0
C      1  0.4697700000000  0.4027670000000  0.4809500000000 1.0
C      1  0.4280870000000  0.5716180000000  0.4788900000000 1.0
C      1  0.5268690000000  0.6075070000000  0.5161090000000 1.0
C      1  0.3893520000000  0.4657190000000  0.5154100000000 1.0
C      1  0.5804480000000  0.4228180000000  0.5150220000000 1.0
C      1  0.4748040000000  0.6058170000000  0.4825660000000 1.0
C      1  0.6102320000000  0.4676230000000  0.4797410000000 1.0
C      1  0.4170820000000  0.4219650000000  0.4840950000000 1.0
C      1  0.4358560000000  0.5314360000000  0.5396830000000 1.0
C      1  0.4980900000000  0.4287430000000  0.5490930000000 1.0
C      1  0.5683070000000  0.5352360000000  0.5501120000000 1.0
C      1  0.5623210000000  0.5335740000000  0.4596640000000 1.0
C      1  0.4960960000000  0.4364470000000  0.4621910000000 1.0
C      1  0.4327620000000  0.5344920000000  0.4480180000000 1.0
C      1  0.4490030000000  0.4507250000000  0.4299020000000 1.0
C      1  0.5676130000000  0.4836050000000  0.4260710000000 1.0
C      1  0.4818440000000  0.5634660000000  0.4305050000000 1.0
C      1  0.5507600000000  0.4499180000000  0.5695690000000 1.0
C      1  0.4306410000000  0.4831200000000  0.5714790000000 1.0
C      1  0.5184140000000  0.5620690000000  0.5693430000000 1.0
C      1  0.5061410000000  0.5866890000000  0.5132830000000 1.0
C      1  0.4182480000000  0.4586870000000  0.5141250000000 1.0
C      1  0.5779480000000  0.4527850000000  0.5122230000000 1.0
C      1  0.4988270000000  0.5884670000000  0.4840970000000 1.0
C      1  0.5827480000000  0.4567580000000  0.4831660000000 1.0
C      1  0.4241990000000  0.4507340000000  0.4853550000000 1.0
C      1  0.5579290000000  0.4813220000000  0.5210280000000 1.0
C      1  0.4798690000000  0.5457740000000  0.5313350000000 1.0
C      1  0.4600770000000  0.4626470000000  0.5251600000000 1.0
C      1  0.4453490000000  0.4868590000000  0.4754480000000 1.0
C      1  0.5133650000000  0.5552760000000  0.4701200000000 1.0
C      1  0.5455490000000  0.4641850000000  0.4756430000000 1.0
C      1  0.4991260000000  0.3938720000000  0.5153830000000 1.0
C      1  0.5951770000000  0.5562480000000  0.5149650000000 1.0
C      1  0.4023850000000  0.5518000000000  0.5128940000000 1.0
C      1  0.4971480000000  0.3940630000000  0.4856740000000 1.0
C      1  0.4057840000000  0.5534240000000  0.4833480000000 1.0
C      1  0.5967300000000  0.5542080000000  0.4851480000000 1.0
C      1  0.5225200000000  0.5987700000000  0.4687180000000 1.0
C      1  0.4040580000000  0.4675220000000  0.4691850000000 1.0
C      1  0.5748350000000  0.4318720000000  0.4682280000000 1.0
C      1  0.4809820000000  0.5952800000000  0.5287460000000 1.0
C      1  0.5997590000000  0.4674040000000  0.5267950000000 1.0
C      1  0.4244710000000  0.4337870000000  0.5308530000000 1.0
C      1  0.4658230000000  0.4903410000000  0.5281750000000 1.0
C      1  0.5246770000000  0.4852530000000  0.5252230000000 1.0
C      1  0.5152350000000  0.5127080000000  0.5162320000000 1.0
C      1  0.5356990000000  0.4920150000000  0.4717910000000 1.0
C      1  0.4753800000000  0.4860030000000  0.4728380000000 1.0
C      1  0.4850100000000  0.5123140000000  0.4839810000000 1.0
C      1  0.4785830000000  0.4855730000000  0.4056310000000 1.0
C      1  0.5187130000000  0.4897110000000  0.4048210000000 1.0
C      1  0.5004330000000  0.5227650000000  0.4135430000000 1.0
C      1  0.5289360000000  0.4837430000000  0.5919570000000 1.0
C      1  0.4736870000000  0.4919570000000  0.5954200000000 1.0
C      1  0.4982570000000  0.5206960000000  0.5864920000000 1.0
C      1  0.4488450000000  0.5109420000000  0.5168740000000 1.0
C      1  0.5098810000000  0.4630120000000  0.5076750000000 1.0
C      1  0.5341100000000  0.5290690000000  0.5030150000000 1.0
C      1  0.5500010000000  0.5146860000000  0.4831520000000 1.0
C      1  0.4872070000000  0.4590040000000  0.4854970000000 1.0
C      1  0.4627920000000  0.5258220000000  0.4955760000000 1.0
C      1  0.5242990000000  0.4160320000000  0.5460350000000 1.0
C      1  0.5609800000000  0.5628670000000  0.5449610000000 1.0
C      1  0.4094690000000  0.5184900000000  0.5439970000000 1.0
C      1  0.4715860000000  0.4197790000000  0.4578800000000 1.0
C      1  0.4391750000000  0.5622880000000  0.4539340000000 1.0
C      1  0.5885180000000  0.5205710000000  0.4540890000000 1.0
C      1  0.4454400000000  0.4377850000000  0.5505880000000 1.0
C      1  0.5865600000000  0.4827510000000  0.5471490000000 1.0
C      1  0.4726430000000  0.5778230000000  0.5504120000000 1.0
C      1  0.5544950000000  0.4379390000000  0.4485560000000 1.0
C      1  0.4174790000000  0.4851000000000  0.4501120000000 1.0
C      1  0.5295390000000  0.5809610000000  0.4468790000000 1.0
C      1  0.5304900000000  0.4992180000000  0.4445510000000 1.0
C      1  0.4977790000000  0.5291880000000  0.4639590000000 1.0
C      1  0.4837180000000  0.4870210000000  0.4437670000000 1.0
C      1  0.4694690000000  0.4977860000000  0.5554150000000 1.0
C      1  0.5013490000000  0.5267620000000  0.5370740000000 1.0
C      1  0.5161550000000  0.4841480000000  0.5556840000000 1.0
C      1  0.4743890000000  0.5385000000000  0.4174160000000 1.0
C      1  0.4763930000000  0.4574340000000  0.4188590000000 1.0
C      1  0.5498260000000  0.5033880000000  0.4109400000000 1.0
C      1  0.5257020000000  0.5363640000000  0.5814330000000 1.0
C      1  0.5257050000000  0.4555120000000  0.5851340000000 1.0
C      1  0.4455870000000  0.5041910000000  0.5875810000000 1.0
C      1  0.5515370000000  0.4954220000000  0.5790530000000 1.0
C      1  0.4768800000000  0.5423200000000  0.5833460000000 1.0
C      1  0.4742100000000  0.4641560000000  0.5829040000000 1.0
C      1  0.4517470000000  0.4964520000000  0.4156860000000 1.0
C      1  0.5223630000000  0.5437560000000  0.4157340000000 1.0
C      1  0.5233510000000  0.4636540000000  0.4204480000000 1.0
C      1  0.4097450000000  0.4908090000000  0.5512920000000 1.0
C      1  0.5497270000000  0.4277230000000  0.5513070000000 1.0
C      1  0.5383700000000  0.5774820000000  0.5544500000000 1.0
C      1  0.5885400000000  0.4928640000000  0.4457320000000 1.0
C      1  0.4462880000000  0.4314210000000  0.4519310000000 1.0
C      1  0.4609970000000  0.5781310000000  0.4443720000000 1.0
C      1  0.5684640000000  0.5006050000000  0.5005430000000 1.0
C      1  0.4698320000000  0.5517110000000  0.5049020000000 1.0
C      1  0.4610610000000  0.4492690000000  0.4993280000000 1.0
C      1  0.4308120000000  0.4930260000000  0.5007990000000 1.0
C      1  0.5268290000000  0.5572360000000  0.4978750000000 1.0
C      1  0.5353200000000  0.4504800000000  0.4998860000000 1.0
C      1  0.4108960000000  0.5273010000000  0.4693110000000 1.0
C      1  0.5157860000000  0.4145530000000  0.4736890000000 1.0
C      1  0.5700570000000  0.5607900000000  0.4726200000000 1.0
C      1  0.5918790000000  0.5300080000000  0.5296400000000 1.0
C      1  0.4807090000000  0.4134990000000  0.5286140000000 1.0
C      1  0.4282700000000  0.5592250000000  0.5267860000000 1.0
C      1  0.5010650000000  0.4493170000000  0.4336860000000 1.0
C      1  0.5467430000000  0.5304350000000  0.4277600000000 1.0
C      1  0.4511810000000  0.5232940000000  0.4270320000000 1.0
C      1  0.4989270000000  0.4519120000000  0.5697490000000 1.0
C      1  0.4518090000000  0.5295580000000  0.5700310000000 1.0
C      1  0.5494870000000  0.5225980000000  0.5699770000000 1.0
C      1  0.5646530000000  0.4752510000000  0.5639000000000 1.0
C      1  0.4891300000000  0.5668640000000  0.5719570000000 1.0
C      1  0.4492620000000  0.4605960000000  0.5681720000000 1.0
C      1  0.4343400000000  0.4760830000000  0.4280920000000 1.0
C      1  0.5112730000000  0.5679380000000  0.4281450000000 1.0
C      1  0.5495760000000  0.4611890000000  0.4321210000000 1.0
C      1  0.5030050000000  0.5099170000000  0.4415130000000 1.0
C      1  0.4970830000000  0.5073040000000  0.5588800000000 1.0
END
