TITL C-3578204-4308-73 -6.03116446240141e-07 125000 -253.954182509598 0 0 42 (C2) n - 1
REM
REM in /home/bkarasulu/work/CARBON/AIRSS/Generating-Clusters/EDIP-Nigel-Params/with-SteepDescent/Higher-Symm/SD-CG/HFTN-CG
REM
REM
REM
REM
REM
REM ./C.cell (12c818d87b63d06a65506943cc24bca4)
REM
REM compiler GCC version 9.2.1 20190827 (Red Hat 9.2.1-1)
REM options -cpp -mtune=generic -march=x86-64 -g -O0 -fpre-include=/usr/include/finclude/math-vector-fortran.h
REM seed 1096139554 -1780075010 1326083972 72978267 -1948044393 -435745430 -905756061 -1771519447 -924161532 -804141189 1472225038 424274509 1542298192 -1720301093 32862145 -2099675122 -43545499 -832022763 -1401006433 -1450191056 -1495079684 -1765145766 1140425845 -403268056 2017510949 153969859 -1580105221 1759514518 2106781670 -1078435737 1438557020 1504890468 558644702
REM
CELL 1.54180   50.00000   50.00000   50.00000   90.00000   90.00000   90.00000
LATT -1
SFAC C  
C      1  0.5136560000000  0.4423830000000  0.5153570000000 1.0
C      1  0.4557880000000  0.4572380000000  0.5100520000000 1.0
C      1  0.4440410000000  0.5162230000000  0.5143070000000 1.0
C      1  0.4863420000000  0.5576150000000  0.5153650000000 1.0
C      1  0.5442110000000  0.5427610000000  0.5100630000000 1.0
C      1  0.5559570000000  0.4837750000000  0.5143100000000 1.0
C      1  0.5559030000000  0.4596840000000  0.4964200000000 1.0
C      1  0.4939000000000  0.4301450000000  0.4950900000000 1.0
C      1  0.4360840000000  0.4711440000000  0.4931780000000 1.0
C      1  0.4440970000000  0.5403160000000  0.4964200000000 1.0
C      1  0.5061010000000  0.5698550000000  0.4951010000000 1.0
C      1  0.5639160000000  0.5288570000000  0.4931890000000 1.0
C      1  0.5305570000000  0.4889470000000  0.5431730000000 1.0
C      1  0.5087220000000  0.4683930000000  0.5441440000000 1.0
C      1  0.4798380000000  0.4812480000000  0.5451330000000 1.0
C      1  0.4694380000000  0.5110460000000  0.5431710000000 1.0
C      1  0.4912730000000  0.5316000000000  0.5441480000000 1.0
C      1  0.5201570000000  0.5187440000000  0.5451380000000 1.0
C      1  0.5243050000000  0.4836340000000  0.4622870000000 1.0
C      1  0.4983640000000  0.4712040000000  0.4626730000000 1.0
C      1  0.4746090000000  0.4877620000000  0.4649170000000 1.0
C      1  0.4757000000000  0.5163720000000  0.4622870000000 1.0
C      1  0.5016400000000  0.5288020000000  0.4626770000000 1.0
C      1  0.5253950000000  0.5122440000000  0.4649220000000 1.0
C      1  0.4540500000000  0.5317150000000  0.4715880000000 1.0
C      1  0.5018240000000  0.5552540000000  0.4715910000000 1.0
C      1  0.5502050000000  0.5240690000000  0.4692660000000 1.0
C      1  0.5459530000000  0.4682890000000  0.4715880000000 1.0
C      1  0.4981790000000  0.4447500000000  0.4715830000000 1.0
C      1  0.4497980000000  0.4759360000000  0.4692570000000 1.0
C      1  0.4589720000000  0.5610940000000  0.5076820000000 1.0
C      1  0.5331670000000  0.5673740000000  0.5019800000000 1.0
C      1  0.5731520000000  0.5052240000000  0.5056270000000 1.0
C      1  0.5410270000000  0.4389050000000  0.5076770000000 1.0
C      1  0.4668320000000  0.4326250000000  0.5019650000000 1.0
C      1  0.4268480000000  0.4947750000000  0.5056180000000 1.0
C      1  0.4943920000000  0.5288750000000  0.5059080000000 1.0
C      1  0.5228960000000  0.5219460000000  0.5148320000000 1.0
C      1  0.5284060000000  0.4934800000000  0.5047940000000 1.0
C      1  0.5056080000000  0.4711240000000  0.5059040000000 1.0
C      1  0.4771030000000  0.4780520000000  0.5148260000000 1.0
C      1  0.4715940000000  0.5065190000000  0.5047920000000 1.0
END
