TITL C-3577078-809-362 1.28117030448695e-06 125000 -518.504252828115 0 0 84 (C1) n - 1
REM
REM in /home/bkarasulu/work/CARBON/AIRSS/Generating-Clusters/EDIP-Nigel-Params/with-SteepDescent/Higher-Symm/SD-CG/HFTN-CG
REM
REM
REM
REM
REM
REM ./C.cell (12c818d87b63d06a65506943cc24bca4)
REM
REM compiler GCC version 9.2.1 20190827 (Red Hat 9.2.1-1)
REM options -cpp -mtune=generic -march=x86-64 -g -O0 -fpre-include=/usr/include/finclude/math-vector-fortran.h
REM seed -298953539 -1779393502 1787017506 1734046132 -1036186074 -280886248 2088091186 534205488 -1730310586 1225284736 -2118245740 -242697235 -15184050 857980282 -764237440 1918557181 651767686 71701580 471296572 294977670 1366884914 -629673072 1154804230 -319078092 -1019360180 1202023479 1659043678 1516524111 443703503 1758130910 345407362 -1772142596 -609392960
REM
CELL 1.54180   50.00000   50.00000   50.00000   90.00000   90.00000   90.00000
LATT -1
SFAC C  
C      1  0.5319820000000  0.5116020000000  0.4959980000000 1.0
C      1  0.5112220000000  0.5184230000000  0.4752310000000 1.0
C      1  0.4836160000000  0.5248070000000  0.4766330000000 1.0
C      1  0.4633630000000  0.5124190000000  0.4938500000000 1.0
C      1  0.4702650000000  0.5180950000000  0.5220390000000 1.0
C      1  0.4969910000000  0.5097470000000  0.5351760000000 1.0
C      1  0.5233570000000  0.5187900000000  0.5231410000000 1.0
C      1  0.4795590000000  0.4537490000000  0.4483800000000 1.0
C      1  0.4418770000000  0.4539480000000  0.4853460000000 1.0
C      1  0.4475890000000  0.4537220000000  0.5368810000000 1.0
C      1  0.4970730000000  0.4534530000000  0.5601870000000 1.0
C      1  0.5487210000000  0.4521940000000  0.5438770000000 1.0
C      1  0.5642760000000  0.4506320000000  0.4944400000000 1.0
C      1  0.5285100000000  0.4500080000000  0.4499850000000 1.0
C      1  0.4260490000000  0.4914090000000  0.5127190000000 1.0
C      1  0.4646180000000  0.4911490000000  0.5637060000000 1.0
C      1  0.5288610000000  0.4914820000000  0.5662670000000 1.0
C      1  0.5713350000000  0.4900900000000  0.5196740000000 1.0
C      1  0.5659590000000  0.4815560000000  0.4532280000000 1.0
C      1  0.5037230000000  0.4843620000000  0.4185480000000 1.0
C      1  0.4435030000000  0.4897090000000  0.4532720000000 1.0
C      1  0.5372970000000  0.4787800000000  0.4936790000000 1.0
C      1  0.5224050000000  0.4765200000000  0.4659190000000 1.0
C      1  0.4905330000000  0.4805780000000  0.4637210000000 1.0
C      1  0.4691580000000  0.4817580000000  0.4884240000000 1.0
C      1  0.4766390000000  0.4648470000000  0.5139040000000 1.0
C      1  0.4990040000000  0.4769640000000  0.5298480000000 1.0
C      1  0.5234710000000  0.4634430000000  0.5170030000000 1.0
C      1  0.4300040000000  0.5343110000000  0.4574490000000 1.0
C      1  0.4216320000000  0.5352010000000  0.5283400000000 1.0
C      1  0.4735530000000  0.5356650000000  0.5773890000000 1.0
C      1  0.5442670000000  0.5366210000000  0.5660400000000 1.0
C      1  0.5786920000000  0.5330540000000  0.5023340000000 1.0
C      1  0.5566570000000  0.5314620000000  0.4573490000000 1.0
C      1  0.5048420000000  0.5332320000000  0.4315790000000 1.0
C      1  0.4809350000000  0.5066020000000  0.5825970000000 1.0
C      1  0.5536770000000  0.5077120000000  0.5656490000000 1.0
C      1  0.5836640000000  0.5040990000000  0.4968280000000 1.0
C      1  0.5396770000000  0.4981240000000  0.4482540000000 1.0
C      1  0.4882550000000  0.5018520000000  0.4387020000000 1.0
C      1  0.4205120000000  0.5058210000000  0.4621480000000 1.0
C      1  0.4210170000000  0.5064110000000  0.5375580000000 1.0
C      1  0.4778770000000  0.4340850000000  0.5114250000000 1.0
C      1  0.4987000000000  0.4221100000000  0.5262020000000 1.0
C      1  0.5218970000000  0.4328600000000  0.5144210000000 1.0
C      1  0.5277670000000  0.4217880000000  0.4894980000000 1.0
C      1  0.5166180000000  0.4274250000000  0.4646960000000 1.0
C      1  0.4876960000000  0.4294820000000  0.4634070000000 1.0
C      1  0.4735270000000  0.4227810000000  0.4863040000000 1.0
C      1  0.5856090000000  0.4995360000000  0.4668150000000 1.0
C      1  0.5295950000000  0.4985860000000  0.4197180000000 1.0
C      1  0.4588200000000  0.5046960000000  0.4334580000000 1.0
C      1  0.4116310000000  0.5059180000000  0.4913260000000 1.0
C      1  0.4393010000000  0.5063870000000  0.5618640000000 1.0
C      1  0.5110280000000  0.5071620000000  0.5834300000000 1.0
C      1  0.5730630000000  0.5079950000000  0.5425720000000 1.0
C      1  0.5260150000000  0.5652710000000  0.5227480000000 1.0
C      1  0.5345560000000  0.5626710000000  0.4933950000000 1.0
C      1  0.5145810000000  0.5653250000000  0.4711850000000 1.0
C      1  0.4776950000000  0.5701320000000  0.4694360000000 1.0
C      1  0.4581450000000  0.5656100000000  0.4915200000000 1.0
C      1  0.4672530000000  0.5654030000000  0.5212570000000 1.0
C      1  0.4964390000000  0.5626920000000  0.5337550000000 1.0
C      1  0.4416490000000  0.5391050000000  0.4853660000000 1.0
C      1  0.4525440000000  0.5404930000000  0.5336480000000 1.0
C      1  0.4961450000000  0.5389470000000  0.5558240000000 1.0
C      1  0.5407690000000  0.5408630000000  0.5355140000000 1.0
C      1  0.5522970000000  0.5361770000000  0.4881650000000 1.0
C      1  0.5209780000000  0.5391690000000  0.4564870000000 1.0
C      1  0.4767400000000  0.5434890000000  0.4540790000000 1.0
C      1  0.5848690000000  0.5245820000000  0.4530620000000 1.0
C      1  0.5243370000000  0.5250010000000  0.4113360000000 1.0
C      1  0.4524370000000  0.5335380000000  0.4385860000000 1.0
C      1  0.4154300000000  0.5349410000000  0.4998300000000 1.0
C      1  0.4477580000000  0.5356580000000  0.5642170000000 1.0
C      1  0.5179210000000  0.5362840000000  0.5780890000000 1.0
C      1  0.5715170000000  0.5357480000000  0.5307830000000 1.0
C      1  0.5612560000000  0.4549930000000  0.4655960000000 1.0
C      1  0.5049050000000  0.4564060000000  0.4282400000000 1.0
C      1  0.4480870000000  0.4609190000000  0.4570860000000 1.0
C      1  0.4329210000000  0.4634180000000  0.5122010000000 1.0
C      1  0.4678910000000  0.4630980000000  0.5573890000000 1.0
C      1  0.5263720000000  0.4630430000000  0.5611230000000 1.0
C      1  0.5670240000000  0.4618090000000  0.5216520000000 1.0
END
