TITL C-3578198-8939-459 -2.55390647288034e-06 125000 -1179.55610098633 0 0 187 (C1) n - 1
REM
REM in /home/bkarasulu/work/CARBON/AIRSS/Generating-Clusters/EDIP-Nigel-Params/with-SteepDescent/Higher-Symm/SD-CG/HFTN-CG
REM
REM
REM
REM
REM
REM ./C.cell (12c818d87b63d06a65506943cc24bca4)
REM
REM compiler GCC version 9.2.1 20190827 (Red Hat 9.2.1-1)
REM options -cpp -mtune=generic -march=x86-64 -g -O0 -fpre-include=/usr/include/finclude/math-vector-fortran.h
REM seed 544266928 -716545638 1487383206 -863254286 1165565303 -1364970386 -1258377126 -900658190 -2042426964 1399533624 1419245218 -1787443529 -874729334 246502621 1677868070 -165594308 -679669763 37566702 -1077954911 -523593632 113920375 1982897432 -1615143118 -538168648 -194261753 -223545487 1642090977 -12654638 1461312122 1173627288 1378182509 90086796 1902215042
REM
CELL 1.54180   50.00000   50.00000   50.00000   90.00000   90.00000   90.00000
LATT -1
SFAC C  
C      1  0.4895040000000  0.4509270000000  0.5531360000000 1.0
C      1  0.4974560000000  0.5533980000000  0.4481410000000 1.0
C      1  0.5188570000000  0.5418630000000  0.5650940000000 1.0
C      1  0.4880800000000  0.4586040000000  0.4386220000000 1.0
C      1  0.4846070000000  0.4961700000000  0.5400910000000 1.0
C      1  0.5086360000000  0.5084500000000  0.4565620000000 1.0
C      1  0.5640050000000  0.5530820000000  0.5830210000000 1.0
C      1  0.4389020000000  0.4432880000000  0.4213360000000 1.0
C      1  0.4660320000000  0.4407270000000  0.4857700000000 1.0
C      1  0.5408770000000  0.5671430000000  0.5150110000000 1.0
C      1  0.5414070000000  0.4792120000000  0.5311200000000 1.0
C      1  0.4536010000000  0.5143470000000  0.4761390000000 1.0
C      1  0.5637410000000  0.5221850000000  0.5377670000000 1.0
C      1  0.4396480000000  0.4724820000000  0.4546810000000 1.0
C      1  0.4889960000000  0.5438480000000  0.6054600000000 1.0
C      1  0.5075540000000  0.4617390000000  0.3964350000000 1.0
C      1  0.4451120000000  0.4000910000000  0.5275810000000 1.0
C      1  0.5566400000000  0.6001910000000  0.4775980000000 1.0
C      1  0.4327370000000  0.5844300000000  0.4449790000000 1.0
C      1  0.5530680000000  0.4123100000000  0.5537970000000 1.0
C      1  0.4844850000000  0.5932390000000  0.4994040000000 1.0
C      1  0.5241390000000  0.4067710000000  0.4813730000000 1.0
C      1  0.4730700000000  0.4047040000000  0.5365390000000 1.0
C      1  0.5279280000000  0.5977310000000  0.4744490000000 1.0
C      1  0.4269580000000  0.4175500000000  0.5406280000000 1.0
C      1  0.5694960000000  0.5808300000000  0.4627300000000 1.0
C      1  0.4406190000000  0.3977870000000  0.5001390000000 1.0
C      1  0.5679880000000  0.6068410000000  0.5026340000000 1.0
C      1  0.4016210000000  0.5124300000000  0.4275830000000 1.0
C      1  0.5890030000000  0.4786780000000  0.5689630000000 1.0
C      1  0.4926950000000  0.4879450000000  0.4004520000000 1.0
C      1  0.5029980000000  0.5169600000000  0.6076310000000 1.0
C      1  0.4742040000000  0.5595020000000  0.4653710000000 1.0
C      1  0.5150030000000  0.4413080000000  0.5401570000000 1.0
C      1  0.4830740000000  0.4224660000000  0.4141470000000 1.0
C      1  0.5217260000000  0.5784690000000  0.5901570000000 1.0
C      1  0.4946230000000  0.4063540000000  0.5142620000000 1.0
C      1  0.5105690000000  0.6066930000000  0.4963380000000 1.0
C      1  0.5588500000000  0.5061480000000  0.5931350000000 1.0
C      1  0.4382480000000  0.4892700000000  0.4066070000000 1.0
C      1  0.4905330000000  0.5659840000000  0.5320210000000 1.0
C      1  0.5174890000000  0.4377860000000  0.4741520000000 1.0
C      1  0.4961400000000  0.4672490000000  0.5803390000000 1.0
C      1  0.4895930000000  0.5388430000000  0.4175830000000 1.0
C      1  0.5279010000000  0.5902900000000  0.5628890000000 1.0
C      1  0.4817980000000  0.4130110000000  0.4428660000000 1.0
C      1  0.5369450000000  0.5510650000000  0.4163400000000 1.0
C      1  0.4551680000000  0.4556130000000  0.5909560000000 1.0
C      1  0.3843550000000  0.4601810000000  0.4999380000000 1.0
C      1  0.6142130000000  0.5272400000000  0.5040970000000 1.0
C      1  0.6143480000000  0.4867300000000  0.5285100000000 1.0
C      1  0.3852950000000  0.4990210000000  0.4724890000000 1.0
C      1  0.4678560000000  0.5981460000000  0.5256510000000 1.0
C      1  0.5452470000000  0.3959150000000  0.4625340000000 1.0
C      1  0.5726030000000  0.5261560000000  0.5755880000000 1.0
C      1  0.4246020000000  0.4678610000000  0.4203660000000 1.0
C      1  0.5685030000000  0.4323690000000  0.5107930000000 1.0
C      1  0.4273870000000  0.5666360000000  0.4877490000000 1.0
C      1  0.5210720000000  0.4831730000000  0.5757500000000 1.0
C      1  0.4664910000000  0.5226380000000  0.4224840000000 1.0
C      1  0.4761590000000  0.6029070000000  0.4188320000000 1.0
C      1  0.5098580000000  0.4004540000000  0.5846340000000 1.0
C      1  0.5565420000000  0.4294630000000  0.4306980000000 1.0
C      1  0.4500620000000  0.5741430000000  0.5631810000000 1.0
C      1  0.5521160000000  0.5056080000000  0.3963790000000 1.0
C      1  0.4500180000000  0.5040860000000  0.5923680000000 1.0
C      1  0.4948610000000  0.5848430000000  0.4064430000000 1.0
C      1  0.4940590000000  0.4199860000000  0.5991460000000 1.0
C      1  0.5191740000000  0.5007820000000  0.5347750000000 1.0
C      1  0.4813500000000  0.4970070000000  0.4665820000000 1.0
C      1  0.4234930000000  0.4825950000000  0.5588610000000 1.0
C      1  0.5532820000000  0.5113100000000  0.4358020000000 1.0
C      1  0.4605430000000  0.4087610000000  0.4827910000000 1.0
C      1  0.5495790000000  0.5961790000000  0.5224980000000 1.0
C      1  0.4194500000000  0.5587320000000  0.4451660000000 1.0
C      1  0.5725610000000  0.4333430000000  0.5568670000000 1.0
C      1  0.3967480000000  0.4361440000000  0.5067360000000 1.0
C      1  0.6138040000000  0.5551500000000  0.5012130000000 1.0
C      1  0.4098570000000  0.4313270000000  0.4599580000000 1.0
C      1  0.5944840000000  0.5587180000000  0.5457940000000 1.0
C      1  0.5985880000000  0.5050290000000  0.4595400000000 1.0
C      1  0.4170940000000  0.4850520000000  0.5291110000000 1.0
C      1  0.5826770000000  0.4459660000000  0.5333350000000 1.0
C      1  0.4068980000000  0.5433400000000  0.4656500000000 1.0
C      1  0.4512310000000  0.5631690000000  0.4036030000000 1.0
C      1  0.5347250000000  0.4399950000000  0.5913570000000 1.0
C      1  0.4870820000000  0.3944360000000  0.4861030000000 1.0
C      1  0.5245390000000  0.6127690000000  0.5215630000000 1.0
C      1  0.5076790000000  0.4461710000000  0.6008440000000 1.0
C      1  0.4806700000000  0.5602680000000  0.3986980000000 1.0
C      1  0.4317460000000  0.5002120000000  0.4627470000000 1.0
C      1  0.5674550000000  0.4919550000000  0.5265540000000 1.0
C      1  0.5815080000000  0.4742350000000  0.4244760000000 1.0
C      1  0.4245480000000  0.5321390000000  0.5671080000000 1.0
C      1  0.5175080000000  0.4698230000000  0.4330100000000 1.0
C      1  0.4889630000000  0.5324810000000  0.5686200000000 1.0
C      1  0.5566970000000  0.5923950000000  0.5527590000000 1.0
C      1  0.4538590000000  0.4081630000000  0.4532890000000 1.0
C      1  0.4406880000000  0.5900860000000  0.4735710000000 1.0
C      1  0.5526310000000  0.4113260000000  0.5236370000000 1.0
C      1  0.5758550000000  0.4640230000000  0.4739040000000 1.0
C      1  0.4103320000000  0.5437700000000  0.5268530000000 1.0
C      1  0.6026220000000  0.5310550000000  0.5527080000000 1.0
C      1  0.3915420000000  0.4516440000000  0.4517950000000 1.0
C      1  0.4872030000000  0.4936650000000  0.6134560000000 1.0
C      1  0.5049290000000  0.5177460000000  0.4003360000000 1.0
C      1  0.5911810000000  0.5627410000000  0.5170120000000 1.0
C      1  0.4181960000000  0.4339800000000  0.4880850000000 1.0
C      1  0.4891390000000  0.4380070000000  0.4604380000000 1.0
C      1  0.5188340000000  0.5656560000000  0.5470030000000 1.0
C      1  0.5313940000000  0.3984880000000  0.5097610000000 1.0
C      1  0.4701870000000  0.5871210000000  0.4739460000000 1.0
C      1  0.4935740000000  0.4793810000000  0.4882800000000 1.0
C      1  0.5213480000000  0.5134590000000  0.5072180000000 1.0
C      1  0.5427640000000  0.4639730000000  0.5757890000000 1.0
C      1  0.4424440000000  0.5361730000000  0.4153880000000 1.0
C      1  0.5422520000000  0.4543970000000  0.5467520000000 1.0
C      1  0.4492280000000  0.5437000000000  0.4653800000000 1.0
C      1  0.3861260000000  0.5073350000000  0.5011870000000 1.0
C      1  0.6103610000000  0.4831730000000  0.4992640000000 1.0
C      1  0.4996090000000  0.3904920000000  0.4502540000000 1.0
C      1  0.5116270000000  0.6112380000000  0.5489290000000 1.0
C      1  0.5798170000000  0.4852770000000  0.4959370000000 1.0
C      1  0.4137230000000  0.5180370000000  0.5122050000000 1.0
C      1  0.4831400000000  0.6047950000000  0.5508610000000 1.0
C      1  0.5265300000000  0.3935310000000  0.4392340000000 1.0
C      1  0.5223780000000  0.5008070000000  0.4305320000000 1.0
C      1  0.4822560000000  0.5021300000000  0.5713340000000 1.0
C      1  0.5928140000000  0.4760950000000  0.4518480000000 1.0
C      1  0.4025570000000  0.5425040000000  0.5537000000000 1.0
C      1  0.4686950000000  0.5176600000000  0.5260160000000 1.0
C      1  0.5390210000000  0.4878360000000  0.4685880000000 1.0
C      1  0.4271760000000  0.5654430000000  0.5172630000000 1.0
C      1  0.5716490000000  0.4365130000000  0.4813550000000 1.0
C      1  0.4655110000000  0.4445630000000  0.4109660000000 1.0
C      1  0.5381970000000  0.5555810000000  0.5952610000000 1.0
C      1  0.5651380000000  0.5463600000000  0.5132800000000 1.0
C      1  0.4398840000000  0.4568300000000  0.4844320000000 1.0
C      1  0.4534340000000  0.5859430000000  0.4226920000000 1.0
C      1  0.5303660000000  0.4168590000000  0.5737500000000 1.0
C      1  0.5700780000000  0.5674360000000  0.5590080000000 1.0
C      1  0.4353640000000  0.4293370000000  0.4460430000000 1.0
C      1  0.4727160000000  0.5422000000000  0.5435880000000 1.0
C      1  0.5362240000000  0.4588940000000  0.4561760000000 1.0
C      1  0.6180390000000  0.5068830000000  0.4829970000000 1.0
C      1  0.3880660000000  0.4827120000000  0.5182780000000 1.0
C      1  0.4673580000000  0.4262000000000  0.5876390000000 1.0
C      1  0.5206130000000  0.5776660000000  0.4214290000000 1.0
C      1  0.5116790000000  0.5351860000000  0.4652800000000 1.0
C      1  0.4734290000000  0.4677720000000  0.5323410000000 1.0
C      1  0.5308390000000  0.4182020000000  0.4227520000000 1.0
C      1  0.4752930000000  0.5857170000000  0.5726460000000 1.0
C      1  0.4689110000000  0.4800650000000  0.4448570000000 1.0
C      1  0.5350080000000  0.5188670000000  0.5534590000000 1.0
C      1  0.5708620000000  0.5080270000000  0.4752220000000 1.0
C      1  0.4466770000000  0.5086610000000  0.5062260000000 1.0
C      1  0.5737790000000  0.5014890000000  0.4151160000000 1.0
C      1  0.4269170000000  0.5052350000000  0.5763510000000 1.0
C      1  0.3877910000000  0.4698530000000  0.4730150000000 1.0
C      1  0.6152430000000  0.5161460000000  0.5307500000000 1.0
C      1  0.5551390000000  0.5410680000000  0.4368790000000 1.0
C      1  0.4353100000000  0.4578390000000  0.5687610000000 1.0
C      1  0.5329820000000  0.5275940000000  0.3968280000000 1.0
C      1  0.4625340000000  0.4816840000000  0.6047550000000 1.0
C      1  0.5280820000000  0.5078910000000  0.5904380000000 1.0
C      1  0.4667250000000  0.4939400000000  0.4174790000000 1.0
C      1  0.5080610000000  0.5360130000000  0.4936350000000 1.0
C      1  0.4845900000000  0.4560340000000  0.5052540000000 1.0
C      1  0.5619350000000  0.5540090000000  0.4619770000000 1.0
C      1  0.4434180000000  0.4390530000000  0.5484670000000 1.0
C      1  0.5670780000000  0.4789310000000  0.5858170000000 1.0
C      1  0.4225210000000  0.5148020000000  0.4083870000000 1.0
C      1  0.5670630000000  0.5362550000000  0.4844040000000 1.0
C      1  0.4425890000000  0.4767940000000  0.5108770000000 1.0
C      1  0.5070470000000  0.4355970000000  0.5117040000000 1.0
C      1  0.5097140000000  0.5632360000000  0.5051340000000 1.0
C      1  0.4938600000000  0.5699980000000  0.5912390000000 1.0
C      1  0.5090960000000  0.4339680000000  0.4084900000000 1.0
C      1  0.4058310000000  0.5141230000000  0.4565780000000 1.0
C      1  0.5892890000000  0.4752390000000  0.5406280000000 1.0
C      1  0.4479390000000  0.5775050000000  0.5340590000000 1.0
C      1  0.5632730000000  0.4190390000000  0.4580170000000 1.0
C      1  0.5171300000000  0.5863280000000  0.4496430000000 1.0
C      1  0.4696730000000  0.4278820000000  0.5568810000000 1.0
C      1  0.5586090000000  0.4571240000000  0.4247940000000 1.0
C      1  0.4474860000000  0.5476590000000  0.5724010000000 1.0
C      1  0.5215790000000  0.4870280000000  0.4927610000000 1.0
END
