TITL C-3578202-4305-312 9.6198232424273e-07 125000 -1183.49014781308 0 0 188 (C1) n - 1
REM
REM in /home/bkarasulu/work/CARBON/AIRSS/Generating-Clusters/EDIP-Nigel-Params/with-SteepDescent/Higher-Symm/SD-CG/HFTN-CG
REM
REM
REM
REM
REM
REM ./C.cell (12c818d87b63d06a65506943cc24bca4)
REM
REM compiler GCC version 9.2.1 20190827 (Red Hat 9.2.1-1)
REM options -cpp -mtune=generic -march=x86-64 -g -O0 -fpre-include=/usr/include/finclude/math-vector-fortran.h
REM seed 1171273115 -1889481791 -1127860192 -1867511740 1508140856 89428390 1127174514 -2009498340 813197268 -444641355 -415267461 -550158435 -728324636 1804009915 1797888799 -614096972 -420088289 -188295741 -472913177 -1021810735 -1932567435 1516759733 37774416 -1639717472 1794298554 -1563306773 -927672483 779315701 167922844 -1207797915 937113460 316997701 1876231831
REM
CELL 1.54180   50.00000   50.00000   50.00000   90.00000   90.00000   90.00000
LATT -1
SFAC C  
C      1  0.5738050000000  0.4961690000000  0.4495160000000 1.0
C      1  0.5115540000000  0.4942810000000  0.5880980000000 1.0
C      1  0.4132360000000  0.4994640000000  0.4589250000000 1.0
C      1  0.5992660000000  0.5615850000000  0.5393620000000 1.0
C      1  0.4229900000000  0.5625620000000  0.5612950000000 1.0
C      1  0.4832670000000  0.5559840000000  0.3983390000000 1.0
C      1  0.4865780000000  0.5991950000000  0.5024450000000 1.0
C      1  0.4870640000000  0.6041770000000  0.4731130000000 1.0
C      1  0.5123130000000  0.5950630000000  0.5150870000000 1.0
C      1  0.4770150000000  0.4651720000000  0.5150570000000 1.0
C      1  0.5027970000000  0.4700450000000  0.4709260000000 1.0
C      1  0.5259910000000  0.4674340000000  0.5166690000000 1.0
C      1  0.3939700000000  0.4806000000000  0.4719810000000 1.0
C      1  0.5782370000000  0.4787190000000  0.4229500000000 1.0
C      1  0.5317080000000  0.4767000000000  0.6056850000000 1.0
C      1  0.5263590000000  0.5043080000000  0.4395160000000 1.0
C      1  0.5443950000000  0.4907480000000  0.5542720000000 1.0
C      1  0.4217950000000  0.5179040000000  0.4992090000000 1.0
C      1  0.5507430000000  0.4702560000000  0.4976920000000 1.0
C      1  0.4813940000000  0.4683650000000  0.5447200000000 1.0
C      1  0.4703820000000  0.4719980000000  0.4589930000000 1.0
C      1  0.5104440000000  0.5374600000000  0.3998310000000 1.0
C      1  0.5900570000000  0.5349120000000  0.5651410000000 1.0
C      1  0.4047290000000  0.5454290000000  0.5436290000000 1.0
C      1  0.6004550000000  0.4870940000000  0.5064330000000 1.0
C      1  0.4486240000000  0.4858400000000  0.5841450000000 1.0
C      1  0.4469510000000  0.4810490000000  0.4112490000000 1.0
C      1  0.4822280000000  0.5720570000000  0.5543480000000 1.0
C      1  0.4588150000000  0.5725640000000  0.4528350000000 1.0
C      1  0.5598370000000  0.5717770000000  0.4938020000000 1.0
C      1  0.4778440000000  0.5292290000000  0.5995980000000 1.0
C      1  0.4142850000000  0.5276560000000  0.4195600000000 1.0
C      1  0.5987170000000  0.5304540000000  0.4743090000000 1.0
C      1  0.4916410000000  0.4878200000000  0.4187260000000 1.0
C      1  0.5722970000000  0.4920050000000  0.5425850000000 1.0
C      1  0.4380170000000  0.4918490000000  0.5408740000000 1.0
C      1  0.4612490000000  0.4222860000000  0.5564040000000 1.0
C      1  0.4691950000000  0.4205680000000  0.4386760000000 1.0
C      1  0.5696720000000  0.4225890000000  0.5061570000000 1.0
C      1  0.4649900000000  0.5232610000000  0.4609940000000 1.0
C      1  0.5480540000000  0.5235930000000  0.4999410000000 1.0
C      1  0.4848550000000  0.5178880000000  0.5425420000000 1.0
C      1  0.4408180000000  0.5663390000000  0.4302730000000 1.0
C      1  0.5894030000000  0.5718340000000  0.4878540000000 1.0
C      1  0.4718290000000  0.5697690000000  0.5820940000000 1.0
C      1  0.5221910000000  0.4578920000000  0.4061640000000 1.0
C      1  0.5754260000000  0.4557280000000  0.5696000000000 1.0
C      1  0.4098890000000  0.4615620000000  0.5251930000000 1.0
C      1  0.6123060000000  0.5336400000000  0.4997510000000 1.0
C      1  0.4489200000000  0.5324240000000  0.5968260000000 1.0
C      1  0.4368560000000  0.5293310000000  0.3997090000000 1.0
C      1  0.4308570000000  0.4514570000000  0.4611030000000 1.0
C      1  0.5690150000000  0.4538940000000  0.4589060000000 1.0
C      1  0.5033700000000  0.4517510000000  0.5814220000000 1.0
C      1  0.4591800000000  0.6010650000000  0.4617330000000 1.0
C      1  0.5492750000000  0.5968920000000  0.4852930000000 1.0
C      1  0.4938460000000  0.5984100000000  0.5535840000000 1.0
C      1  0.4371270000000  0.6089560000000  0.4771950000000 1.0
C      1  0.5448810000000  0.6071520000000  0.4608460000000 1.0
C      1  0.5158120000000  0.6051690000000  0.5684540000000 1.0
C      1  0.4873770000000  0.4362170000000  0.5993260000000 1.0
C      1  0.4200930000000  0.4340650000000  0.4409710000000 1.0
C      1  0.5928530000000  0.4383380000000  0.4628840000000 1.0
C      1  0.5547930000000  0.5250300000000  0.5951850000000 1.0
C      1  0.3764560000000  0.5394490000000  0.5011020000000 1.0
C      1  0.5577990000000  0.5316380000000  0.4126960000000 1.0
C      1  0.4998220000000  0.3984590000000  0.5725480000000 1.0
C      1  0.4371760000000  0.3963080000000  0.4637330000000 1.0
C      1  0.5633230000000  0.4007180000000  0.4637240000000 1.0
C      1  0.5281690000000  0.3967160000000  0.4943630000000 1.0
C      1  0.4916930000000  0.3969590000000  0.5260840000000 1.0
C      1  0.4820590000000  0.3972130000000  0.4790960000000 1.0
C      1  0.6030060000000  0.5138140000000  0.5184480000000 1.0
C      1  0.4372000000000  0.5126180000000  0.5801470000000 1.0
C      1  0.4551350000000  0.5070160000000  0.4012100000000 1.0
C      1  0.5742580000000  0.5057080000000  0.6043210000000 1.0
C      1  0.3760660000000  0.5116980000000  0.5100000000000 1.0
C      1  0.5528040000000  0.5102720000000  0.3924420000000 1.0
C      1  0.4824870000000  0.5322390000000  0.4376100000000 1.0
C      1  0.5556280000000  0.5371570000000  0.5287940000000 1.0
C      1  0.4506950000000  0.5418020000000  0.5282400000000 1.0
C      1  0.4616340000000  0.5851510000000  0.5100540000000 1.0
C      1  0.5034490000000  0.5838370000000  0.4587130000000 1.0
C      1  0.5313700000000  0.5808290000000  0.5316300000000 1.0
C      1  0.5063490000000  0.5157260000000  0.4842720000000 1.0
C      1  0.5198540000000  0.5185640000000  0.5104750000000 1.0
C      1  0.4734940000000  0.5194700000000  0.5131130000000 1.0
C      1  0.5682750000000  0.5591310000000  0.4462470000000 1.0
C      1  0.5188470000000  0.5599460000000  0.5952240000000 1.0
C      1  0.4078670000000  0.5521400000000  0.4661810000000 1.0
C      1  0.4532990000000  0.3952220000000  0.4864130000000 1.0
C      1  0.5359870000000  0.3961790000000  0.4656700000000 1.0
C      1  0.5121400000000  0.3944320000000  0.5478170000000 1.0
C      1  0.5356520000000  0.5873050000000  0.5594860000000 1.0
C      1  0.4354280000000  0.5900210000000  0.4974740000000 1.0
C      1  0.5289050000000  0.5891170000000  0.4467230000000 1.0
C      1  0.5218530000000  0.4493710000000  0.4570240000000 1.0
C      1  0.5292180000000  0.4444530000000  0.5417830000000 1.0
C      1  0.4540130000000  0.4491010000000  0.5032300000000 1.0
C      1  0.4098110000000  0.4871670000000  0.5384660000000 1.0
C      1  0.5095560000000  0.4825960000000  0.3977070000000 1.0
C      1  0.5902450000000  0.4816250000000  0.5637680000000 1.0
C      1  0.4184440000000  0.4404540000000  0.5412870000000 1.0
C      1  0.5034080000000  0.4374460000000  0.4093080000000 1.0
C      1  0.5821920000000  0.4359210000000  0.5514110000000 1.0
C      1  0.5127810000000  0.5334830000000  0.4438820000000 1.0
C      1  0.5301020000000  0.5381510000000  0.5556790000000 1.0
C      1  0.4371040000000  0.5434580000000  0.5004490000000 1.0
C      1  0.5395950000000  0.5618050000000  0.4402180000000 1.0
C      1  0.5385550000000  0.5610020000000  0.5742090000000 1.0
C      1  0.4166760000000  0.5650260000000  0.4952200000000 1.0
C      1  0.5672990000000  0.5486860000000  0.5821440000000 1.0
C      1  0.3952770000000  0.5569010000000  0.5162040000000 1.0
C      1  0.5353410000000  0.5521690000000  0.4112860000000 1.0
C      1  0.5499550000000  0.4955890000000  0.4798410000000 1.0
C      1  0.4985120000000  0.4931140000000  0.5515010000000 1.0
C      1  0.4511570000000  0.4973360000000  0.4672410000000 1.0
C      1  0.4199280000000  0.5489400000000  0.4396580000000 1.0
C      1  0.5913190000000  0.5561900000000  0.4627680000000 1.0
C      1  0.4913490000000  0.5550670000000  0.5988320000000 1.0
C      1  0.4481740000000  0.4125940000000  0.5095650000000 1.0
C      1  0.5172070000000  0.4127230000000  0.4501930000000 1.0
C      1  0.5359630000000  0.4118950000000  0.5411390000000 1.0
C      1  0.4883560000000  0.5796160000000  0.4131400000000 1.0
C      1  0.5788370000000  0.5801310000000  0.5388550000000 1.0
C      1  0.4347070000000  0.5842010000000  0.5481270000000 1.0
C      1  0.4883760000000  0.5028720000000  0.6066050000000 1.0
C      1  0.4065810000000  0.5001470000000  0.4290810000000 1.0
C      1  0.6006680000000  0.5045710000000  0.4609270000000 1.0
C      1  0.5008890000000  0.5434590000000  0.5455880000000 1.0
C      1  0.4593190000000  0.5476000000000  0.4774720000000 1.0
C      1  0.5447340000000  0.5472750000000  0.4816880000000 1.0
C      1  0.4817300000000  0.5143220000000  0.4120590000000 1.0
C      1  0.5805570000000  0.5213090000000  0.5381840000000 1.0
C      1  0.4350810000000  0.5214680000000  0.5504610000000 1.0
C      1  0.4704100000000  0.4685000000000  0.4266540000000 1.0
C      1  0.5768310000000  0.4708720000000  0.5166670000000 1.0
C      1  0.4523610000000  0.4710250000000  0.5580500000000 1.0
C      1  0.4962280000000  0.4260120000000  0.5190030000000 1.0
C      1  0.4873980000000  0.4265310000000  0.4856170000000 1.0
C      1  0.5201340000000  0.4260940000000  0.4945520000000 1.0
C      1  0.4898130000000  0.4020820000000  0.4492590000000 1.0
C      1  0.5501570000000  0.4026890000000  0.5166470000000 1.0
C      1  0.4616970000000  0.4033120000000  0.5336280000000 1.0
C      1  0.6119650000000  0.4831670000000  0.4796480000000 1.0
C      1  0.4657620000000  0.4820000000000  0.6078180000000 1.0
C      1  0.4180180000000  0.4763700000000  0.4126930000000 1.0
C      1  0.4582700000000  0.4467550000000  0.4720930000000 1.0
C      1  0.5469990000000  0.4464760000000  0.4772510000000 1.0
C      1  0.4990780000000  0.4439320000000  0.5530030000000 1.0
C      1  0.5084790000000  0.5456620000000  0.5175010000000 1.0
C      1  0.4846960000000  0.5501800000000  0.4968830000000 1.0
C      1  0.5151700000000  0.5439720000000  0.4729690000000 1.0
C      1  0.5807070000000  0.4163760000000  0.4793580000000 1.0
C      1  0.4783650000000  0.4151820000000  0.5797150000000 1.0
C      1  0.4406510000000  0.4124460000000  0.4409590000000 1.0
C      1  0.4858660000000  0.5687180000000  0.4403740000000 1.0
C      1  0.5571550000000  0.5680260000000  0.5235550000000 1.0
C      1  0.4580390000000  0.5714140000000  0.5356740000000 1.0
C      1  0.4301500000000  0.4684090000000  0.5036550000000 1.0
C      1  0.5328010000000  0.4668700000000  0.4325760000000 1.0
C      1  0.5456440000000  0.4606690000000  0.5643520000000 1.0
C      1  0.4706590000000  0.4543380000000  0.6122130000000 1.0
C      1  0.4120410000000  0.4490810000000  0.4185850000000 1.0
C      1  0.6125200000000  0.4557030000000  0.4723440000000 1.0
C      1  0.3761850000000  0.4914480000000  0.4908940000000 1.0
C      1  0.5689570000000  0.4882920000000  0.3984130000000 1.0
C      1  0.5587100000000  0.4830940000000  0.6095340000000 1.0
C      1  0.5304550000000  0.4545630000000  0.5886430000000 1.0
C      1  0.4129180000000  0.4608990000000  0.4809170000000 1.0
C      1  0.5610210000000  0.4581110000000  0.4322060000000 1.0
C      1  0.5934610000000  0.5063340000000  0.5816270000000 1.0
C      1  0.4027710000000  0.5123370000000  0.5234070000000 1.0
C      1  0.5235570000000  0.5086770000000  0.3955250000000 1.0
C      1  0.4403700000000  0.4430470000000  0.5582860000000 1.0
C      1  0.4772810000000  0.4400930000000  0.4187290000000 1.0
C      1  0.5831360000000  0.4418140000000  0.5240780000000 1.0
C      1  0.4451460000000  0.4980150000000  0.4977480000000 1.0
C      1  0.5207160000000  0.4955050000000  0.4682750000000 1.0
C      1  0.5226550000000  0.4928680000000  0.5326860000000 1.0
C      1  0.4451060000000  0.5565200000000  0.5814960000000 1.0
C      1  0.4547400000000  0.5509870000000  0.4086540000000 1.0
C      1  0.6066290000000  0.5601620000000  0.5104330000000 1.0
C      1  0.5540820000000  0.5177030000000  0.4402610000000 1.0
C      1  0.5347670000000  0.5132490000000  0.5746280000000 1.0
C      1  0.4014370000000  0.5243130000000  0.4761410000000 1.0
C      1  0.5015120000000  0.4656970000000  0.5003620000000 1.0
C      1  0.5006030000000  0.3839660000000  0.4996710000000 1.0
END
