TITL C-3578205-846-138 -1.07165071401167e-06 125000 -350.383562933556 0 0 57 (C1) n - 1
REM
REM in /home/bkarasulu/work/CARBON/AIRSS/Generating-Clusters/EDIP-Nigel-Params/with-SteepDescent/Higher-Symm/SD-CG/HFTN-CG
REM
REM
REM
REM
REM
REM ./C.cell (12c818d87b63d06a65506943cc24bca4)
REM
REM compiler GCC version 9.2.1 20190827 (Red Hat 9.2.1-1)
REM options -cpp -mtune=generic -march=x86-64 -g -O0 -fpre-include=/usr/include/finclude/math-vector-fortran.h
REM seed 1820337835 1303153697 -284207767 -1190952257 -982340093 -1594658940 1518023820 -1920687996 924307544 1778686212 -1829372348 -1788916443 -1183930338 1390226580 -638383528 -494481098 -1282428151 -794308409 1049653432 -1119983951 -1373822600 -1229528822 -860761657 -1173741427 1509899267 563466255 -347991169 -326157270 1781065405 -1820793620 -1837340178 -1023496921 -926671628
REM
CELL 1.54180   50.00000   50.00000   50.00000   90.00000   90.00000   90.00000
LATT -1
SFAC C  
C      1  0.4805090000000  0.4415970000000  0.4530060000000 1.0
C      1  0.4829020000000  0.5530060000000  0.5459120000000 1.0
C      1  0.4912280000000  0.5694990000000  0.4999710000000 1.0
C      1  0.4909840000000  0.4143650000000  0.4892530000000 1.0
C      1  0.4664840000000  0.4500600000000  0.5242910000000 1.0
C      1  0.4639310000000  0.5577600000000  0.4757280000000 1.0
C      1  0.5322860000000  0.4946420000000  0.5625340000000 1.0
C      1  0.5334540000000  0.5041800000000  0.4365690000000 1.0
C      1  0.5588410000000  0.5375560000000  0.4679400000000 1.0
C      1  0.5564800000000  0.4697790000000  0.5245110000000 1.0
C      1  0.4843800000000  0.4657370000000  0.5395980000000 1.0
C      1  0.4707530000000  0.5287690000000  0.4645460000000 1.0
C      1  0.5102020000000  0.5419060000000  0.5498780000000 1.0
C      1  0.5048890000000  0.4572490000000  0.4602410000000 1.0
C      1  0.4504400000000  0.5530830000000  0.5028180000000 1.0
C      1  0.4608340000000  0.4509950000000  0.4965430000000 1.0
C      1  0.5199370000000  0.5682650000000  0.5049190000000 1.0
C      1  0.5152410000000  0.4251050000000  0.4981270000000 1.0
C      1  0.5565290000000  0.5179150000000  0.4890660000000 1.0
C      1  0.5770130000000  0.4887260000000  0.5277360000000 1.0
C      1  0.5449600000000  0.5235770000000  0.5171520000000 1.0
C      1  0.5402750000000  0.4694450000000  0.4968740000000 1.0
C      1  0.5152270000000  0.4789280000000  0.5111580000000 1.0
C      1  0.4984110000000  0.5267820000000  0.4767790000000 1.0
C      1  0.4529680000000  0.5118340000000  0.4834940000000 1.0
C      1  0.4378780000000  0.4830400000000  0.5172020000000 1.0
C      1  0.4394120000000  0.4900880000000  0.4685910000000 1.0
C      1  0.4359070000000  0.5105360000000  0.5265700000000 1.0
C      1  0.4764840000000  0.5059590000000  0.4410630000000 1.0
C      1  0.4820270000000  0.4947740000000  0.5469780000000 1.0
C      1  0.5466560000000  0.4928850000000  0.4772150000000 1.0
C      1  0.5642760000000  0.5118680000000  0.5370880000000 1.0
C      1  0.4550950000000  0.4849170000000  0.4437320000000 1.0
C      1  0.4602590000000  0.5149700000000  0.5437560000000 1.0
C      1  0.5091520000000  0.5094580000000  0.5496460000000 1.0
C      1  0.5043950000000  0.4917220000000  0.4434110000000 1.0
C      1  0.4703630000000  0.4299350000000  0.4781310000000 1.0
C      1  0.4785810000000  0.5489760000000  0.5166280000000 1.0
C      1  0.5537790000000  0.4884720000000  0.4492840000000 1.0
C      1  0.5555460000000  0.5104300000000  0.5637170000000 1.0
C      1  0.5379400000000  0.5334660000000  0.4459240000000 1.0
C      1  0.5372040000000  0.4687360000000  0.5480600000000 1.0
C      1  0.5119300000000  0.4534480000000  0.5407590000000 1.0
C      1  0.5163080000000  0.5468810000000  0.4622770000000 1.0
C      1  0.5167250000000  0.4298210000000  0.5255350000000 1.0
C      1  0.5329410000000  0.5632810000000  0.4796860000000 1.0
C      1  0.4922940000000  0.5228570000000  0.5071310000000 1.0
C      1  0.4934740000000  0.4795110000000  0.4902860000000 1.0
C      1  0.5252530000000  0.4469690000000  0.4812120000000 1.0
C      1  0.5298670000000  0.5502540000000  0.5273910000000 1.0
C      1  0.4626650000000  0.5387870000000  0.5589310000000 1.0
C      1  0.4618600000000  0.4578650000000  0.4400960000000 1.0
C      1  0.4346520000000  0.5281280000000  0.5013020000000 1.0
C      1  0.4388290000000  0.4697220000000  0.4910610000000 1.0
C      1  0.5083580000000  0.4991800000000  0.4721940000000 1.0
C      1  0.5170570000000  0.5082060000000  0.5203660000000 1.0
C      1  0.4715650000000  0.4982520000000  0.5043650000000 1.0
END
