TITL C-3578205-846-268 1.10612741232288e-06 125000 -542.186622168679 0 0 85 (C1) n - 1
REM
REM in /home/bkarasulu/work/CARBON/AIRSS/Generating-Clusters/EDIP-Nigel-Params/with-SteepDescent/Higher-Symm/SD-CG/HFTN-CG
REM
REM
REM
REM
REM
REM ./C.cell (12c818d87b63d06a65506943cc24bca4)
REM
REM compiler GCC version 9.2.1 20190827 (Red Hat 9.2.1-1)
REM options -cpp -mtune=generic -march=x86-64 -g -O0 -fpre-include=/usr/include/finclude/math-vector-fortran.h
REM seed 1210757756 -1327913086 682901134 1889291883 -381686356 -1878746650 752973509 1418738613 -1980407129 -85569756 -935593485 -1879866007 -486311195 -813263288 1289718495 1906731314 83811681 1200285755 -1561290010 -58928849 -838166031 181689403 -1832211802 -2045775677 968022956 630088210 803162466 1186171922 -813611449 737331376 -1507316740 -61809427 -2078624443
REM
CELL 1.54180   50.00000   50.00000   50.00000   90.00000   90.00000   90.00000
LATT -1
SFAC C  
C      1  0.4992480000000  0.4597370000000  0.4895080000000 1.0
C      1  0.4990460000000  0.4775780000000  0.5352010000000 1.0
C      1  0.4984700000000  0.5283650000000  0.5323480000000 1.0
C      1  0.4991880000000  0.5384600000000  0.4846750000000 1.0
C      1  0.4984810000000  0.4959610000000  0.4570540000000 1.0
C      1  0.5279390000000  0.4740280000000  0.5785740000000 1.0
C      1  0.5283030000000  0.5666230000000  0.5494430000000 1.0
C      1  0.5278120000000  0.5671850000000  0.4517420000000 1.0
C      1  0.5283320000000  0.4751780000000  0.4207060000000 1.0
C      1  0.5278810000000  0.4172690000000  0.4994780000000 1.0
C      1  0.4737310000000  0.5168310000000  0.5193490000000 1.0
C      1  0.4740790000000  0.5235080000000  0.4897920000000 1.0
C      1  0.4737230000000  0.4975870000000  0.4744170000000 1.0
C      1  0.4740880000000  0.4748540000000  0.4944380000000 1.0
C      1  0.4740810000000  0.4867830000000  0.5222220000000 1.0
C      1  0.4835690000000  0.4320970000000  0.5205320000000 1.0
C      1  0.4836310000000  0.4988300000000  0.5709340000000 1.0
C      1  0.4846020000000  0.5640060000000  0.5239900000000 1.0
C      1  0.4835690000000  0.5425510000000  0.4433330000000 1.0
C      1  0.4846370000000  0.4622370000000  0.4427820000000 1.0
C      1  0.4549520000000  0.5384340000000  0.4496240000000 1.0
C      1  0.4550250000000  0.4644920000000  0.4475550000000 1.0
C      1  0.4549030000000  0.4390250000000  0.5180570000000 1.0
C      1  0.4549710000000  0.4985330000000  0.5634820000000 1.0
C      1  0.4549930000000  0.5594020000000  0.5215300000000 1.0
C      1  0.5481130000000  0.5385010000000  0.4782350000000 1.0
C      1  0.5482930000000  0.4911890000000  0.4565510000000 1.0
C      1  0.5482020000000  0.4560230000000  0.4949400000000 1.0
C      1  0.5480670000000  0.4815620000000  0.5401680000000 1.0
C      1  0.5481930000000  0.5325490000000  0.5298710000000 1.0
C      1  0.5410360000000  0.5695720000000  0.5235320000000 1.0
C      1  0.5410720000000  0.5438430000000  0.4410190000000 1.0
C      1  0.5411140000000  0.4575300000000  0.4398930000000 1.0
C      1  0.5409520000000  0.4299630000000  0.5219980000000 1.0
C      1  0.5411540000000  0.4991950000000  0.5733960000000 1.0
C      1  0.4989690000000  0.5172210000000  0.4339580000000 1.0
C      1  0.4993100000000  0.4438070000000  0.4636030000000 1.0
C      1  0.4988490000000  0.4477000000000  0.5427350000000 1.0
C      1  0.4990060000000  0.5248150000000  0.5635370000000 1.0
C      1  0.4992380000000  0.5665910000000  0.4962720000000 1.0
C      1  0.4983270000000  0.4755350000000  0.4184810000000 1.0
C      1  0.4976000000000  0.4166500000000  0.4986430000000 1.0
C      1  0.4976980000000  0.4732720000000  0.5790090000000 1.0
C      1  0.4983030000000  0.5676110000000  0.5514610000000 1.0
C      1  0.4975230000000  0.5679410000000  0.4519610000000 1.0
C      1  0.4251230000000  0.5183740000000  0.5169670000000 1.0
C      1  0.4253330000000  0.5218380000000  0.4876600000000 1.0
C      1  0.4251450000000  0.4948860000000  0.4754560000000 1.0
C      1  0.4254710000000  0.4748490000000  0.4971490000000 1.0
C      1  0.4254280000000  0.4893990000000  0.5228670000000 1.0
C      1  0.4492940000000  0.4804670000000  0.5391660000000 1.0
C      1  0.4488800000000  0.5308830000000  0.5305340000000 1.0
C      1  0.4493330000000  0.5387040000000  0.4799370000000 1.0
C      1  0.4488810000000  0.4928270000000  0.4571100000000 1.0
C      1  0.4493920000000  0.4567130000000  0.4934400000000 1.0
C      1  0.5416710000000  0.4524850000000  0.5644750000000 1.0
C      1  0.5420800000000  0.5463730000000  0.5651960000000 1.0
C      1  0.5416700000000  0.5763070000000  0.4757750000000 1.0
C      1  0.5420710000000  0.5008480000000  0.4198880000000 1.0
C      1  0.5417820000000  0.4240310000000  0.4746670000000 1.0
C      1  0.4864230000000  0.5824520000000  0.4745910000000 1.0
C      1  0.4878000000000  0.5014890000000  0.4117080000000 1.0
C      1  0.4865490000000  0.4181930000000  0.4717830000000 1.0
C      1  0.4866200000000  0.4480500000000  0.5698540000000 1.0
C      1  0.4878200000000  0.5506300000000  0.5722480000000 1.0
C      1  0.4477540000000  0.4450680000000  0.4667460000000 1.0
C      1  0.4473440000000  0.4515830000000  0.5423860000000 1.0
C      1  0.4470100000000  0.5253400000000  0.5590050000000 1.0
C      1  0.4476800000000  0.5638580000000  0.4946050000000 1.0
C      1  0.4469800000000  0.5141390000000  0.4374380000000 1.0
C      1  0.5723510000000  0.5223590000000  0.4872550000000 1.0
C      1  0.5724120000000  0.4947900000000  0.4747910000000 1.0
C      1  0.5724090000000  0.4743700000000  0.4971380000000 1.0
C      1  0.5723320000000  0.4893190000000  0.5234380000000 1.0
C      1  0.5723510000000  0.5189550000000  0.5173140000000 1.0
C      1  0.5240880000000  0.4744940000000  0.4951510000000 1.0
C      1  0.5238950000000  0.4876970000000  0.5227620000000 1.0
C      1  0.5238500000000  0.5181660000000  0.5188440000000 1.0
C      1  0.5239740000000  0.5232750000000  0.4886840000000 1.0
C      1  0.5239390000000  0.4963310000000  0.4738890000000 1.0
C      1  0.5268510000000  0.5772550000000  0.5000840000000 1.0
C      1  0.5269860000000  0.5240640000000  0.4263080000000 1.0
C      1  0.5269750000000  0.4374860000000  0.4543460000000 1.0
C      1  0.5267430000000  0.4372060000000  0.5456020000000 1.0
C      1  0.5270350000000  0.5238210000000  0.5737130000000 1.0
END
