TITL C-3578199-7832-654 1.85105478186578e-06 125000 -343.119828022163 0 0 60 (Oh) n - 1
REM
REM in /home/bkarasulu/work/CARBON/AIRSS/Generating-Clusters/EDIP-Nigel-Params/with-SteepDescent/Higher-Symm/SD-CG/HFTN-CG
REM
REM
REM
REM
REM
REM ./C.cell (12c818d87b63d06a65506943cc24bca4)
REM
REM compiler GCC version 9.2.1 20190827 (Red Hat 9.2.1-1)
REM options -cpp -mtune=generic -march=x86-64 -g -O0 -fpre-include=/usr/include/finclude/math-vector-fortran.h
REM seed -1344687672 -2106660378 -1057796783 1166469355 1243331408 80409232 -1947057872 1401348527 -981997784 548902868 -1638726413 1542442186 -745666823 -448982501 627260106 -1819868309 -647983677 -799098482 1695578625 2084321492 1733581764 -1418888602 -2089227868 -40834787 582052910 564615969 -1214759244 773882889 1339726910 -39702773 -1329922900 -1770724134 1382333672
REM
CELL 1.54180   50.00000   50.00000   50.00000   90.00000   90.00000   90.00000
LATT -1
SFAC C  
C      1  0.5155750000000  0.5155750000000  0.4177960000000 1.0
C      1  0.4177960000000  0.5155750000000  0.5155750000000 1.0
C      1  0.5155750000000  0.4177960000000  0.5155750000000 1.0
C      1  0.4844250000000  0.4844250000000  0.4177960000000 1.0
C      1  0.4844250000000  0.5155750000000  0.5822040000000 1.0
C      1  0.5155750000000  0.4844250000000  0.5822040000000 1.0
C      1  0.5822040000000  0.4844250000000  0.5155750000000 1.0
C      1  0.5822040000000  0.5155750000000  0.4844250000000 1.0
C      1  0.4177960000000  0.4844250000000  0.4844250000000 1.0
C      1  0.4844250000000  0.5822040000000  0.5155750000000 1.0
C      1  0.4844250000000  0.4177960000000  0.4844250000000 1.0
C      1  0.5155750000000  0.5822040000000  0.4844250000000 1.0
C      1  0.5155750000000  0.5155750000000  0.5822040000000 1.0
C      1  0.4177960000000  0.5155750000000  0.4844250000000 1.0
C      1  0.5155750000000  0.4177960000000  0.4844250000000 1.0
C      1  0.4844250000000  0.4844250000000  0.5822040000000 1.0
C      1  0.4844250000000  0.5155750000000  0.4177960000000 1.0
C      1  0.5155750000000  0.4844250000000  0.4177960000000 1.0
C      1  0.5822040000000  0.4844250000000  0.4844250000000 1.0
C      1  0.5822040000000  0.5155750000000  0.5155750000000 1.0
C      1  0.4177960000000  0.4844250000000  0.5155750000000 1.0
C      1  0.4844250000000  0.5822040000000  0.4844250000000 1.0
C      1  0.4844250000000  0.4177960000000  0.5155750000000 1.0
C      1  0.5155750000000  0.5822040000000  0.5155750000000 1.0
C      1  0.5551780000000  0.4758290000000  0.5241710000000 1.0
C      1  0.5241710000000  0.5551780000000  0.4758290000000 1.0
C      1  0.4758290000000  0.5241710000000  0.5551780000000 1.0
C      1  0.4448220000000  0.5241710000000  0.5241710000000 1.0
C      1  0.4448220000000  0.4758290000000  0.4758290000000 1.0
C      1  0.5551780000000  0.5241710000000  0.4758290000000 1.0
C      1  0.4758290000000  0.4448220000000  0.4758290000000 1.0
C      1  0.4758290000000  0.5551780000000  0.5241710000000 1.0
C      1  0.5241710000000  0.4448220000000  0.5241710000000 1.0
C      1  0.5241710000000  0.4758290000000  0.5551780000000 1.0
C      1  0.5241710000000  0.5241710000000  0.4448220000000 1.0
C      1  0.4758290000000  0.4758290000000  0.4448220000000 1.0
C      1  0.5551780000000  0.4758290000000  0.4758290000000 1.0
C      1  0.5241710000000  0.5551780000000  0.5241710000000 1.0
C      1  0.4758290000000  0.5241710000000  0.4448220000000 1.0
C      1  0.4448220000000  0.5241710000000  0.4758290000000 1.0
C      1  0.4448220000000  0.4758290000000  0.5241710000000 1.0
C      1  0.5551780000000  0.5241710000000  0.5241710000000 1.0
C      1  0.4758290000000  0.4448220000000  0.5241710000000 1.0
C      1  0.4758290000000  0.5551780000000  0.4758290000000 1.0
C      1  0.5241710000000  0.4448220000000  0.4758290000000 1.0
C      1  0.5241710000000  0.4758290000000  0.4448220000000 1.0
C      1  0.5241710000000  0.5241710000000  0.5551780000000 1.0
C      1  0.4758290000000  0.4758290000000  0.5551780000000 1.0
C      1  0.4602520000000  0.5397480000000  0.5000000000000 1.0
C      1  0.5397480000000  0.4602520000000  0.5000000000000 1.0
C      1  0.5000000000000  0.4602520000000  0.5397480000000 1.0
C      1  0.5000000000000  0.5397480000000  0.4602520000000 1.0
C      1  0.5397480000000  0.5397480000000  0.5000000000000 1.0
C      1  0.5000000000000  0.5397480000000  0.5397480000000 1.0
C      1  0.5397480000000  0.5000000000000  0.5397480000000 1.0
C      1  0.4602520000000  0.4602520000000  0.5000000000000 1.0
C      1  0.5000000000000  0.4602520000000  0.4602520000000 1.0
C      1  0.4602520000000  0.5000000000000  0.5397480000000 1.0
C      1  0.4602520000000  0.5000000000000  0.4602520000000 1.0
C      1  0.5397480000000  0.5000000000000  0.4602520000000 1.0
END
