TITL C-3577078-809-721 -3.45262143240599e-06 125000 -943.307957835331 0 0 152 (C1) n - 1
REM
REM in /home/bkarasulu/work/CARBON/AIRSS/Generating-Clusters/EDIP-Nigel-Params/with-SteepDescent/Higher-Symm/SD-CG/HFTN-CG
REM
REM
REM
REM
REM
REM ./C.cell (12c818d87b63d06a65506943cc24bca4)
REM
REM compiler GCC version 9.2.1 20190827 (Red Hat 9.2.1-1)
REM options -cpp -mtune=generic -march=x86-64 -g -O0 -fpre-include=/usr/include/finclude/math-vector-fortran.h
REM seed 409246987 694748170 -1390771952 1537395504 1237728696 -1158598853 -2137906156 1316818409 507481849 -855904545 688095978 68886354 -903454138 -2073676681 -396202571 -1517201965 -551512321 1696088977 1416022615 -1798773519 1407622892 1031715786 921239803 719509886 -1058023158 1182577062 -1120177781 -673464198 -1938452065 -387776933 -66611831 -1029044728 828691560
REM
CELL 1.54180   50.00000   50.00000   50.00000   90.00000   90.00000   90.00000
LATT -1
SFAC C  
C      1  0.4730870000000  0.5284930000000  0.5790930000000 1.0
C      1  0.4732590000000  0.4715510000000  0.5797490000000 1.0
C      1  0.5630250000000  0.5242270000000  0.4455600000000 1.0
C      1  0.5610090000000  0.4761210000000  0.4449710000000 1.0
C      1  0.4745920000000  0.4436560000000  0.5372570000000 1.0
C      1  0.4755380000000  0.5555560000000  0.5359710000000 1.0
C      1  0.5196610000000  0.4807160000000  0.4718050000000 1.0
C      1  0.5206870000000  0.5205350000000  0.4693520000000 1.0
C      1  0.4106370000000  0.4513700000000  0.4646240000000 1.0
C      1  0.4113020000000  0.5484630000000  0.4648870000000 1.0
C      1  0.5527650000000  0.5650910000000  0.4645610000000 1.0
C      1  0.5494880000000  0.4339420000000  0.4635480000000 1.0
C      1  0.5218510000000  0.5422930000000  0.3974020000000 1.0
C      1  0.5280440000000  0.4599990000000  0.3999300000000 1.0
C      1  0.4765970000000  0.4839850000000  0.5036120000000 1.0
C      1  0.4763640000000  0.5145590000000  0.5035870000000 1.0
C      1  0.5707140000000  0.5142290000000  0.5136970000000 1.0
C      1  0.5705640000000  0.4836390000000  0.5173770000000 1.0
C      1  0.5038280000000  0.3975860000000  0.4851740000000 1.0
C      1  0.5036080000000  0.6008070000000  0.4861970000000 1.0
C      1  0.4294160000000  0.4858820000000  0.5695200000000 1.0
C      1  0.4293110000000  0.5149630000000  0.5695900000000 1.0
C      1  0.5131100000000  0.4835570000000  0.5549730000000 1.0
C      1  0.5164310000000  0.5173320000000  0.5547360000000 1.0
C      1  0.4500870000000  0.4254320000000  0.5389380000000 1.0
C      1  0.4504980000000  0.5739510000000  0.5383970000000 1.0
C      1  0.4964840000000  0.4653340000000  0.4613490000000 1.0
C      1  0.4954250000000  0.5338650000000  0.4612220000000 1.0
C      1  0.5234380000000  0.4449400000000  0.5839570000000 1.0
C      1  0.5235670000000  0.5560930000000  0.5842210000000 1.0
C      1  0.5475540000000  0.4074490000000  0.5178080000000 1.0
C      1  0.5452260000000  0.5898340000000  0.5184930000000 1.0
C      1  0.4726850000000  0.6108340000000  0.5195510000000 1.0
C      1  0.4727110000000  0.3892070000000  0.5182760000000 1.0
C      1  0.4791790000000  0.5560190000000  0.5667600000000 1.0
C      1  0.4782530000000  0.4435230000000  0.5677990000000 1.0
C      1  0.4226920000000  0.4723580000000  0.5442270000000 1.0
C      1  0.4222450000000  0.5279860000000  0.5442480000000 1.0
C      1  0.4204550000000  0.4367980000000  0.5080110000000 1.0
C      1  0.4191540000000  0.5642800000000  0.5085060000000 1.0
C      1  0.4689290000000  0.4678400000000  0.4788390000000 1.0
C      1  0.4682000000000  0.5307670000000  0.4791880000000 1.0
C      1  0.5020450000000  0.4283030000000  0.5744090000000 1.0
C      1  0.5016300000000  0.5725950000000  0.5755870000000 1.0
C      1  0.5377250000000  0.5410340000000  0.4854850000000 1.0
C      1  0.5367230000000  0.4611470000000  0.4879290000000 1.0
C      1  0.4256040000000  0.4856060000000  0.4313380000000 1.0
C      1  0.4255900000000  0.5146470000000  0.4312190000000 1.0
C      1  0.5920440000000  0.4872830000000  0.5630290000000 1.0
C      1  0.5886910000000  0.5179210000000  0.5603460000000 1.0
C      1  0.5206840000000  0.4332280000000  0.4938700000000 1.0
C      1  0.5182200000000  0.5655070000000  0.4941360000000 1.0
C      1  0.5836950000000  0.5629840000000  0.5029870000000 1.0
C      1  0.5816150000000  0.4389110000000  0.5000730000000 1.0
C      1  0.5273830000000  0.4876310000000  0.4010420000000 1.0
C      1  0.5253870000000  0.5145700000000  0.3996100000000 1.0
C      1  0.5420190000000  0.4737580000000  0.5144280000000 1.0
C      1  0.5437250000000  0.5273440000000  0.5118590000000 1.0
C      1  0.5341840000000  0.5940630000000  0.4468200000000 1.0
C      1  0.5347480000000  0.4025050000000  0.4458780000000 1.0
C      1  0.4995220000000  0.3882730000000  0.5122110000000 1.0
C      1  0.4995580000000  0.6099480000000  0.5135320000000 1.0
C      1  0.4460250000000  0.4740120000000  0.5880260000000 1.0
C      1  0.4458540000000  0.5273400000000  0.5881990000000 1.0
C      1  0.5033750000000  0.5614300000000  0.4662450000000 1.0
C      1  0.5057350000000  0.4376220000000  0.4666580000000 1.0
C      1  0.4992480000000  0.4708900000000  0.4304280000000 1.0
C      1  0.4986070000000  0.5290410000000  0.4312560000000 1.0
C      1  0.4746930000000  0.4855460000000  0.4224330000000 1.0
C      1  0.4744860000000  0.5146430000000  0.4223710000000 1.0
C      1  0.4654050000000  0.4365820000000  0.4855220000000 1.0
C      1  0.4639460000000  0.5623790000000  0.4862910000000 1.0
C      1  0.5235220000000  0.4233070000000  0.4289280000000 1.0
C      1  0.5261630000000  0.5718170000000  0.4299590000000 1.0
C      1  0.5188180000000  0.4043270000000  0.5276800000000 1.0
C      1  0.5193110000000  0.5982440000000  0.5313430000000 1.0
C      1  0.5062720000000  0.4410660000000  0.5238980000000 1.0
C      1  0.5063950000000  0.5566960000000  0.5223340000000 1.0
C      1  0.6128650000000  0.4830710000000  0.5037160000000 1.0
C      1  0.6132100000000  0.5123200000000  0.5051470000000 1.0
C      1  0.4753940000000  0.5938240000000  0.4451930000000 1.0
C      1  0.4760380000000  0.4059000000000  0.4449140000000 1.0
C      1  0.5110130000000  0.4103920000000  0.5545940000000 1.0
C      1  0.5106640000000  0.5923280000000  0.5574560000000 1.0
C      1  0.4042190000000  0.4535760000000  0.4926080000000 1.0
C      1  0.4044130000000  0.5463940000000  0.4927160000000 1.0
C      1  0.4939560000000  0.5155160000000  0.5981090000000 1.0
C      1  0.4939640000000  0.4849230000000  0.5988420000000 1.0
C      1  0.5190580000000  0.4745890000000  0.5848970000000 1.0
C      1  0.5192380000000  0.5264250000000  0.5844480000000 1.0
C      1  0.4506320000000  0.5564820000000  0.4365470000000 1.0
C      1  0.4504470000000  0.4438810000000  0.4369480000000 1.0
C      1  0.4802090000000  0.4852270000000  0.5526350000000 1.0
C      1  0.4769420000000  0.5141900000000  0.5524110000000 1.0
C      1  0.5590190000000  0.5162160000000  0.5660780000000 1.0
C      1  0.5624240000000  0.4832960000000  0.5686840000000 1.0
C      1  0.5311200000000  0.3949910000000  0.4735020000000 1.0
C      1  0.5309020000000  0.6024760000000  0.4741330000000 1.0
C      1  0.5431410000000  0.4404460000000  0.4160330000000 1.0
C      1  0.5487690000000  0.5596810000000  0.4167220000000 1.0
C      1  0.5288750000000  0.5393290000000  0.5353670000000 1.0
C      1  0.5270090000000  0.4610610000000  0.5367870000000 1.0
C      1  0.4082080000000  0.5237640000000  0.4516080000000 1.0
C      1  0.4081510000000  0.4763420000000  0.4516490000000 1.0
C      1  0.4337820000000  0.4839080000000  0.5050580000000 1.0
C      1  0.4333600000000  0.5154590000000  0.5050710000000 1.0
C      1  0.5763160000000  0.5143190000000  0.4701060000000 1.0
C      1  0.5770790000000  0.4853830000000  0.4684360000000 1.0
C      1  0.5950760000000  0.5300790000000  0.4881680000000 1.0
C      1  0.5866510000000  0.4703840000000  0.4933690000000 1.0
C      1  0.4259590000000  0.4430600000000  0.5360920000000 1.0
C      1  0.4259210000000  0.5570260000000  0.5361430000000 1.0
C      1  0.5646330000000  0.4302530000000  0.5231260000000 1.0
C      1  0.5675270000000  0.5727160000000  0.5257860000000 1.0
C      1  0.3993510000000  0.4853050000000  0.5314640000000 1.0
C      1  0.3990780000000  0.5148430000000  0.5316080000000 1.0
C      1  0.5457070000000  0.4379910000000  0.5688400000000 1.0
C      1  0.5453460000000  0.5629650000000  0.5683100000000 1.0
C      1  0.4320660000000  0.5673740000000  0.4569830000000 1.0
C      1  0.4320240000000  0.4330100000000  0.4572490000000 1.0
C      1  0.4733920000000  0.4283460000000  0.4286870000000 1.0
C      1  0.4742400000000  0.5715900000000  0.4283820000000 1.0
C      1  0.5535350000000  0.5988330000000  0.4923130000000 1.0
C      1  0.5547310000000  0.3993240000000  0.4906860000000 1.0
C      1  0.4394090000000  0.5793680000000  0.4926410000000 1.0
C      1  0.4402690000000  0.4208470000000  0.4925180000000 1.0
C      1  0.5915540000000  0.5269410000000  0.5322980000000 1.0
C      1  0.5953720000000  0.4760520000000  0.5365240000000 1.0
C      1  0.5723490000000  0.4208710000000  0.4785900000000 1.0
C      1  0.5736730000000  0.5794960000000  0.4812130000000 1.0
C      1  0.4400020000000  0.4830230000000  0.4726660000000 1.0
C      1  0.4397110000000  0.5158030000000  0.4726900000000 1.0
C      1  0.5456210000000  0.4854750000000  0.5943490000000 1.0
C      1  0.5454900000000  0.5154090000000  0.5936150000000 1.0
C      1  0.5338880000000  0.5155790000000  0.4418430000000 1.0
C      1  0.5325430000000  0.4861030000000  0.4438400000000 1.0
C      1  0.4508800000000  0.5279470000000  0.4317530000000 1.0
C      1  0.4508500000000  0.4722080000000  0.4313450000000 1.0
C      1  0.5607180000000  0.4477950000000  0.4392540000000 1.0
C      1  0.5650370000000  0.5525250000000  0.4401220000000 1.0
C      1  0.4845650000000  0.4177920000000  0.4704180000000 1.0
C      1  0.4828590000000  0.5815940000000  0.4708650000000 1.0
C      1  0.4631010000000  0.5264970000000  0.5278350000000 1.0
C      1  0.4637870000000  0.4727170000000  0.5283360000000 1.0
C      1  0.4495870000000  0.4045890000000  0.5178060000000 1.0
C      1  0.4495030000000  0.5954710000000  0.5181170000000 1.0
C      1  0.3952920000000  0.5222660000000  0.5042050000000 1.0
C      1  0.3955800000000  0.4779100000000  0.5040250000000 1.0
C      1  0.5010430000000  0.5572580000000  0.4184510000000 1.0
C      1  0.4990630000000  0.4416540000000  0.4183140000000 1.0
C      1  0.5607780000000  0.4451040000000  0.5470610000000 1.0
C      1  0.5615070000000  0.5556330000000  0.5473660000000 1.0
END
