TITL C-3578205-846-307 1.80413167068939e-06 125000 -431.905014830999 0 0 72 (D3) n - 1
REM
REM in /home/bkarasulu/work/CARBON/AIRSS/Generating-Clusters/EDIP-Nigel-Params/with-SteepDescent/Higher-Symm/SD-CG/HFTN-CG
REM
REM
REM
REM
REM
REM ./C.cell (12c818d87b63d06a65506943cc24bca4)
REM
REM compiler GCC version 9.2.1 20190827 (Red Hat 9.2.1-1)
REM options -cpp -mtune=generic -march=x86-64 -g -O0 -fpre-include=/usr/include/finclude/math-vector-fortran.h
REM seed -1389371216 36547960 655504658 -1594644333 -512232298 -2110373894 1228399329 -1176937404 1041566152 -2133008935 728310247 144225023 -197362725 -339293009 853553179 -876280834 1655108161 809867887 -1366899299 -644146573 1604350976 1296073931 93825603 1743245657 -184359145 -1310662076 2028572060 -1071932329 1808298510 1950729261 838550611 -1013479487 -858753428
REM
CELL 1.54180   50.00000   50.00000   50.00000   90.00000   90.00000   90.00000
LATT -1
SFAC C  
C      1  0.4838230000000  0.4633190000000  0.5683600000000 1.0
C      1  0.5672990000000  0.4633320000000  0.4798370000000 1.0
C      1  0.4488980000000  0.4633100000000  0.4518060000000 1.0
C      1  0.4838020000000  0.5366750000000  0.4316420000000 1.0
C      1  0.5672880000000  0.5366930000000  0.5201550000000 1.0
C      1  0.4488900000000  0.5366710000000  0.5482000000000 1.0
C      1  0.4723790000000  0.5833450000000  0.4922150000000 1.0
C      1  0.5070470000000  0.5833520000000  0.5277970000000 1.0
C      1  0.5205280000000  0.5833530000000  0.4799820000000 1.0
C      1  0.4724110000000  0.4166450000000  0.5077890000000 1.0
C      1  0.5070740000000  0.4166510000000  0.4722020000000 1.0
C      1  0.5205610000000  0.4166540000000  0.5200150000000 1.0
C      1  0.5726710000000  0.5185510000000  0.4976800000000 1.0
C      1  0.4616500000000  0.5185290000000  0.4382210000000 1.0
C      1  0.4656680000000  0.5185330000000  0.5640970000000 1.0
C      1  0.5726780000000  0.4814760000000  0.5023110000000 1.0
C      1  0.4616650000000  0.4814570000000  0.5617830000000 1.0
C      1  0.4656670000000  0.4814550000000  0.4359070000000 1.0
C      1  0.4871670000000  0.5350720000000  0.5200570000000 1.0
C      1  0.5237770000000  0.5350790000000  0.5010780000000 1.0
C      1  0.4890360000000  0.5350720000000  0.4788620000000 1.0
C      1  0.4871780000000  0.4649230000000  0.4799440000000 1.0
C      1  0.5237900000000  0.4649300000000  0.4989190000000 1.0
C      1  0.4890510000000  0.4649240000000  0.5211390000000 1.0
C      1  0.4433050000000  0.5253930000000  0.4596110000000 1.0
C      1  0.4933630000000  0.5254050000000  0.5692880000000 1.0
C      1  0.5633170000000  0.5254150000000  0.4710990000000 1.0
C      1  0.4433200000000  0.4745860000000  0.5403960000000 1.0
C      1  0.4933640000000  0.4745930000000  0.4307120000000 1.0
C      1  0.5633300000000  0.4746080000000  0.5288940000000 1.0
C      1  0.4992490000000  0.5070210000000  0.4722500000000 1.0
C      1  0.4763410000000  0.5070180000000  0.5145250000000 1.0
C      1  0.5244060000000  0.5070260000000  0.5132250000000 1.0
C      1  0.4992540000000  0.4929790000000  0.5277500000000 1.0
C      1  0.4763420000000  0.4929740000000  0.4854780000000 1.0
C      1  0.5244070000000  0.4929830000000  0.4867720000000 1.0
C      1  0.4924500000000  0.4187850000000  0.5292570000000 1.0
C      1  0.5291330000000  0.4187900000000  0.4919260000000 1.0
C      1  0.4784620000000  0.4187810000000  0.4788230000000 1.0
C      1  0.4924160000000  0.5812130000000  0.4707440000000 1.0
C      1  0.5291040000000  0.5812200000000  0.5080700000000 1.0
C      1  0.4784350000000  0.5812110000000  0.5211800000000 1.0
C      1  0.4244480000000  0.4951810000000  0.5371560000000 1.0
C      1  0.5699550000000  0.4952080000000  0.5468520000000 1.0
C      1  0.5055990000000  0.4951930000000  0.4159920000000 1.0
C      1  0.4244420000000  0.5047910000000  0.4628530000000 1.0
C      1  0.5699480000000  0.5048170000000  0.4531390000000 1.0
C      1  0.5056070000000  0.5048090000000  0.5840080000000 1.0
C      1  0.5349930000000  0.4665150000000  0.5275940000000 1.0
C      1  0.5064100000000  0.4665080000000  0.4559050000000 1.0
C      1  0.4586160000000  0.4665000000000  0.5165030000000 1.0
C      1  0.5349770000000  0.5334980000000  0.4724010000000 1.0
C      1  0.5064020000000  0.5334950000000  0.5440940000000 1.0
C      1  0.4586020000000  0.5334840000000  0.4835020000000 1.0
C      1  0.5025150000000  0.5221460000000  0.4166160000000 1.0
C      1  0.4265240000000  0.5221350000000  0.5395090000000 1.0
C      1  0.5709480000000  0.5221620000000  0.5438730000000 1.0
C      1  0.5025340000000  0.4778550000000  0.5833840000000 1.0
C      1  0.4265280000000  0.4778380000000  0.4605000000000 1.0
C      1  0.5709510000000  0.4778640000000  0.4561180000000 1.0
C      1  0.5246290000000  0.4456440000000  0.5444980000000 1.0
C      1  0.5262350000000  0.4456420000000  0.4564320000000 1.0
C      1  0.4491650000000  0.4456290000000  0.4990740000000 1.0
C      1  0.5246040000000  0.5543650000000  0.4554990000000 1.0
C      1  0.5262200000000  0.5543680000000  0.5435650000000 1.0
C      1  0.4491450000000  0.5543520000000  0.5009320000000 1.0
C      1  0.4948740000000  0.4464090000000  0.5442070000000 1.0
C      1  0.5408610000000  0.4464160000000  0.4823460000000 1.0
C      1  0.4642950000000  0.4464010000000  0.4734510000000 1.0
C      1  0.4948490000000  0.5535900000000  0.4557940000000 1.0
C      1  0.5408430000000  0.5536000000000  0.5176490000000 1.0
C      1  0.4642780000000  0.5535860000000  0.5265540000000 1.0
END
