TITL C-3578198-8939-153 -1.77821610606899e-06 125000 -744.49769672095 0 0 117 (C1) n - 1
REM
REM in /home/bkarasulu/work/CARBON/AIRSS/Generating-Clusters/EDIP-Nigel-Params/with-SteepDescent/Higher-Symm/SD-CG/HFTN-CG
REM
REM
REM
REM
REM
REM ./C.cell (12c818d87b63d06a65506943cc24bca4)
REM
REM compiler GCC version 9.2.1 20190827 (Red Hat 9.2.1-1)
REM options -cpp -mtune=generic -march=x86-64 -g -O0 -fpre-include=/usr/include/finclude/math-vector-fortran.h
REM seed 426088191 -579565033 -1801760503 -484756948 167316203 1233888547 -39799768 -1579331513 2106312572 2071775410 177474916 571090035 562998455 1684868130 1520940717 -1327622178 859623633 -1782612155 -1880106444 1922935392 2051583421 -1855171474 -37952826 1525880064 -2111137290 1834615456 -2009130534 -520189461 -173840719 -856360995 461561553 1843582585 -1559990601
REM
CELL 1.54180   50.00000   50.00000   50.00000   90.00000   90.00000   90.00000
LATT -1
SFAC C  
C      1  0.5253140000000  0.4205960000000  0.5279830000000 1.0
C      1  0.4751910000000  0.4348610000000  0.5208920000000 1.0
C      1  0.4231160000000  0.4638090000000  0.5326610000000 1.0
C      1  0.4305430000000  0.5153970000000  0.5298670000000 1.0
C      1  0.4562180000000  0.5583650000000  0.5282900000000 1.0
C      1  0.5036040000000  0.5723340000000  0.5289700000000 1.0
C      1  0.5482530000000  0.5504220000000  0.5279270000000 1.0
C      1  0.5809700000000  0.5092930000000  0.5288260000000 1.0
C      1  0.5583710000000  0.4619040000000  0.5269710000000 1.0
C      1  0.4565550000000  0.4967790000000  0.5905180000000 1.0
C      1  0.4637790000000  0.5256020000000  0.5873870000000 1.0
C      1  0.4866370000000  0.5444760000000  0.5899290000000 1.0
C      1  0.5161330000000  0.5411260000000  0.5877450000000 1.0
C      1  0.5375930000000  0.5203020000000  0.5897130000000 1.0
C      1  0.5392780000000  0.4897430000000  0.5878520000000 1.0
C      1  0.5245090000000  0.4632350000000  0.5888800000000 1.0
C      1  0.4954260000000  0.4542380000000  0.5870430000000 1.0
C      1  0.4716530000000  0.4712510000000  0.5844020000000 1.0
C      1  0.4335420000000  0.4791370000000  0.4357920000000 1.0
C      1  0.4359690000000  0.5268470000000  0.4353620000000 1.0
C      1  0.4686440000000  0.5618540000000  0.4350580000000 1.0
C      1  0.5160960000000  0.5674310000000  0.4347970000000 1.0
C      1  0.5562510000000  0.5413960000000  0.4345000000000 1.0
C      1  0.5703040000000  0.4959260000000  0.4337340000000 1.0
C      1  0.5518470000000  0.4515470000000  0.4329380000000 1.0
C      1  0.5091090000000  0.4295310000000  0.4334740000000 1.0
C      1  0.4622270000000  0.4407460000000  0.4350400000000 1.0
C      1  0.4542720000000  0.4537440000000  0.5691070000000 1.0
C      1  0.4305310000000  0.4943730000000  0.5752820000000 1.0
C      1  0.4414510000000  0.5397620000000  0.5741130000000 1.0
C      1  0.4792650000000  0.5690900000000  0.5741690000000 1.0
C      1  0.5270580000000  0.5647850000000  0.5735860000000 1.0
C      1  0.5599650000000  0.5308270000000  0.5725600000000 1.0
C      1  0.5637040000000  0.4842980000000  0.5718260000000 1.0
C      1  0.5391580000000  0.4445310000000  0.5709100000000 1.0
C      1  0.4929360000000  0.4314230000000  0.5676050000000 1.0
C      1  0.4582770000000  0.4125990000000  0.4881900000000 1.0
C      1  0.4044370000000  0.4593670000000  0.4810270000000 1.0
C      1  0.4002320000000  0.5305590000000  0.4809580000000 1.0
C      1  0.4435390000000  0.5876240000000  0.4803460000000 1.0
C      1  0.5135850000000  0.6031880000000  0.4805270000000 1.0
C      1  0.5765360000000  0.5692350000000  0.4807780000000 1.0
C      1  0.6059050000000  0.5042870000000  0.4789650000000 1.0
C      1  0.5830370000000  0.4367940000000  0.4798120000000 1.0
C      1  0.5255260000000  0.3944360000000  0.4759680000000 1.0
C      1  0.5923260000000  0.5263850000000  0.4691230000000 1.0
C      1  0.5868970000000  0.4618710000000  0.4690660000000 1.0
C      1  0.5443550000000  0.4130530000000  0.4675250000000 1.0
C      1  0.4792680000000  0.4079860000000  0.4705940000000 1.0
C      1  0.4271660000000  0.4452080000000  0.4740210000000 1.0
C      1  0.4058220000000  0.5055140000000  0.4707950000000 1.0
C      1  0.4315010000000  0.5648380000000  0.4703890000000 1.0
C      1  0.4897740000000  0.5940270000000  0.4699030000000 1.0
C      1  0.5526100000000  0.5778070000000  0.4701050000000 1.0
C      1  0.5864710000000  0.5454800000000  0.4907320000000 1.0
C      1  0.5953110000000  0.4809180000000  0.4895520000000 1.0
C      1  0.5617710000000  0.4222190000000  0.4896370000000 1.0
C      1  0.5014210000000  0.4013710000000  0.4879630000000 1.0
C      1  0.4391380000000  0.4305670000000  0.4962590000000 1.0
C      1  0.4041090000000  0.4850240000000  0.4915110000000 1.0
C      1  0.4170750000000  0.5499420000000  0.4912040000000 1.0
C      1  0.4689020000000  0.5922610000000  0.4904190000000 1.0
C      1  0.5353650000000  0.5894270000000  0.4906730000000 1.0
C      1  0.4497140000000  0.5469380000000  0.4530660000000 1.0
C      1  0.4920830000000  0.5683640000000  0.4529560000000 1.0
C      1  0.5381380000000  0.5571160000000  0.4525420000000 1.0
C      1  0.5671520000000  0.5195850000000  0.4523220000000 1.0
C      1  0.5641300000000  0.4722510000000  0.4511410000000 1.0
C      1  0.5327680000000  0.4365910000000  0.4509540000000 1.0
C      1  0.4853050000000  0.4317080000000  0.4520380000000 1.0
C      1  0.4461500000000  0.4584210000000  0.4536130000000 1.0
C      1  0.4312180000000  0.5033450000000  0.4536360000000 1.0
C      1  0.4686970000000  0.5296170000000  0.4698310000000 1.0
C      1  0.4953840000000  0.5431370000000  0.4703920000000 1.0
C      1  0.5242880000000  0.5352620000000  0.4690950000000 1.0
C      1  0.5430830000000  0.5118540000000  0.4700910000000 1.0
C      1  0.5403040000000  0.4821530000000  0.4675400000000 1.0
C      1  0.5216090000000  0.4588470000000  0.4689150000000 1.0
C      1  0.4917650000000  0.4567140000000  0.4684430000000 1.0
C      1  0.4675620000000  0.4745540000000  0.4683460000000 1.0
C      1  0.4567180000000  0.5022880000000  0.4708570000000 1.0
C      1  0.5330120000000  0.4777010000000  0.5229790000000 1.0
C      1  0.5111610000000  0.4661390000000  0.5111360000000 1.0
C      1  0.4845530000000  0.4628210000000  0.5170380000000 1.0
C      1  0.4710290000000  0.4853720000000  0.5249190000000 1.0
C      1  0.4601210000000  0.5101640000000  0.5293870000000 1.0
C      1  0.4739280000000  0.5347190000000  0.5256770000000 1.0
C      1  0.5009040000000  0.5428620000000  0.5295260000000 1.0
C      1  0.5259300000000  0.5305080000000  0.5256410000000 1.0
C      1  0.5294920000000  0.5038260000000  0.5299850000000 1.0
C      1  0.4998630000000  0.4158250000000  0.5134720000000 1.0
C      1  0.4368080000000  0.4376190000000  0.5252970000000 1.0
C      1  0.4180210000000  0.4889290000000  0.5172210000000 1.0
C      1  0.4310110000000  0.5438360000000  0.5165600000000 1.0
C      1  0.4755980000000  0.5797160000000  0.5163250000000 1.0
C      1  0.5319840000000  0.5747570000000  0.5160700000000 1.0
C      1  0.5728530000000  0.5349500000000  0.5148360000000 1.0
C      1  0.5802790000000  0.4824200000000  0.5150590000000 1.0
C      1  0.5490520000000  0.4336590000000  0.5140550000000 1.0
C      1  0.4749460000000  0.4607440000000  0.4158530000000 1.0
C      1  0.4560320000000  0.4860730000000  0.4164820000000 1.0
C      1  0.4578470000000  0.5174350000000  0.4165680000000 1.0
C      1  0.4793250000000  0.5404390000000  0.4163720000000 1.0
C      1  0.5105130000000  0.5441470000000  0.4161490000000 1.0
C      1  0.5369590000000  0.5271330000000  0.4158740000000 1.0
C      1  0.5461540000000  0.4972490000000  0.4153040000000 1.0
C      1  0.5338360000000  0.4680950000000  0.4148780000000 1.0
C      1  0.5057990000000  0.4536160000000  0.4151940000000 1.0
C      1  0.5042440000000  0.5790410000000  0.5589830000000 1.0
C      1  0.5519440000000  0.5558030000000  0.5582370000000 1.0
C      1  0.5692290000000  0.5082450000000  0.5560670000000 1.0
C      1  0.5619180000000  0.4585030000000  0.5574240000000 1.0
C      1  0.5188700000000  0.4326760000000  0.5537550000000 1.0
C      1  0.4658900000000  0.4314140000000  0.5517570000000 1.0
C      1  0.4320470000000  0.4692380000000  0.5597510000000 1.0
C      1  0.4238660000000  0.5192970000000  0.5598750000000 1.0
C      1  0.4530810000000  0.5633120000000  0.5587590000000 1.0
END
