TITL C-3577078-809-444 -2.54711088844029e-06 125000 -831.193213257845 0 0 132 (C1) n - 1
REM
REM in /home/bkarasulu/work/CARBON/AIRSS/Generating-Clusters/EDIP-Nigel-Params/with-SteepDescent/Higher-Symm/SD-CG/HFTN-CG
REM
REM
REM
REM
REM
REM ./C.cell (12c818d87b63d06a65506943cc24bca4)
REM
REM compiler GCC version 9.2.1 20190827 (Red Hat 9.2.1-1)
REM options -cpp -mtune=generic -march=x86-64 -g -O0 -fpre-include=/usr/include/finclude/math-vector-fortran.h
REM seed 2089882363 -99883560 975070516 1946281467 1369218519 2125188227 2057099923 -288309889 1075545164 1478381285 -2044211813 -1291326207 -1674974719 -747595010 259070106 2109609777 -911719360 -2117897606 1303191363 2022769190 -2086831715 1294958798 -361817679 -1606960447 1343276139 2028329180 510636089 -465143170 1517801615 1350897362 -978684464 -603954611 -650176304
REM
CELL 1.54180   50.00000   50.00000   50.00000   90.00000   90.00000   90.00000
LATT -1
SFAC C  
C      1  0.5274110000000  0.5399100000000  0.4706110000000 1.0
C      1  0.4737200000000  0.5381660000000  0.4697060000000 1.0
C      1  0.5461020000000  0.5474730000000  0.4313200000000 1.0
C      1  0.4551860000000  0.5459850000000  0.4301640000000 1.0
C      1  0.5951880000000  0.5128770000000  0.5124820000000 1.0
C      1  0.4063330000000  0.5142580000000  0.5120590000000 1.0
C      1  0.5555350000000  0.5786630000000  0.5147210000000 1.0
C      1  0.4471020000000  0.5783820000000  0.5139750000000 1.0
C      1  0.4797400000000  0.4299370000000  0.5106860000000 1.0
C      1  0.5092280000000  0.4346320000000  0.5056520000000 1.0
C      1  0.4590300000000  0.5735880000000  0.4647810000000 1.0
C      1  0.5401130000000  0.5762960000000  0.4665440000000 1.0
C      1  0.5225060000000  0.4099450000000  0.4938050000000 1.0
C      1  0.4718530000000  0.4070340000000  0.4927620000000 1.0
C      1  0.4682200000000  0.5707950000000  0.4384250000000 1.0
C      1  0.5321210000000  0.5718040000000  0.4398190000000 1.0
C      1  0.4609390000000  0.4593880000000  0.4701200000000 1.0
C      1  0.5461460000000  0.4651310000000  0.4836520000000 1.0
C      1  0.5658480000000  0.4939300000000  0.5616350000000 1.0
C      1  0.4424080000000  0.4988150000000  0.5608040000000 1.0
C      1  0.5192580000000  0.4394040000000  0.5325190000000 1.0
C      1  0.4776340000000  0.4267930000000  0.5417380000000 1.0
C      1  0.5596720000000  0.4459990000000  0.5586480000000 1.0
C      1  0.4412790000000  0.4498540000000  0.5667190000000 1.0
C      1  0.5485350000000  0.4930310000000  0.4711230000000 1.0
C      1  0.4544020000000  0.4897720000000  0.4669980000000 1.0
C      1  0.5253030000000  0.5315980000000  0.4994190000000 1.0
C      1  0.4747380000000  0.5309240000000  0.4986080000000 1.0
C      1  0.5286040000000  0.4887980000000  0.5195430000000 1.0
C      1  0.4765870000000  0.4775780000000  0.5124120000000 1.0
C      1  0.4310380000000  0.5009730000000  0.4508060000000 1.0
C      1  0.5701830000000  0.5003770000000  0.4521340000000 1.0
C      1  0.4256450000000  0.5322400000000  0.5272930000000 1.0
C      1  0.5821250000000  0.5309670000000  0.5303210000000 1.0
C      1  0.5456130000000  0.4538500000000  0.4364740000000 1.0
C      1  0.4488670000000  0.4504180000000  0.4301140000000 1.0
C      1  0.4486850000000  0.4172900000000  0.4751560000000 1.0
C      1  0.5478800000000  0.4214210000000  0.4792350000000 1.0
C      1  0.4526560000000  0.5294490000000  0.5163410000000 1.0
C      1  0.5448110000000  0.5330650000000  0.5225530000000 1.0
C      1  0.5137750000000  0.4576300000000  0.4853820000000 1.0
C      1  0.4936080000000  0.4511030000000  0.4593800000000 1.0
C      1  0.4306840000000  0.4415240000000  0.5157580000000 1.0
C      1  0.5866180000000  0.4373890000000  0.5169650000000 1.0
C      1  0.5153760000000  0.4225200000000  0.4114160000000 1.0
C      1  0.4846520000000  0.4224860000000  0.4092700000000 1.0
C      1  0.4638160000000  0.4542020000000  0.5013070000000 1.0
C      1  0.5516610000000  0.4701410000000  0.5143730000000 1.0
C      1  0.4569110000000  0.5298440000000  0.5969660000000 1.0
C      1  0.5317760000000  0.5205270000000  0.5863970000000 1.0
C      1  0.5648010000000  0.5324530000000  0.4505110000000 1.0
C      1  0.4362270000000  0.5319290000000  0.4496320000000 1.0
C      1  0.5264900000000  0.5319970000000  0.4158880000000 1.0
C      1  0.4753170000000  0.5308770000000  0.4148750000000 1.0
C      1  0.5400220000000  0.4948900000000  0.5747480000000 1.0
C      1  0.4572550000000  0.5018400000000  0.5872020000000 1.0
C      1  0.5340370000000  0.6000350000000  0.5091570000000 1.0
C      1  0.4581090000000  0.6015150000000  0.5025810000000 1.0
C      1  0.4066860000000  0.4763850000000  0.4823070000000 1.0
C      1  0.5966830000000  0.4742420000000  0.4829080000000 1.0
C      1  0.5738990000000  0.4322040000000  0.4914420000000 1.0
C      1  0.4276370000000  0.4337950000000  0.4876800000000 1.0
C      1  0.5490200000000  0.4928800000000  0.4119010000000 1.0
C      1  0.4565570000000  0.4860620000000  0.4127530000000 1.0
C      1  0.5234870000000  0.5938760000000  0.4819570000000 1.0
C      1  0.4732630000000  0.5921470000000  0.4809840000000 1.0
C      1  0.5241710000000  0.4506660000000  0.4160190000000 1.0
C      1  0.4747210000000  0.4515820000000  0.4119580000000 1.0
C      1  0.5358420000000  0.5614880000000  0.5298770000000 1.0
C      1  0.4694800000000  0.5625680000000  0.5278070000000 1.0
C      1  0.5780930000000  0.4674350000000  0.5552950000000 1.0
C      1  0.4284200000000  0.4723350000000  0.5550010000000 1.0
C      1  0.4048430000000  0.4997880000000  0.4656070000000 1.0
C      1  0.5966210000000  0.4984220000000  0.4664250000000 1.0
C      1  0.5222390000000  0.4123360000000  0.4385240000000 1.0
C      1  0.4755460000000  0.4103410000000  0.4350820000000 1.0
C      1  0.4769190000000  0.5040200000000  0.4263380000000 1.0
C      1  0.5266190000000  0.5048760000000  0.4266300000000 1.0
C      1  0.5875670000000  0.4837510000000  0.5095510000000 1.0
C      1  0.4147570000000  0.4862570000000  0.5081570000000 1.0
C      1  0.5623900000000  0.4786500000000  0.4312830000000 1.0
C      1  0.4313910000000  0.4833960000000  0.4266580000000 1.0
C      1  0.5508490000000  0.5374990000000  0.5701950000000 1.0
C      1  0.4469230000000  0.5440810000000  0.5722330000000 1.0
C      1  0.4223010000000  0.4555690000000  0.4703790000000 1.0
C      1  0.5804800000000  0.4527050000000  0.4725600000000 1.0
C      1  0.5780520000000  0.5439570000000  0.4754430000000 1.0
C      1  0.4228990000000  0.5447330000000  0.4745480000000 1.0
C      1  0.5452420000000  0.4267570000000  0.4498060000000 1.0
C      1  0.4520150000000  0.4236340000000  0.4457440000000 1.0
C      1  0.5466150000000  0.4459050000000  0.5331680000000 1.0
C      1  0.4674140000000  0.4517190000000  0.5555520000000 1.0
C      1  0.4298360000000  0.5635550000000  0.4959550000000 1.0
C      1  0.5711030000000  0.5654690000000  0.4937970000000 1.0
C      1  0.5718650000000  0.5219570000000  0.5556880000000 1.0
C      1  0.4279560000000  0.5253440000000  0.5563830000000 1.0
C      1  0.5418510000000  0.5630230000000  0.5591730000000 1.0
C      1  0.4700150000000  0.5565260000000  0.5574660000000 1.0
C      1  0.4763700000000  0.5072800000000  0.4581320000000 1.0
C      1  0.5259890000000  0.5086790000000  0.4594310000000 1.0
C      1  0.4201560000000  0.4658690000000  0.5274920000000 1.0
C      1  0.5925690000000  0.4626190000000  0.5297590000000 1.0
C      1  0.4032800000000  0.5240510000000  0.4835280000000 1.0
C      1  0.5970590000000  0.5226330000000  0.4846290000000 1.0
C      1  0.5316200000000  0.5106930000000  0.5408280000000 1.0
C      1  0.4700700000000  0.4795750000000  0.5412990000000 1.0
C      1  0.5002560000000  0.5701370000000  0.5172780000000 1.0
C      1  0.5017190000000  0.4910090000000  0.4204420000000 1.0
C      1  0.5013540000000  0.4977680000000  0.4710970000000 1.0
C      1  0.4996050000000  0.5265480000000  0.5119440000000 1.0
C      1  0.4972400000000  0.4185220000000  0.4538160000000 1.0
C      1  0.5070330000000  0.4665390000000  0.6226170000000 1.0
C      1  0.4903110000000  0.4965050000000  0.5535980000000 1.0
C      1  0.5094080000000  0.5968100000000  0.5282040000000 1.0
C      1  0.5006590000000  0.5461120000000  0.4153090000000 1.0
C      1  0.5006280000000  0.5270060000000  0.5882430000000 1.0
C      1  0.4976840000000  0.5461880000000  0.5637150000000 1.0
C      1  0.4991600000000  0.4625840000000  0.4274600000000 1.0
C      1  0.5084730000000  0.4466920000000  0.6015940000000 1.0
C      1  0.5084980000000  0.4298530000000  0.5792700000000 1.0
C      1  0.5054180000000  0.4235290000000  0.5522770000000 1.0
C      1  0.5113900000000  0.5953430000000  0.5561950000000 1.0
C      1  0.4822100000000  0.5384400000000  0.6078910000000 1.0
C      1  0.5161240000000  0.5705890000000  0.5686340000000 1.0
C      1  0.4988580000000  0.5777950000000  0.4868450000000 1.0
C      1  0.5030040000000  0.5209630000000  0.5417620000000 1.0
C      1  0.5001610000000  0.5543610000000  0.4657160000000 1.0
C      1  0.4975780000000  0.4014280000000  0.4781290000000 1.0
C      1  0.5000870000000  0.5674850000000  0.4360760000000 1.0
C      1  0.5036750000000  0.4839060000000  0.4992620000000 1.0
C      1  0.4984710000000  0.4752530000000  0.5972320000000 1.0
C      1  0.4868870000000  0.4994470000000  0.5823480000000 1.0
END
