TITL C-3577086-586-371 -4.47677063115726e-06 125000 -888.210451274555 0 0 147 (C1) n - 1
REM
REM in /home/bkarasulu/work/CARBON/AIRSS/Generating-Clusters/EDIP-Nigel-Params/with-SteepDescent/Higher-Symm/SD-CG/HFTN-CG
REM
REM
REM
REM
REM
REM ./C.cell (12c818d87b63d06a65506943cc24bca4)
REM
REM compiler GCC version 9.2.1 20190827 (Red Hat 9.2.1-1)
REM options -cpp -mtune=generic -march=x86-64 -g -O0 -fpre-include=/usr/include/finclude/math-vector-fortran.h
REM seed -1228799391 77939205 -1403364303 -1785237228 -294800896 -1721091868 940878084 -1716930501 2003191510 1483070634 1784120841 -166662554 1846734534 -880478436 -32991945 -331170682 1631420839 694003065 -1244152849 399337891 -2016427724 -1331917459 -959900342 473949469 -1838826257 -903745242 -702907682 2030371228 -1178602630 2079341297 851247071 -1105322493 935524057
REM
CELL 1.54180   50.00000   50.00000   50.00000   90.00000   90.00000   90.00000
LATT -1
SFAC C  
C      1  0.4450940000000  0.5695020000000  0.4960500000000 1.0
C      1  0.4521400000000  0.5697620000000  0.5258280000000 1.0
C      1  0.4749060000000  0.5672840000000  0.5460010000000 1.0
C      1  0.5045190000000  0.5691700000000  0.5524790000000 1.0
C      1  0.5321310000000  0.5686750000000  0.5398360000000 1.0
C      1  0.5524220000000  0.5713010000000  0.5161450000000 1.0
C      1  0.5551190000000  0.5719590000000  0.4859950000000 1.0
C      1  0.5381830000000  0.5707650000000  0.4607100000000 1.0
C      1  0.5100710000000  0.5712080000000  0.4479010000000 1.0
C      1  0.4789440000000  0.5706780000000  0.4500730000000 1.0
C      1  0.4535280000000  0.5723020000000  0.4668990000000 1.0
C      1  0.5229480000000  0.5297570000000  0.5583890000000 1.0
C      1  0.5522750000000  0.5309610000000  0.5324840000000 1.0
C      1  0.5662090000000  0.5323200000000  0.5010070000000 1.0
C      1  0.5572600000000  0.5318470000000  0.4680140000000 1.0
C      1  0.5291150000000  0.5320740000000  0.4429350000000 1.0
C      1  0.4939770000000  0.5314120000000  0.4395220000000 1.0
C      1  0.4569670000000  0.5326810000000  0.4488390000000 1.0
C      1  0.4372100000000  0.5321560000000  0.4745150000000 1.0
C      1  0.4381820000000  0.5301930000000  0.5135860000000 1.0
C      1  0.4540010000000  0.5292030000000  0.5430530000000 1.0
C      1  0.4893790000000  0.5290800000000  0.5621570000000 1.0
C      1  0.4307810000000  0.5676870000000  0.4499600000000 1.0
C      1  0.4171360000000  0.5644480000000  0.4949490000000 1.0
C      1  0.4280200000000  0.5642650000000  0.5402010000000 1.0
C      1  0.4611030000000  0.5619180000000  0.5703140000000 1.0
C      1  0.5078380000000  0.5645220000000  0.5803440000000 1.0
C      1  0.5488850000000  0.5636810000000  0.5623920000000 1.0
C      1  0.5787250000000  0.5657970000000  0.5261850000000 1.0
C      1  0.5824570000000  0.5665540000000  0.4794600000000 1.0
C      1  0.5564440000000  0.5652860000000  0.4394370000000 1.0
C      1  0.5156340000000  0.5660160000000  0.4201830000000 1.0
C      1  0.4700860000000  0.5652880000000  0.4234780000000 1.0
C      1  0.5430560000000  0.4059060000000  0.5117620000000 1.0
C      1  0.5385500000000  0.3937300000000  0.4870190000000 1.0
C      1  0.5381770000000  0.4064550000000  0.4621370000000 1.0
C      1  0.5116820000000  0.4116180000000  0.4509680000000 1.0
C      1  0.4874490000000  0.4007240000000  0.4609060000000 1.0
C      1  0.4626910000000  0.4087040000000  0.4722190000000 1.0
C      1  0.4574980000000  0.4038080000000  0.4995090000000 1.0
C      1  0.4553860000000  0.4138950000000  0.5258760000000 1.0
C      1  0.4766350000000  0.4114760000000  0.5455020000000 1.0
C      1  0.5048470000000  0.4163410000000  0.5482610000000 1.0
C      1  0.5236660000000  0.4040950000000  0.5317170000000 1.0
C      1  0.5644640000000  0.4264800000000  0.5118890000000 1.0
C      1  0.5768560000000  0.4294890000000  0.4857970000000 1.0
C      1  0.5582380000000  0.4295980000000  0.4622000000000 1.0
C      1  0.5079990000000  0.4282570000000  0.4269130000000 1.0
C      1  0.4806350000000  0.4377760000000  0.4320110000000 1.0
C      1  0.4407170000000  0.4253980000000  0.4586020000000 1.0
C      1  0.4258160000000  0.4306450000000  0.4839340000000 1.0
C      1  0.4319470000000  0.4266750000000  0.5396760000000 1.0
C      1  0.4371570000000  0.4311440000000  0.5668730000000 1.0
C      1  0.5159230000000  0.4304580000000  0.5717480000000 1.0
C      1  0.5409660000000  0.4428880000000  0.5623150000000 1.0
C      1  0.4572260000000  0.5470770000000  0.4058910000000 1.0
C      1  0.4111110000000  0.5484740000000  0.4417800000000 1.0
C      1  0.3971840000000  0.5446770000000  0.4985220000000 1.0
C      1  0.4126240000000  0.5452040000000  0.5547400000000 1.0
C      1  0.4570980000000  0.5437230000000  0.5916280000000 1.0
C      1  0.5148030000000  0.5463670000000  0.6010210000000 1.0
C      1  0.5666720000000  0.5453750000000  0.5746200000000 1.0
C      1  0.5996540000000  0.5464730000000  0.5282420000000 1.0
C      1  0.6005470000000  0.5467250000000  0.4696610000000 1.0
C      1  0.5665490000000  0.5455680000000  0.4215800000000 1.0
C      1  0.5139420000000  0.5466390000000  0.3992830000000 1.0
C      1  0.5555380000000  0.4535470000000  0.5836600000000 1.0
C      1  0.5686900000000  0.4513490000000  0.5287630000000 1.0
C      1  0.5902430000000  0.4535580000000  0.4868770000000 1.0
C      1  0.5672580000000  0.4496850000000  0.4406030000000 1.0
C      1  0.5256870000000  0.4503380000000  0.4188560000000 1.0
C      1  0.4721880000000  0.4551050000000  0.4116690000000 1.0
C      1  0.4389110000000  0.4508270000000  0.4405200000000 1.0
C      1  0.4074100000000  0.4528990000000  0.4825680000000 1.0
C      1  0.4171360000000  0.4494240000000  0.5288870000000 1.0
C      1  0.4518790000000  0.4494620000000  0.5813310000000 1.0
C      1  0.5000630000000  0.4501410000000  0.5877570000000 1.0
C      1  0.5422550000000  0.5042980000000  0.4672290000000 1.0
C      1  0.5153870000000  0.4925400000000  0.4562170000000 1.0
C      1  0.4910510000000  0.5087580000000  0.4603520000000 1.0
C      1  0.4619460000000  0.4980410000000  0.4665350000000 1.0
C      1  0.4476400000000  0.5032620000000  0.4969550000000 1.0
C      1  0.4626260000000  0.4878220000000  0.5171570000000 1.0
C      1  0.4646250000000  0.5004150000000  0.5427360000000 1.0
C      1  0.4934260000000  0.4971520000000  0.5534570000000 1.0
C      1  0.5294170000000  0.4949190000000  0.5466080000000 1.0
C      1  0.5352090000000  0.5091570000000  0.5212550000000 1.0
C      1  0.5502900000000  0.4967310000000  0.4972370000000 1.0
C      1  0.5467510000000  0.5238900000000  0.4181580000000 1.0
C      1  0.4952830000000  0.5247150000000  0.4075310000000 1.0
C      1  0.4436070000000  0.5263140000000  0.4216070000000 1.0
C      1  0.4105280000000  0.5250670000000  0.4611670000000 1.0
C      1  0.4075490000000  0.5240610000000  0.5162700000000 1.0
C      1  0.4304560000000  0.5227310000000  0.5632630000000 1.0
C      1  0.4781670000000  0.5235990000000  0.5912950000000 1.0
C      1  0.5304030000000  0.5244240000000  0.5886010000000 1.0
C      1  0.5734180000000  0.5237750000000  0.5556270000000 1.0
C      1  0.5953260000000  0.5250800000000  0.5078650000000 1.0
C      1  0.5850180000000  0.5249660000000  0.4560530000000 1.0
C      1  0.5276370000000  0.4941040000000  0.5908590000000 1.0
C      1  0.5711750000000  0.4934580000000  0.5596900000000 1.0
C      1  0.5914050000000  0.4944930000000  0.5117150000000 1.0
C      1  0.5846340000000  0.4941610000000  0.4595930000000 1.0
C      1  0.5498460000000  0.4930660000000  0.4201520000000 1.0
C      1  0.4990550000000  0.4945760000000  0.4052230000000 1.0
C      1  0.4475960000000  0.4960610000000  0.4186620000000 1.0
C      1  0.4140580000000  0.4943830000000  0.4583410000000 1.0
C      1  0.4068950000000  0.4939410000000  0.5115200000000 1.0
C      1  0.4285790000000  0.4907820000000  0.5610270000000 1.0
C      1  0.4739310000000  0.4928210000000  0.5926610000000 1.0
C      1  0.4522560000000  0.4777190000000  0.5768230000000 1.0
C      1  0.5010760000000  0.4792530000000  0.5931850000000 1.0
C      1  0.5531140000000  0.4812310000000  0.5807990000000 1.0
C      1  0.5796630000000  0.4786250000000  0.5347400000000 1.0
C      1  0.5899590000000  0.4811880000000  0.4857780000000 1.0
C      1  0.5658860000000  0.4790940000000  0.4417100000000 1.0
C      1  0.5237810000000  0.4793580000000  0.4148420000000 1.0
C      1  0.4720850000000  0.4825600000000  0.4080680000000 1.0
C      1  0.4324520000000  0.4804050000000  0.4387680000000 1.0
C      1  0.4119440000000  0.4810890000000  0.4847750000000 1.0
C      1  0.4158540000000  0.4779130000000  0.5352820000000 1.0
C      1  0.5152030000000  0.4628690000000  0.4537970000000 1.0
C      1  0.4868270000000  0.4515010000000  0.4583230000000 1.0
C      1  0.4618510000000  0.4662940000000  0.4671510000000 1.0
C      1  0.4456110000000  0.4547950000000  0.4913150000000 1.0
C      1  0.4536780000000  0.4605350000000  0.5213870000000 1.0
C      1  0.4694570000000  0.4495520000000  0.5472570000000 1.0
C      1  0.4965440000000  0.4650060000000  0.5523220000000 1.0
C      1  0.5263800000000  0.4625560000000  0.5426550000000 1.0
C      1  0.5266230000000  0.4556310000000  0.5140610000000 1.0
C      1  0.5501030000000  0.4654250000000  0.4978400000000 1.0
C      1  0.5415400000000  0.4549090000000  0.4693920000000 1.0
C      1  0.4157570000000  0.5345470000000  0.4181500000000 1.0
C      1  0.3869500000000  0.5311010000000  0.4769300000000 1.0
C      1  0.3932110000000  0.5312630000000  0.5407650000000 1.0
C      1  0.4338380000000  0.5292620000000  0.5914370000000 1.0
C      1  0.4945110000000  0.5326130000000  0.6136430000000 1.0
C      1  0.5574930000000  0.5316800000000  0.5966120000000 1.0
C      1  0.6015620000000  0.5311560000000  0.5513520000000 1.0
C      1  0.6153710000000  0.5318190000000  0.4877610000000 1.0
C      1  0.5894180000000  0.5318300000000  0.4281660000000 1.0
C      1  0.5363100000000  0.5318080000000  0.3920920000000 1.0
C      1  0.4733530000000  0.5321890000000  0.3891480000000 1.0
C      1  0.5022510000000  0.4625100000000  0.5025690000000 1.0
C      1  0.4958350000000  0.5411470000000  0.5026770000000 1.0
C      1  0.5026040000000  0.4895580000000  0.4986190000000 1.0
C      1  0.4949900000000  0.5152940000000  0.5039620000000 1.0
END
