TITL C-3577079-311-434 -5.57975892089857e-06 125000 -1235.60027011298 0 0 199 (C1) n - 1
REM
REM in /home/bkarasulu/work/CARBON/AIRSS/Generating-Clusters/EDIP-Nigel-Params/with-SteepDescent/Higher-Symm/SD-CG/HFTN-CG
REM
REM
REM
REM
REM
REM ./C.cell (12c818d87b63d06a65506943cc24bca4)
REM
REM compiler GCC version 9.2.1 20190827 (Red Hat 9.2.1-1)
REM options -cpp -mtune=generic -march=x86-64 -g -O0 -fpre-include=/usr/include/finclude/math-vector-fortran.h
REM seed -1400580257 1950825296 -1472067386 388422900 -952105413 -815543888 -1641704619 -1712116772 1471215181 1033168117 -1573187222 1736951976 -1442977822 -1319744377 1953038472 788294708 1411836206 1855540759 1541269126 139926375 -1083803452 2108086737 1201820411 -494864697 -642256872 1148895915 455646813 -1628098377 1053515587 -2016248742 -1416688363 -1212579963 -1052604366
REM
CELL 1.54180   50.00000   50.00000   50.00000   90.00000   90.00000   90.00000
LATT -1
SFAC C  
C      1  0.4688070000000  0.5485000000000  0.5083880000000 1.0
C      1  0.4985050000000  0.5425230000000  0.5074200000000 1.0
C      1  0.5120250000000  0.5203130000000  0.4940900000000 1.0
C      1  0.5390210000000  0.5117460000000  0.5022830000000 1.0
C      1  0.5426450000000  0.4837780000000  0.4974060000000 1.0
C      1  0.5251040000000  0.4661820000000  0.5108920000000 1.0
C      1  0.4979790000000  0.4721510000000  0.5019590000000 1.0
C      1  0.4748480000000  0.4628920000000  0.5182270000000 1.0
C      1  0.4504590000000  0.4776300000000  0.5102540000000 1.0
C      1  0.4423990000000  0.5052930000000  0.5244470000000 1.0
C      1  0.4444240000000  0.5323920000000  0.5108140000000 1.0
C      1  0.4943000000000  0.5443200000000  0.3989750000000 1.0
C      1  0.5202460000000  0.5422490000000  0.3932650000000 1.0
C      1  0.5406120000000  0.5268460000000  0.3858930000000 1.0
C      1  0.5472050000000  0.5021070000000  0.3786390000000 1.0
C      1  0.5428300000000  0.4762440000000  0.3867590000000 1.0
C      1  0.5195650000000  0.4641640000000  0.3783320000000 1.0
C      1  0.4954130000000  0.4563650000000  0.3890260000000 1.0
C      1  0.4725940000000  0.4684230000000  0.3797030000000 1.0
C      1  0.4573640000000  0.4901140000000  0.3810750000000 1.0
C      1  0.4525080000000  0.5131640000000  0.3951430000000 1.0
C      1  0.4706710000000  0.5336560000000  0.3927210000000 1.0
C      1  0.4674750000000  0.5042280000000  0.6058600000000 1.0
C      1  0.4683360000000  0.5302220000000  0.5971940000000 1.0
C      1  0.4827710000000  0.5474750000000  0.6137890000000 1.0
C      1  0.5102360000000  0.5509990000000  0.6105380000000 1.0
C      1  0.5254440000000  0.5271560000000  0.6047240000000 1.0
C      1  0.5295360000000  0.5040020000000  0.6202040000000 1.0
C      1  0.5438390000000  0.4869580000000  0.6025230000000 1.0
C      1  0.5343260000000  0.4591620000000  0.6000550000000 1.0
C      1  0.5058380000000  0.4569870000000  0.5922570000000 1.0
C      1  0.4788590000000  0.4569850000000  0.6036270000000 1.0
C      1  0.4627790000000  0.4796450000000  0.5940090000000 1.0
C      1  0.5543160000000  0.5018440000000  0.4297460000000 1.0
C      1  0.5482510000000  0.4725080000000  0.4155560000000 1.0
C      1  0.5270540000000  0.4510380000000  0.4286180000000 1.0
C      1  0.4966200000000  0.4490200000000  0.4175630000000 1.0
C      1  0.4682960000000  0.4536180000000  0.4352630000000 1.0
C      1  0.4443010000000  0.4776320000000  0.4337310000000 1.0
C      1  0.4425630000000  0.5100310000000  0.4226850000000 1.0
C      1  0.4574790000000  0.5315730000000  0.4409170000000 1.0
C      1  0.4813120000000  0.5547820000000  0.4399410000000 1.0
C      1  0.5169210000000  0.5532690000000  0.4356510000000 1.0
C      1  0.5423350000000  0.5320910000000  0.4296640000000 1.0
C      1  0.5864070000000  0.5319960000000  0.4334650000000 1.0
C      1  0.5927360000000  0.4802090000000  0.4340900000000 1.0
C      1  0.5691890000000  0.4329110000000  0.4336600000000 1.0
C      1  0.5248440000000  0.4072410000000  0.4353130000000 1.0
C      1  0.4726380000000  0.4093170000000  0.4371770000000 1.0
C      1  0.4278220000000  0.4362280000000  0.4303850000000 1.0
C      1  0.3955480000000  0.4713790000000  0.4285560000000 1.0
C      1  0.4138530000000  0.5503690000000  0.4276460000000 1.0
C      1  0.4536670000000  0.5877720000000  0.4316060000000 1.0
C      1  0.5073760000000  0.5964090000000  0.4366670000000 1.0
C      1  0.5561910000000  0.5739050000000  0.4347650000000 1.0
C      1  0.5373000000000  0.4389070000000  0.5075750000000 1.0
C      1  0.5149790000000  0.4210460000000  0.5081350000000 1.0
C      1  0.4665170000000  0.4343880000000  0.5132510000000 1.0
C      1  0.4279770000000  0.4538070000000  0.5044970000000 1.0
C      1  0.4158700000000  0.5020870000000  0.4997920000000 1.0
C      1  0.4145430000000  0.5462730000000  0.5014930000000 1.0
C      1  0.4618340000000  0.5772990000000  0.5079190000000 1.0
C      1  0.5174930000000  0.5644670000000  0.5134910000000 1.0
C      1  0.5458260000000  0.5549710000000  0.5086740000000 1.0
C      1  0.5697270000000  0.5190190000000  0.5039840000000 1.0
C      1  0.5689930000000  0.4748140000000  0.5035200000000 1.0
C      1  0.4514390000000  0.4215470000000  0.4216980000000 1.0
C      1  0.4209910000000  0.4630790000000  0.4198620000000 1.0
C      1  0.4136390000000  0.5202270000000  0.4258610000000 1.0
C      1  0.4409180000000  0.5622550000000  0.4247510000000 1.0
C      1  0.4817330000000  0.5899430000000  0.4235860000000 1.0
C      1  0.5320920000000  0.5868650000000  0.4241040000000 1.0
C      1  0.5723890000000  0.5544940000000  0.4207310000000 1.0
C      1  0.5915020000000  0.5064420000000  0.4205820000000 1.0
C      1  0.5753080000000  0.4593010000000  0.4211560000000 1.0
C      1  0.5471880000000  0.4189180000000  0.4213550000000 1.0
C      1  0.4983900000000  0.4112100000000  0.4241010000000 1.0
C      1  0.4618590000000  0.4262550000000  0.4826440000000 1.0
C      1  0.4184660000000  0.4603570000000  0.4746020000000 1.0
C      1  0.4009940000000  0.5112120000000  0.4524100000000 1.0
C      1  0.4241110000000  0.5574610000000  0.4739340000000 1.0
C      1  0.4750460000000  0.5871430000000  0.4817130000000 1.0
C      1  0.5266020000000  0.5834400000000  0.4807440000000 1.0
C      1  0.5579370000000  0.5530150000000  0.4795760000000 1.0
C      1  0.5871810000000  0.5075110000000  0.4761750000000 1.0
C      1  0.5832200000000  0.4609020000000  0.4789330000000 1.0
C      1  0.5470650000000  0.4362540000000  0.4791200000000 1.0
C      1  0.5067490000000  0.4096100000000  0.4812940000000 1.0
C      1  0.4672020000000  0.3940180000000  0.4616690000000 1.0
C      1  0.4191700000000  0.4352910000000  0.4586070000000 1.0
C      1  0.3857940000000  0.4852580000000  0.4509520000000 1.0
C      1  0.4011900000000  0.5567160000000  0.4540940000000 1.0
C      1  0.4486270000000  0.5990210000000  0.4578510000000 1.0
C      1  0.5099820000000  0.6121630000000  0.4611500000000 1.0
C      1  0.5686420000000  0.5837440000000  0.4583110000000 1.0
C      1  0.5962160000000  0.5314630000000  0.4611360000000 1.0
C      1  0.6110820000000  0.4739030000000  0.4563070000000 1.0
C      1  0.5860100000000  0.4184800000000  0.4524090000000 1.0
C      1  0.5289220000000  0.3986650000000  0.4634100000000 1.0
C      1  0.5911320000000  0.4326160000000  0.4776440000000 1.0
C      1  0.5554550000000  0.4069060000000  0.4727910000000 1.0
C      1  0.4847330000000  0.3898630000000  0.4840070000000 1.0
C      1  0.4325360000000  0.4168740000000  0.4757620000000 1.0
C      1  0.3898910000000  0.4697620000000  0.4761790000000 1.0
C      1  0.3847670000000  0.5338650000000  0.4639570000000 1.0
C      1  0.4316050000000  0.5864030000000  0.4773900000000 1.0
C      1  0.4945530000000  0.6104590000000  0.4861710000000 1.0
C      1  0.5532480000000  0.5967800000000  0.4779360000000 1.0
C      1  0.5884850000000  0.5515130000000  0.4805420000000 1.0
C      1  0.6145380000000  0.4910070000000  0.4807470000000 1.0
C      1  0.5457070000000  0.5843150000000  0.5471630000000 1.0
C      1  0.5776870000000  0.5447180000000  0.5464900000000 1.0
C      1  0.5920920000000  0.4964970000000  0.5407890000000 1.0
C      1  0.5788200000000  0.4475590000000  0.5414280000000 1.0
C      1  0.5375170000000  0.4097940000000  0.5471700000000 1.0
C      1  0.4704770000000  0.4024900000000  0.5545190000000 1.0
C      1  0.4314120000000  0.4347850000000  0.5520460000000 1.0
C      1  0.3939000000000  0.4901900000000  0.5514100000000 1.0
C      1  0.4021450000000  0.5406920000000  0.5469460000000 1.0
C      1  0.4340400000000  0.5986190000000  0.5523680000000 1.0
C      1  0.5053610000000  0.6011900000000  0.5592640000000 1.0
C      1  0.4088890000000  0.5616160000000  0.5267170000000 1.0
C      1  0.4677410000000  0.5886000000000  0.5361610000000 1.0
C      1  0.5188370000000  0.5680650000000  0.5444850000000 1.0
C      1  0.5642600000000  0.5658250000000  0.5305510000000 1.0
C      1  0.5747270000000  0.5196730000000  0.5341740000000 1.0
C      1  0.5705170000000  0.4754440000000  0.5336250000000 1.0
C      1  0.5576980000000  0.4263150000000  0.5295790000000 1.0
C      1  0.5089370000000  0.4158690000000  0.5367940000000 1.0
C      1  0.4521370000000  0.4190280000000  0.5368730000000 1.0
C      1  0.4265740000000  0.4622850000000  0.5415970000000 1.0
C      1  0.3884670000000  0.5160240000000  0.5383980000000 1.0
C      1  0.4219400000000  0.4657090000000  0.5853340000000 1.0
C      1  0.4219520000000  0.5153300000000  0.5825420000000 1.0
C      1  0.4249260000000  0.5636300000000  0.5823750000000 1.0
C      1  0.4695120000000  0.5694980000000  0.5631110000000 1.0
C      1  0.5160640000000  0.5694520000000  0.5886390000000 1.0
C      1  0.5632250000000  0.5594770000000  0.5902040000000 1.0
C      1  0.5867600000000  0.5170730000000  0.5853860000000 1.0
C      1  0.5919370000000  0.4696130000000  0.5810100000000 1.0
C      1  0.5480470000000  0.4445120000000  0.5769540000000 1.0
C      1  0.5097260000000  0.4140450000000  0.5829950000000 1.0
C      1  0.4642520000000  0.4353050000000  0.5901890000000 1.0
C      1  0.4854890000000  0.5609290000000  0.4692900000000 1.0
C      1  0.5150200000000  0.5563700000000  0.4687410000000 1.0
C      1  0.5414230000000  0.5305480000000  0.4627250000000 1.0
C      1  0.5604360000000  0.4970720000000  0.4595390000000 1.0
C      1  0.5602070000000  0.4664950000000  0.4606520000000 1.0
C      1  0.5246920000000  0.4505320000000  0.4593280000000 1.0
C      1  0.5006680000000  0.4328800000000  0.4623990000000 1.0
C      1  0.4752460000000  0.4471520000000  0.4642170000000 1.0
C      1  0.4369140000000  0.4813000000000  0.4626440000000 1.0
C      1  0.4250240000000  0.5071170000000  0.4706350000000 1.0
C      1  0.4429400000000  0.5321350000000  0.4670000000000 1.0
C      1  0.5646010000000  0.6021900000000  0.5047440000000 1.0
C      1  0.5988240000000  0.5449010000000  0.5079490000000 1.0
C      1  0.6128900000000  0.4753130000000  0.5083710000000 1.0
C      1  0.5989760000000  0.4234480000000  0.5045760000000 1.0
C      1  0.5636600000000  0.3920170000000  0.4958480000000 1.0
C      1  0.4731170000000  0.3875380000000  0.5107900000000 1.0
C      1  0.4230700000000  0.4199390000000  0.5028160000000 1.0
C      1  0.3917920000000  0.4832840000000  0.5040440000000 1.0
C      1  0.3873080000000  0.5347780000000  0.4934650000000 1.0
C      1  0.4298610000000  0.5986540000000  0.5031660000000 1.0
C      1  0.5100700000000  0.6075080000000  0.5131700000000 1.0
C      1  0.6046220000000  0.4477760000000  0.5223580000000 1.0
C      1  0.5762460000000  0.4073440000000  0.5154260000000 1.0
C      1  0.4892980000000  0.3917040000000  0.5354650000000 1.0
C      1  0.4382450000000  0.4006740000000  0.5188750000000 1.0
C      1  0.3972380000000  0.4686370000000  0.5312500000000 1.0
C      1  0.3787400000000  0.5116480000000  0.5104490000000 1.0
C      1  0.4242170000000  0.5863960000000  0.5282790000000 1.0
C      1  0.4915070000000  0.6065770000000  0.5356840000000 1.0
C      1  0.5405510000000  0.6064430000000  0.5238620000000 1.0
C      1  0.5841670000000  0.5802370000000  0.5139950000000 1.0
C      1  0.6113460000000  0.5120230000000  0.5135320000000 1.0
C      1  0.4696830000000  0.5331390000000  0.5669530000000 1.0
C      1  0.4960010000000  0.5262650000000  0.5581990000000 1.0
C      1  0.5208220000000  0.5389470000000  0.5568020000000 1.0
C      1  0.5405290000000  0.5305280000000  0.5793070000000 1.0
C      1  0.5533350000000  0.5005510000000  0.5766110000000 1.0
C      1  0.5454520000000  0.4842860000000  0.5499920000000 1.0
C      1  0.5336530000000  0.4570530000000  0.5534260000000 1.0
C      1  0.5031520000000  0.4472080000000  0.5557520000000 1.0
C      1  0.4807310000000  0.4668810000000  0.5467650000000 1.0
C      1  0.4560310000000  0.4779340000000  0.5627080000000 1.0
C      1  0.4490560000000  0.5081700000000  0.5559350000000 1.0
C      1  0.5963580000000  0.4949670000000  0.5703540000000 1.0
C      1  0.5785030000000  0.4471820000000  0.5716590000000 1.0
C      1  0.5370110000000  0.4163780000000  0.5754250000000 1.0
C      1  0.4819860000000  0.4158010000000  0.5773750000000 1.0
C      1  0.4366610000000  0.4418800000000  0.5796380000000 1.0
C      1  0.4129660000000  0.4898580000000  0.5733650000000 1.0
C      1  0.4121740000000  0.5407080000000  0.5738790000000 1.0
C      1  0.4439910000000  0.5814810000000  0.5731910000000 1.0
C      1  0.4932310000000  0.5830780000000  0.5769560000000 1.0
C      1  0.5437800000000  0.5777730000000  0.5795520000000 1.0
C      1  0.5816660000000  0.5436660000000  0.5751620000000 1.0
C      1  0.4958990000000  0.4978250000000  0.4910390000000 1.0
END
