TITL C-3578201-9217-716 -3.0205860392681e-06 125000 -324.525879084792 0 0 53 (C1) n - 1
REM
REM in /home/bkarasulu/work/CARBON/AIRSS/Generating-Clusters/EDIP-Nigel-Params/with-SteepDescent/Higher-Symm/SD-CG/HFTN-CG
REM
REM
REM
REM
REM
REM ./C.cell (12c818d87b63d06a65506943cc24bca4)
REM
REM compiler GCC version 9.2.1 20190827 (Red Hat 9.2.1-1)
REM options -cpp -mtune=generic -march=x86-64 -g -O0 -fpre-include=/usr/include/finclude/math-vector-fortran.h
REM seed 692041485 1804508921 -62310812 -76973955 -588473540 545402947 -1437911592 -1086974339 760781145 1155238430 435220288 264360389 1653988750 2046107800 -213798226 -1263739823 -1983550229 -328003843 304059825 -968955439 -503342490 -840490037 -800985641 1226692068 1635711115 1108597677 905682905 -1532206216 500299944 -821606446 545262955 -1521264753 206856028
REM
CELL 1.54180   50.00000   50.00000   50.00000   90.00000   90.00000   90.00000
LATT -1
SFAC C  
C      1  0.4613470000000  0.5366030000000  0.5265280000000 1.0
C      1  0.5587520000000  0.4980910000000  0.4882920000000 1.0
C      1  0.4956340000000  0.4862640000000  0.5822900000000 1.0
C      1  0.5340760000000  0.4817160000000  0.5496990000000 1.0
C      1  0.5567560000000  0.5256930000000  0.5382710000000 1.0
C      1  0.4828520000000  0.5307420000000  0.5063840000000 1.0
C      1  0.4493090000000  0.5087290000000  0.5277320000000 1.0
C      1  0.5384570000000  0.5106950000000  0.5534760000000 1.0
C      1  0.4558910000000  0.5298710000000  0.4587080000000 1.0
C      1  0.5100230000000  0.5193070000000  0.5492870000000 1.0
C      1  0.5034620000000  0.5687200000000  0.4620690000000 1.0
C      1  0.4493010000000  0.4981810000000  0.4980310000000 1.0
C      1  0.5633530000000  0.4807880000000  0.5101880000000 1.0
C      1  0.5484700000000  0.4663700000000  0.5295140000000 1.0
C      1  0.5412540000000  0.5357360000000  0.5168320000000 1.0
C      1  0.4864730000000  0.4306020000000  0.5057500000000 1.0
C      1  0.4700080000000  0.5282820000000  0.5733090000000 1.0
C      1  0.4968110000000  0.5245120000000  0.4334950000000 1.0
C      1  0.4941890000000  0.4451390000000  0.4804650000000 1.0
C      1  0.4942350000000  0.4499820000000  0.5496940000000 1.0
C      1  0.4746660000000  0.5467060000000  0.5515280000000 1.0
C      1  0.4686140000000  0.5138870000000  0.4364110000000 1.0
C      1  0.5196320000000  0.5562630000000  0.5208710000000 1.0
C      1  0.5529550000000  0.4865620000000  0.4630400000000 1.0
C      1  0.5232950000000  0.4445340000000  0.4705180000000 1.0
C      1  0.5248450000000  0.5230870000000  0.4693020000000 1.0
C      1  0.4794670000000  0.4864800000000  0.4486780000000 1.0
C      1  0.4685620000000  0.4608120000000  0.5387830000000 1.0
C      1  0.4925280000000  0.5114570000000  0.5714860000000 1.0
C      1  0.4581010000000  0.5578590000000  0.4570630000000 1.0
C      1  0.5282640000000  0.4671800000000  0.4909100000000 1.0
C      1  0.5099940000000  0.4711800000000  0.5632690000000 1.0
C      1  0.4749510000000  0.5786380000000  0.4651700000000 1.0
C      1  0.5049960000000  0.5395190000000  0.4576280000000 1.0
C      1  0.4593530000000  0.4659140000000  0.4626560000000 1.0
C      1  0.4693770000000  0.5163260000000  0.4828830000000 1.0
C      1  0.5006270000000  0.4819480000000  0.4964110000000 1.0
C      1  0.5064080000000  0.5495250000000  0.5472130000000 1.0
C      1  0.5315910000000  0.4833240000000  0.4441980000000 1.0
C      1  0.4996080000000  0.5549190000000  0.4986340000000 1.0
C      1  0.4991860000000  0.5069550000000  0.5210500000000 1.0
C      1  0.5074310000000  0.4342820000000  0.5276800000000 1.0
C      1  0.5409060000000  0.5201410000000  0.4924890000000 1.0
C      1  0.4735760000000  0.4894890000000  0.5282710000000 1.0
C      1  0.4630380000000  0.4483640000000  0.5123690000000 1.0
C      1  0.4826360000000  0.5787970000000  0.4934610000000 1.0
C      1  0.5345190000000  0.4429880000000  0.5193090000000 1.0
C      1  0.4766690000000  0.4433020000000  0.4556800000000 1.0
C      1  0.4938700000000  0.4999220000000  0.4728820000000 1.0
C      1  0.5159820000000  0.5033050000000  0.4309500000000 1.0
C      1  0.4585400000000  0.4700820000000  0.4917190000000 1.0
C      1  0.4937110000000  0.4543030000000  0.4344020000000 1.0
C      1  0.5214520000000  0.4559260000000  0.4430730000000 1.0
END
