TITL C-3578206-1180-692 -2.2567269855098e-06 125000 -1240.00129011283 0 0 196 (C1) n - 1
REM
REM in /home/bkarasulu/work/CARBON/AIRSS/Generating-Clusters/EDIP-Nigel-Params/with-SteepDescent/Higher-Symm/SD-CG/HFTN-CG
REM
REM
REM
REM
REM
REM ./C.cell (12c818d87b63d06a65506943cc24bca4)
REM
REM compiler GCC version 9.2.1 20190827 (Red Hat 9.2.1-1)
REM options -cpp -mtune=generic -march=x86-64 -g -O0 -fpre-include=/usr/include/finclude/math-vector-fortran.h
REM seed 1217113676 517861768 740278796 -634422250 1254719404 709606122 -937272514 -1328723070 -101334348 -35097864 60065029 -2073031312 1817397288 574835122 1534510489 1231446106 -951110756 1758751480 -679146296 -347197704 -903410324 -869253817 -198064824 -1469590345 -1751589879 1372556274 2001553816 1587121242 -1901362413 -9505426 423217712 -1755280629 1648207605
REM
CELL 1.54180   50.00000   50.00000   50.00000   90.00000   90.00000   90.00000
LATT -1
SFAC C  
C      1  0.5304780000000  0.4326830000000  0.5894210000000 1.0
C      1  0.5310040000000  0.5675260000000  0.4108130000000 1.0
C      1  0.4690950000000  0.4325160000000  0.4106820000000 1.0
C      1  0.4696980000000  0.5677260000000  0.5893680000000 1.0
C      1  0.5312610000000  0.5891160000000  0.4311580000000 1.0
C      1  0.5305660000000  0.4115080000000  0.5687740000000 1.0
C      1  0.4691400000000  0.4108880000000  0.4310220000000 1.0
C      1  0.4693790000000  0.5888570000000  0.5686390000000 1.0
C      1  0.4086530000000  0.4355250000000  0.4558500000000 1.0
C      1  0.4088740000000  0.5619690000000  0.5439740000000 1.0
C      1  0.5915890000000  0.4370540000000  0.5442530000000 1.0
C      1  0.5918100000000  0.5630520000000  0.4559220000000 1.0
C      1  0.4081590000000  0.4561090000000  0.4354490000000 1.0
C      1  0.4095100000000  0.5413830000000  0.5645890000000 1.0
C      1  0.5910960000000  0.5420640000000  0.4357110000000 1.0
C      1  0.5910200000000  0.4579590000000  0.5645870000000 1.0
C      1  0.4334090000000  0.4438910000000  0.5851340000000 1.0
C      1  0.4338100000000  0.5608290000000  0.4163940000000 1.0
C      1  0.5655980000000  0.4436680000000  0.4145640000000 1.0
C      1  0.5670630000000  0.5572990000000  0.5859230000000 1.0
C      1  0.4348070000000  0.5862870000000  0.4317610000000 1.0
C      1  0.4346890000000  0.4172500000000  0.5584860000000 1.0
C      1  0.5650360000000  0.4168220000000  0.4411240000000 1.0
C      1  0.5655030000000  0.5837000000000  0.5587340000000 1.0
C      1  0.5665870000000  0.5597780000000  0.5413700000000 1.0
C      1  0.5662390000000  0.4403730000000  0.4590270000000 1.0
C      1  0.4349550000000  0.5606810000000  0.4605140000000 1.0
C      1  0.4339560000000  0.4407580000000  0.5404720000000 1.0
C      1  0.5677920000000  0.5384050000000  0.5633400000000 1.0
C      1  0.5670850000000  0.4621230000000  0.4375760000000 1.0
C      1  0.4309940000000  0.4621700000000  0.5620530000000 1.0
C      1  0.4339700000000  0.5398280000000  0.4379430000000 1.0
C      1  0.5409660000000  0.4031970000000  0.4472010000000 1.0
C      1  0.5413460000000  0.5971830000000  0.5526960000000 1.0
C      1  0.4586010000000  0.4029960000000  0.5529930000000 1.0
C      1  0.4586720000000  0.5941880000000  0.4459280000000 1.0
C      1  0.5405570000000  0.4490440000000  0.4019610000000 1.0
C      1  0.5417270000000  0.5509540000000  0.5972850000000 1.0
C      1  0.4586150000000  0.5528700000000  0.4030290000000 1.0
C      1  0.4584820000000  0.4491420000000  0.5982340000000 1.0
C      1  0.5701070000000  0.5212970000000  0.4425850000000 1.0
C      1  0.5703070000000  0.4790190000000  0.5577230000000 1.0
C      1  0.4304810000000  0.5205830000000  0.5578660000000 1.0
C      1  0.4284270000000  0.4776330000000  0.4416850000000 1.0
C      1  0.5719130000000  0.4429600000000  0.5221020000000 1.0
C      1  0.5719860000000  0.5573460000000  0.4779760000000 1.0
C      1  0.4287800000000  0.5562580000000  0.5219360000000 1.0
C      1  0.4291060000000  0.4421100000000  0.4771020000000 1.0
C      1  0.4574670000000  0.3961130000000  0.4753970000000 1.0
C      1  0.4575300000000  0.6021620000000  0.5239950000000 1.0
C      1  0.5424880000000  0.3979080000000  0.5243620000000 1.0
C      1  0.5431450000000  0.6030700000000  0.4755440000000 1.0
C      1  0.4562770000000  0.4759330000000  0.3945650000000 1.0
C      1  0.4575140000000  0.5247290000000  0.6064700000000 1.0
C      1  0.5425670000000  0.5241260000000  0.3949760000000 1.0
C      1  0.5430760000000  0.4758340000000  0.6060740000000 1.0
C      1  0.5978730000000  0.4659110000000  0.4875290000000 1.0
C      1  0.5977200000000  0.5343080000000  0.5126190000000 1.0
C      1  0.4042420000000  0.4658590000000  0.5112090000000 1.0
C      1  0.4035220000000  0.5335210000000  0.4869270000000 1.0
C      1  0.5977610000000  0.4874950000000  0.4663210000000 1.0
C      1  0.5978860000000  0.5128130000000  0.5339160000000 1.0
C      1  0.4031310000000  0.5124580000000  0.4651210000000 1.0
C      1  0.4031510000000  0.4869180000000  0.5325010000000 1.0
C      1  0.5423260000000  0.4459090000000  0.5323130000000 1.0
C      1  0.5425620000000  0.5550960000000  0.4674100000000 1.0
C      1  0.4579450000000  0.4447250000000  0.4662100000000 1.0
C      1  0.4579860000000  0.5543350000000  0.5328450000000 1.0
C      1  0.5418440000000  0.5340480000000  0.4466530000000 1.0
C      1  0.5420900000000  0.4666600000000  0.5533720000000 1.0
C      1  0.4574640000000  0.4661650000000  0.4456420000000 1.0
C      1  0.4583010000000  0.5335800000000  0.5538770000000 1.0
C      1  0.5545260000000  0.5966510000000  0.5019020000000 1.0
C      1  0.5541730000000  0.4039250000000  0.4980890000000 1.0
C      1  0.4455250000000  0.5956620000000  0.4979140000000 1.0
C      1  0.4457510000000  0.4023840000000  0.5017440000000 1.0
C      1  0.5555690000000  0.5018040000000  0.6012180000000 1.0
C      1  0.5545340000000  0.4981370000000  0.3998790000000 1.0
C      1  0.4450200000000  0.4986580000000  0.6020190000000 1.0
C      1  0.4443180000000  0.5020200000000  0.4010490000000 1.0
C      1  0.5208960000000  0.5705370000000  0.5133500000000 1.0
C      1  0.5204130000000  0.4299540000000  0.4867180000000 1.0
C      1  0.4800630000000  0.5704540000000  0.4873430000000 1.0
C      1  0.4793810000000  0.4284800000000  0.5129210000000 1.0
C      1  0.5197180000000  0.5059830000000  0.5761210000000 1.0
C      1  0.5189740000000  0.4938470000000  0.4254800000000 1.0
C      1  0.4805260000000  0.4942250000000  0.5765810000000 1.0
C      1  0.4797930000000  0.5094770000000  0.4262250000000 1.0
C      1  0.4098590000000  0.5223680000000  0.4371490000000 1.0
C      1  0.4044430000000  0.4751520000000  0.5593540000000 1.0
C      1  0.5937600000000  0.5233000000000  0.5616800000000 1.0
C      1  0.5932110000000  0.4769010000000  0.4387310000000 1.0
C      1  0.4112740000000  0.4384430000000  0.5216320000000 1.0
C      1  0.4107110000000  0.5614750000000  0.4775190000000 1.0
C      1  0.5897480000000  0.5618260000000  0.5227550000000 1.0
C      1  0.5896830000000  0.4383810000000  0.4773590000000 1.0
C      1  0.5412750000000  0.5508310000000  0.5261230000000 1.0
C      1  0.5409890000000  0.4494800000000  0.4742200000000 1.0
C      1  0.4602030000000  0.5497710000000  0.4752160000000 1.0
C      1  0.4593690000000  0.4487540000000  0.5249790000000 1.0
C      1  0.5303510000000  0.5215520000000  0.5470090000000 1.0
C      1  0.5290000000000  0.4780270000000  0.4539950000000 1.0
C      1  0.4693400000000  0.4790000000000  0.5481920000000 1.0
C      1  0.4600870000000  0.5229870000000  0.4471680000000 1.0
C      1  0.5358360000000  0.4767480000000  0.3955820000000 1.0
C      1  0.5372830000000  0.5236020000000  0.6054000000000 1.0
C      1  0.4633780000000  0.4767070000000  0.6060580000000 1.0
C      1  0.4613760000000  0.5249050000000  0.3958750000000 1.0
C      1  0.5372600000000  0.3972270000000  0.4753360000000 1.0
C      1  0.5375960000000  0.6033500000000  0.5246170000000 1.0
C      1  0.4609790000000  0.6013970000000  0.4740140000000 1.0
C      1  0.4623720000000  0.3961390000000  0.5249610000000 1.0
C      1  0.5138280000000  0.5230280000000  0.4380650000000 1.0
C      1  0.5151640000000  0.4767920000000  0.5640000000000 1.0
C      1  0.4852950000000  0.5231330000000  0.5639800000000 1.0
C      1  0.4841390000000  0.4793360000000  0.4365400000000 1.0
C      1  0.5151020000000  0.4405320000000  0.5164420000000 1.0
C      1  0.5155050000000  0.5591030000000  0.4837570000000 1.0
C      1  0.4853280000000  0.5595950000000  0.5172320000000 1.0
C      1  0.4848250000000  0.4390150000000  0.4825760000000 1.0
C      1  0.4816360000000  0.4351930000000  0.5874020000000 1.0
C      1  0.4827020000000  0.5654150000000  0.4129180000000 1.0
C      1  0.5174970000000  0.4353790000000  0.4130200000000 1.0
C      1  0.5185300000000  0.5650870000000  0.5870410000000 1.0
C      1  0.4829330000000  0.5864440000000  0.4332710000000 1.0
C      1  0.4818280000000  0.4144630000000  0.5659930000000 1.0
C      1  0.5177030000000  0.4142480000000  0.4339600000000 1.0
C      1  0.5181620000000  0.5858620000000  0.5657870000000 1.0
C      1  0.5808710000000  0.5849870000000  0.4397700000000 1.0
C      1  0.5802240000000  0.4152140000000  0.5602640000000 1.0
C      1  0.4197120000000  0.5842580000000  0.5598120000000 1.0
C      1  0.4195590000000  0.4135550000000  0.4397470000000 1.0
C      1  0.5800200000000  0.4420320000000  0.5866950000000 1.0
C      1  0.5804640000000  0.5578940000000  0.4134320000000 1.0
C      1  0.4200970000000  0.5577670000000  0.5866050000000 1.0
C      1  0.4192890000000  0.4404760000000  0.4131800000000 1.0
C      1  0.4264040000000  0.5068730000000  0.5305320000000 1.0
C      1  0.4255550000000  0.4917100000000  0.4688120000000 1.0
C      1  0.5745070000000  0.5077070000000  0.4696550000000 1.0
C      1  0.5747600000000  0.4925900000000  0.5306060000000 1.0
C      1  0.4259200000000  0.5290510000000  0.5079390000000 1.0
C      1  0.4263940000000  0.4694570000000  0.4906240000000 1.0
C      1  0.5755730000000  0.4700620000000  0.5083200000000 1.0
C      1  0.5753030000000  0.5302330000000  0.4918560000000 1.0
C      1  0.4527560000000  0.4926550000000  0.5266300000000 1.0
C      1  0.4519810000000  0.5063200000000  0.4715140000000 1.0
C      1  0.5480670000000  0.4933200000000  0.4736750000000 1.0
C      1  0.5483580000000  0.5069220000000  0.5266180000000 1.0
C      1  0.4525340000000  0.5262120000000  0.4930750000000 1.0
C      1  0.4543300000000  0.4724990000000  0.5053170000000 1.0
C      1  0.5494460000000  0.4720320000000  0.4931410000000 1.0
C      1  0.5490470000000  0.5281680000000  0.5070150000000 1.0
C      1  0.5139280000000  0.6045530000000  0.4743690000000 1.0
C      1  0.5133140000000  0.3969680000000  0.5253020000000 1.0
C      1  0.4867290000000  0.6033500000000  0.5252150000000 1.0
C      1  0.4866910000000  0.3954640000000  0.4742410000000 1.0
C      1  0.5136470000000  0.4755470000000  0.6077580000000 1.0
C      1  0.5132560000000  0.5247690000000  0.3940960000000 1.0
C      1  0.4869400000000  0.5251030000000  0.6077150000000 1.0
C      1  0.4856890000000  0.4751770000000  0.3929560000000 1.0
C      1  0.5051340000000  0.4686970000000  0.5125270000000 1.0
C      1  0.5088790000000  0.5300720000000  0.4887110000000 1.0
C      1  0.4861810000000  0.4696340000000  0.4897460000000 1.0
C      1  0.4919930000000  0.5304170000000  0.5123760000000 1.0
C      1  0.4997790000000  0.5158880000000  0.4649970000000 1.0
C      1  0.4984070000000  0.4837290000000  0.5374850000000 1.0
C      1  0.4988970000000  0.4854220000000  0.4641480000000 1.0
C      1  0.5011140000000  0.5155690000000  0.5370370000000 1.0
C      1  0.4461900000000  0.4499420000000  0.4060270000000 1.0
C      1  0.4473080000000  0.5496420000000  0.5937030000000 1.0
C      1  0.5529080000000  0.4507710000000  0.5933150000000 1.0
C      1  0.5532950000000  0.5493660000000  0.4067040000000 1.0
C      1  0.4464690000000  0.4057580000000  0.4488140000000 1.0
C      1  0.4464970000000  0.5930530000000  0.5507680000000 1.0
C      1  0.5541180000000  0.5935120000000  0.4489180000000 1.0
C      1  0.5533500000000  0.4073770000000  0.5509290000000 1.0
C      1  0.5768360000000  0.4231770000000  0.5001560000000 1.0
C      1  0.5769910000000  0.5771150000000  0.4999210000000 1.0
C      1  0.4242110000000  0.4228320000000  0.4993680000000 1.0
C      1  0.4231890000000  0.5763620000000  0.5004410000000 1.0
C      1  0.5740770000000  0.4980230000000  0.4230260000000 1.0
C      1  0.5743910000000  0.5022390000000  0.5773880000000 1.0
C      1  0.4231270000000  0.4996590000000  0.4219100000000 1.0
C      1  0.4272690000000  0.4978370000000  0.5779450000000 1.0
C      1  0.4936800000000  0.5519680000000  0.5944550000000 1.0
C      1  0.4926960000000  0.4486880000000  0.4061500000000 1.0
C      1  0.5070790000000  0.5519990000000  0.4057200000000 1.0
C      1  0.5065910000000  0.4486280000000  0.5944390000000 1.0
C      1  0.4934360000000  0.5946880000000  0.5535590000000 1.0
C      1  0.4931450000000  0.4052910000000  0.4462130000000 1.0
C      1  0.5065170000000  0.4056490000000  0.5536900000000 1.0
C      1  0.5072880000000  0.5944180000000  0.4465200000000 1.0
C      1  0.4990130000000  0.5003840000000  0.3877580000000 1.0
C      1  0.5002260000000  0.3927870000000  0.4997520000000 1.0
C      1  0.5005470000000  0.6067500000000  0.4999910000000 1.0
C      1  0.5003010000000  0.5003300000000  0.6146730000000 1.0
END
