TITL C-3578197-9521-604 -1.47080031039388e-06 125000 -492.079337907776 0 0 83 (C1) n - 1
REM
REM in /home/bkarasulu/work/CARBON/AIRSS/Generating-Clusters/EDIP-Nigel-Params/with-SteepDescent/Higher-Symm/SD-CG/HFTN-CG
REM
REM
REM
REM
REM
REM ./C.cell (12c818d87b63d06a65506943cc24bca4)
REM
REM compiler GCC version 9.2.1 20190827 (Red Hat 9.2.1-1)
REM options -cpp -mtune=generic -march=x86-64 -g -O0 -fpre-include=/usr/include/finclude/math-vector-fortran.h
REM seed 1763288911 1104053253 485580107 -86606290 1174424433 -669587513 -1255264733 -330960344 -1289303191 -1601956284 316508574 -1923947856 1869885592 -755625972 -563045319 428866500 -1281839510 732523271 145880125 1261246704 1126726243 -1698575949 444164214 -1221289157 -214123595 1088073067 -246861277 -1718634447 -2139559501 518166870 -591053138 60044626 -1018122333
REM
CELL 1.54180   50.00000   50.00000   50.00000   90.00000   90.00000   90.00000
LATT -1
SFAC C  
C      1  0.4462180000000  0.5644290000000  0.4445490000000 1.0
C      1  0.5528230000000  0.4382890000000  0.4453670000000 1.0
C      1  0.4450690000000  0.5616760000000  0.5521980000000 1.0
C      1  0.5547340000000  0.4369520000000  0.5534500000000 1.0
C      1  0.4429170000000  0.4327680000000  0.4472640000000 1.0
C      1  0.5563190000000  0.5669140000000  0.4467490000000 1.0
C      1  0.4447420000000  0.4333760000000  0.5558880000000 1.0
C      1  0.5554140000000  0.5666940000000  0.5549740000000 1.0
C      1  0.4414240000000  0.4629500000000  0.4856120000000 1.0
C      1  0.5555660000000  0.5370350000000  0.4853970000000 1.0
C      1  0.4418380000000  0.4632090000000  0.5172620000000 1.0
C      1  0.5559760000000  0.5366550000000  0.5163190000000 1.0
C      1  0.4481340000000  0.5328270000000  0.4822620000000 1.0
C      1  0.5536690000000  0.4683920000000  0.4839780000000 1.0
C      1  0.4491780000000  0.5325080000000  0.5130150000000 1.0
C      1  0.5543480000000  0.4679560000000  0.5155440000000 1.0
C      1  0.5488330000000  0.5098760000000  0.5670250000000 1.0
C      1  0.4542190000000  0.4861010000000  0.5694480000000 1.0
C      1  0.5478170000000  0.5080600000000  0.4337160000000 1.0
C      1  0.4532370000000  0.4924560000000  0.4332470000000 1.0
C      1  0.5443530000000  0.4819720000000  0.5704100000000 1.0
C      1  0.4560680000000  0.5139430000000  0.5644480000000 1.0
C      1  0.5387130000000  0.4814890000000  0.4288780000000 1.0
C      1  0.4620920000000  0.5187430000000  0.4272440000000 1.0
C      1  0.5280110000000  0.5651910000000  0.5588850000000 1.0
C      1  0.4722070000000  0.4349620000000  0.5584870000000 1.0
C      1  0.5290100000000  0.5655060000000  0.4433270000000 1.0
C      1  0.4702990000000  0.4341720000000  0.4440390000000 1.0
C      1  0.5272910000000  0.4377610000000  0.5569600000000 1.0
C      1  0.4724340000000  0.5616140000000  0.5563580000000 1.0
C      1  0.5252300000000  0.4390740000000  0.4429680000000 1.0
C      1  0.4737890000000  0.5639180000000  0.4405560000000 1.0
C      1  0.4412930000000  0.5600980000000  0.5242240000000 1.0
C      1  0.5598530000000  0.4395000000000  0.5257590000000 1.0
C      1  0.4405710000000  0.5612890000000  0.4722310000000 1.0
C      1  0.5588830000000  0.4401930000000  0.4729230000000 1.0
C      1  0.4374610000000  0.4349490000000  0.5286190000000 1.0
C      1  0.5613800000000  0.5649140000000  0.5273610000000 1.0
C      1  0.4368370000000  0.4345560000000  0.4747620000000 1.0
C      1  0.5609170000000  0.5652830000000  0.4745190000000 1.0
C      1  0.4822340000000  0.4402220000000  0.5314400000000 1.0
C      1  0.5172430000000  0.5600860000000  0.5319830000000 1.0
C      1  0.4814330000000  0.4398940000000  0.4705980000000 1.0
C      1  0.5167430000000  0.5604970000000  0.4694780000000 1.0
C      1  0.4854210000000  0.5586030000000  0.5302000000000 1.0
C      1  0.5155130000000  0.4433210000000  0.5306980000000 1.0
C      1  0.4847930000000  0.5582130000000  0.4674010000000 1.0
C      1  0.5144190000000  0.4439050000000  0.4698030000000 1.0
C      1  0.5723390000000  0.5160490000000  0.4749780000000 1.0
C      1  0.4257710000000  0.4848280000000  0.4751130000000 1.0
C      1  0.5730340000000  0.5154550000000  0.5258050000000 1.0
C      1  0.4262350000000  0.4852500000000  0.5270970000000 1.0
C      1  0.5709000000000  0.4891480000000  0.4739980000000 1.0
C      1  0.4308650000000  0.5113710000000  0.4732200000000 1.0
C      1  0.5718310000000  0.4885260000000  0.5255110000000 1.0
C      1  0.4324310000000  0.5113040000000  0.5233830000000 1.0
C      1  0.5248860000000  0.4728610000000  0.5249440000000 1.0
C      1  0.4797600000000  0.5294340000000  0.5216370000000 1.0
C      1  0.5236480000000  0.4735460000000  0.4759250000000 1.0
C      1  0.4769870000000  0.5294760000000  0.4732490000000 1.0
C      1  0.5267350000000  0.5314730000000  0.5252320000000 1.0
C      1  0.4712120000000  0.4681210000000  0.5252740000000 1.0
C      1  0.5261860000000  0.5321640000000  0.4768460000000 1.0
C      1  0.4704950000000  0.4676680000000  0.4771280000000 1.0
C      1  0.5365190000000  0.5784990000000  0.5157190000000 1.0
C      1  0.4620830000000  0.4217080000000  0.5162240000000 1.0
C      1  0.5363110000000  0.5788400000000  0.4862430000000 1.0
C      1  0.4617150000000  0.4214680000000  0.4867070000000 1.0
C      1  0.5352410000000  0.4258750000000  0.5143600000000 1.0
C      1  0.4649260000000  0.5757120000000  0.5134240000000 1.0
C      1  0.5347510000000  0.4262210000000  0.4849450000000 1.0
C      1  0.4649010000000  0.5759770000000  0.4839380000000 1.0
C      1  0.5211510000000  0.4865020000000  0.5523510000000 1.0
C      1  0.4805490000000  0.5147820000000  0.5475300000000 1.0
C      1  0.5180090000000  0.4882380000000  0.4493410000000 1.0
C      1  0.4821290000000  0.5130280000000  0.4486890000000 1.0
C      1  0.5248380000000  0.5167790000000  0.5509020000000 1.0
C      1  0.4774260000000  0.4840670000000  0.5512090000000 1.0
C      1  0.5256130000000  0.5176670000000  0.4509740000000 1.0
C      1  0.4742240000000  0.4833550000000  0.4519790000000 1.0
C      1  0.5104250000000  0.4868810000000  0.5009150000000 1.0
C      1  0.4831390000000  0.4785960000000  0.5010210000000 1.0
C      1  0.5093890000000  0.5189790000000  0.5015410000000 1.0
END
