TITL C-3578203-1966-510 4.18395250717522e-08 125000 -128.275507375836 0 0 22 (C1) n - 1
REM
REM in /home/bkarasulu/work/CARBON/AIRSS/Generating-Clusters/EDIP-Nigel-Params/with-SteepDescent/Higher-Symm/SD-CG/HFTN-CG
REM
REM
REM
REM
REM
REM ./C.cell (12c818d87b63d06a65506943cc24bca4)
REM
REM compiler GCC version 9.2.1 20190827 (Red Hat 9.2.1-1)
REM options -cpp -mtune=generic -march=x86-64 -g -O0 -fpre-include=/usr/include/finclude/math-vector-fortran.h
REM seed -1898958501 1235813127 2037943348 -2077965645 -1324937062 1526595455 -911044938 955086260 -483900622 -1401554060 1849043287 -995148882 1343923399 575495373 -1879479492 1707248726 1988686785 1914762261 -2034435421 170894448 462794301 -1528343721 -1230393181 1189236409 1843617447 -166272441 1193123273 1720229787 -1078435228 522264699 776018754 -348140914 -2132131451
REM
CELL 1.54180   50.00000   50.00000   50.00000   90.00000   90.00000   90.00000
LATT -1
SFAC C  
C      1  0.4710660000000  0.5250580000000  0.5238010000000 1.0
C      1  0.4749560000000  0.4644420000000  0.5267720000000 1.0
C      1  0.4689410000000  0.4779780000000  0.4757550000000 1.0
C      1  0.4738190000000  0.5268720000000  0.4721620000000 1.0
C      1  0.5207560000000  0.5222470000000  0.5263870000000 1.0
C      1  0.5219270000000  0.4675060000000  0.5257920000000 1.0
C      1  0.5168440000000  0.4735840000000  0.4693190000000 1.0
C      1  0.5202540000000  0.5270140000000  0.4719310000000 1.0
C      1  0.4437310000000  0.4904140000000  0.4803890000000 1.0
C      1  0.4477040000000  0.5210850000000  0.4804850000000 1.0
C      1  0.4455440000000  0.5212890000000  0.5117640000000 1.0
C      1  0.4500740000000  0.4737460000000  0.5266670000000 1.0
C      1  0.5407290000000  0.4810840000000  0.4799850000000 1.0
C      1  0.5465790000000  0.5276430000000  0.4785060000000 1.0
C      1  0.5435130000000  0.5060080000000  0.5217350000000 1.0
C      1  0.5435920000000  0.4808980000000  0.5346210000000 1.0
C      1  0.4970790000000  0.5165410000000  0.4853170000000 1.0
C      1  0.4967060000000  0.5264740000000  0.5129560000000 1.0
C      1  0.4977170000000  0.4707660000000  0.5128700000000 1.0
C      1  0.4954380000000  0.4841450000000  0.4857720000000 1.0
C      1  0.4354620000000  0.4914220000000  0.5107180000000 1.0
C      1  0.5512930000000  0.5038230000000  0.4930420000000 1.0
END
