TITL C-3577089-586-37 10.7746712805517 125000 -214.678674741887 0 0 37 (C1) n - 1
REM
REM in /home/bkarasulu/work/CARBON/AIRSS/Generating-Clusters/EDIP-Nigel-Params/with-SteepDescent/Higher-Symm/SD-CG/HFTN-CG
REM
REM
REM
REM
REM
REM ./C.cell (12c818d87b63d06a65506943cc24bca4)
REM
REM compiler GCC version 9.2.1 20190827 (Red Hat 9.2.1-1)
REM options -cpp -mtune=generic -march=x86-64 -g -O0 -fpre-include=/usr/include/finclude/math-vector-fortran.h
REM seed 864139796 -394685944 -109377238 -1355324544 251946080 491198473 741053569 -637482476 -913161120 -663203372 -258513593 -1284670065 -1914610148 575040831 -1575457845 1670436382 -2015636036 1685707052 1838222553 -149341267 1600099548 -2128416871 -1621976411 1211593878 -113238416 1650235054 2039441203 -1340832301 668711022 899366289 1728088919 1295906612 -480193955
REM
CELL 1.54180   50.00000   50.00000   50.00000   90.00000   90.00000   90.00000
LATT -1
SFAC C  
C      1  0.4688980000000  0.4920850000000  0.3666140000000 1.0
C      1  0.4601590000000  0.4996290000000  0.3904590000000 1.0
C      1  0.4641620000000  0.5019820000000  0.4165200000000 1.0
C      1  0.4785380000000  0.4992010000000  0.4385930000000 1.0
C      1  0.5002110000000  0.4921760000000  0.4538360000000 1.0
C      1  0.5220960000000  0.4807880000000  0.4418850000000 1.0
C      1  0.5367970000000  0.4712780000000  0.4220100000000 1.0
C      1  0.5412000000000  0.4653710000000  0.3965850000000 1.0
C      1  0.5328410000000  0.4650560000000  0.3714470000000 1.0
C      1  0.5131700000000  0.4709720000000  0.3546890000000 1.0
C      1  0.4888060000000  0.4812720000000  0.3528480000000 1.0
C      1  0.4695740000000  0.5455830000000  0.5365900000000 1.0
C      1  0.4930590000000  0.5608370000000  0.5411300000000 1.0
C      1  0.5160570000000  0.5550710000000  0.5259010000000 1.0
C      1  0.5401850000000  0.5414020000000  0.5293400000000 1.0
C      1  0.5490770000000  0.4837090000000  0.5338120000000 1.0
C      1  0.5297230000000  0.4635440000000  0.5328490000000 1.0
C      1  0.5091430000000  0.4534020000000  0.5492810000000 1.0
C      1  0.4822850000000  0.4602040000000  0.5431240000000 1.0
C      1  0.4616900000000  0.4755320000000  0.5551290000000 1.0
C      1  0.4524050000000  0.4996730000000  0.5435730000000 1.0
C      1  0.4540760000000  0.5269040000000  0.5512020000000 1.0
C      1  0.5216190000000  0.5351600000000  0.5631450000000 1.0
C      1  0.5532020000000  0.5309680000000  0.5536470000000 1.0
C      1  0.5577380000000  0.5010380000000  0.5559860000000 1.0
C      1  0.5285120000000  0.4892010000000  0.5667020000000 1.0
C      1  0.5149080000000  0.4628220000000  0.5765460000000 1.0
C      1  0.4909430000000  0.4665690000000  0.5909610000000 1.0
C      1  0.4666830000000  0.4787560000000  0.5836960000000 1.0
C      1  0.4602120000000  0.5045880000000  0.5927300000000 1.0
C      1  0.4591190000000  0.5295440000000  0.5798170000000 1.0
C      1  0.4785940000000  0.5492060000000  0.5846980000000 1.0
C      1  0.5007300000000  0.5575980000000  0.5693450000000 1.0
C      1  0.5009740000000  0.5001750000000  0.5070590000000 1.0
C      1  0.4983210000000  0.5057460000000  0.5332280000000 1.0
C      1  0.5083270000000  0.5092370000000  0.5593260000000 1.0
C      1  0.5000010000000  0.4965140000000  0.4808510000000 1.0
END
