TITL C-3578199-7832-555 -7.63466776410905e-07 125000 -1023.86914662829 0 0 162 (C1) n - 1
REM
REM in /home/bkarasulu/work/CARBON/AIRSS/Generating-Clusters/EDIP-Nigel-Params/with-SteepDescent/Higher-Symm/SD-CG/HFTN-CG
REM
REM
REM
REM
REM
REM ./C.cell (12c818d87b63d06a65506943cc24bca4)
REM
REM compiler GCC version 9.2.1 20190827 (Red Hat 9.2.1-1)
REM options -cpp -mtune=generic -march=x86-64 -g -O0 -fpre-include=/usr/include/finclude/math-vector-fortran.h
REM seed -1217246177 -1337152630 1903966001 882701514 -399059479 962068067 -1816252413 235057407 218759341 -1262833989 -1059986021 679492543 -1907438544 -127055711 1758467200 -1084600555 97359765 1649557487 -1446862607 -1163732093 543990377 -1542283686 -2073320373 -1207951748 614398586 1865519656 628963556 986134433 2043301437 -219420062 -814001642 -1949293809 -1022542455
REM
CELL 1.54180   50.00000   50.00000   50.00000   90.00000   90.00000   90.00000
LATT -1
SFAC C  
C      1  0.5184820000000  0.5154610000000  0.4076080000000 1.0
C      1  0.5174730000000  0.4155810000000  0.4568580000000 1.0
C      1  0.5227290000000  0.4301360000000  0.5639970000000 1.0
C      1  0.5165340000000  0.5409320000000  0.5855980000000 1.0
C      1  0.5167730000000  0.5951090000000  0.4892890000000 1.0
C      1  0.5803140000000  0.5176770000000  0.5665610000000 1.0
C      1  0.5716150000000  0.5684980000000  0.5259090000000 1.0
C      1  0.5828530000000  0.5314050000000  0.4333670000000 1.0
C      1  0.5813770000000  0.4432110000000  0.4478240000000 1.0
C      1  0.5870840000000  0.4345330000000  0.5327460000000 1.0
C      1  0.4928670000000  0.5107370000000  0.4763730000000 1.0
C      1  0.4847060000000  0.4835650000000  0.4849330000000 1.0
C      1  0.4935350000000  0.4766740000000  0.5117920000000 1.0
C      1  0.4965640000000  0.5035160000000  0.5258240000000 1.0
C      1  0.4933840000000  0.5242690000000  0.5035070000000 1.0
C      1  0.4692510000000  0.5466320000000  0.5793330000000 1.0
C      1  0.4694030000000  0.5895650000000  0.4796640000000 1.0
C      1  0.4712100000000  0.5108460000000  0.4069990000000 1.0
C      1  0.4700340000000  0.4151720000000  0.4637320000000 1.0
C      1  0.4747880000000  0.4408930000000  0.5735620000000 1.0
C      1  0.5599120000000  0.4999160000000  0.4071330000000 1.0
C      1  0.5584790000000  0.4092600000000  0.4717850000000 1.0
C      1  0.5634280000000  0.4477980000000  0.5736900000000 1.0
C      1  0.5569990000000  0.5586070000000  0.5765830000000 1.0
C      1  0.5601160000000  0.5849540000000  0.4784060000000 1.0
C      1  0.5561250000000  0.5583240000000  0.4632280000000 1.0
C      1  0.5553970000000  0.4800940000000  0.4307330000000 1.0
C      1  0.5561580000000  0.4274500000000  0.4965520000000 1.0
C      1  0.5589050000000  0.4771680000000  0.5660820000000 1.0
C      1  0.5511140000000  0.5647620000000  0.5469920000000 1.0
C      1  0.5622790000000  0.5307480000000  0.5837320000000 1.0
C      1  0.5596330000000  0.5873090000000  0.5071690000000 1.0
C      1  0.5645260000000  0.5285350000000  0.4126670000000 1.0
C      1  0.5633010000000  0.4220860000000  0.4454570000000 1.0
C      1  0.5678380000000  0.4288330000000  0.5520290000000 1.0
C      1  0.4972470000000  0.4944210000000  0.5813160000000 1.0
C      1  0.4888700000000  0.5760760000000  0.5293650000000 1.0
C      1  0.4957110000000  0.5550340000000  0.4334530000000 1.0
C      1  0.4945920000000  0.4520290000000  0.4270500000000 1.0
C      1  0.4970930000000  0.4196000000000  0.5212100000000 1.0
C      1  0.5344650000000  0.5211890000000  0.4878150000000 1.0
C      1  0.5340360000000  0.4947910000000  0.4759340000000 1.0
C      1  0.5357350000000  0.4768520000000  0.4976600000000 1.0
C      1  0.5390340000000  0.4922910000000  0.5220230000000 1.0
C      1  0.5442060000000  0.5222080000000  0.5162430000000 1.0
C      1  0.5109750000000  0.5001580000000  0.6206530000000 1.0
C      1  0.5039300000000  0.6174780000000  0.5352770000000 1.0
C      1  0.5243990000000  0.5590190000000  0.3936270000000 1.0
C      1  0.5205940000000  0.4133000000000  0.4102140000000 1.0
C      1  0.4867330000000  0.3813640000000  0.5294290000000 1.0
C      1  0.4452590000000  0.4981910000000  0.5886490000000 1.0
C      1  0.4411100000000  0.5835410000000  0.5309030000000 1.0
C      1  0.4399350000000  0.5566830000000  0.4303600000000 1.0
C      1  0.4442530000000  0.4552410000000  0.4295490000000 1.0
C      1  0.4428880000000  0.4173840000000  0.5264150000000 1.0
C      1  0.5399360000000  0.5471310000000  0.4152740000000 1.0
C      1  0.5387400000000  0.4288820000000  0.4271360000000 1.0
C      1  0.5427600000000  0.4150150000000  0.5455190000000 1.0
C      1  0.5374320000000  0.5161140000000  0.5969160000000 1.0
C      1  0.5276760000000  0.6028850000000  0.5225790000000 1.0
C      1  0.4180180000000  0.4835340000000  0.4509280000000 1.0
C      1  0.4175150000000  0.4496330000000  0.5100620000000 1.0
C      1  0.4222840000000  0.4904610000000  0.5516530000000 1.0
C      1  0.4243100000000  0.5430790000000  0.5256970000000 1.0
C      1  0.4196190000000  0.5410120000000  0.4668450000000 1.0
C      1  0.5858990000000  0.4841820000000  0.4738330000000 1.0
C      1  0.5869770000000  0.4707620000000  0.5009670000000 1.0
C      1  0.5866030000000  0.4924140000000  0.5227320000000 1.0
C      1  0.5870830000000  0.5175000000000  0.5072030000000 1.0
C      1  0.5847030000000  0.5136120000000  0.4785400000000 1.0
C      1  0.5131930000000  0.5348020000000  0.4480420000000 1.0
C      1  0.5149600000000  0.4592330000000  0.4483250000000 1.0
C      1  0.5146130000000  0.4450800000000  0.5209400000000 1.0
C      1  0.5160990000000  0.5041600000000  0.5600870000000 1.0
C      1  0.5121830000000  0.5616650000000  0.5176780000000 1.0
C      1  0.4731860000000  0.4600940000000  0.5252130000000 1.0
C      1  0.4740970000000  0.5087800000000  0.5440070000000 1.0
C      1  0.4686410000000  0.5409450000000  0.5012480000000 1.0
C      1  0.4668090000000  0.5187270000000  0.4563140000000 1.0
C      1  0.4711140000000  0.4634640000000  0.4698400000000 1.0
C      1  0.5291750000000  0.5449510000000  0.4719160000000 1.0
C      1  0.5290840000000  0.4858390000000  0.4480020000000 1.0
C      1  0.5311840000000  0.4477790000000  0.4952650000000 1.0
C      1  0.5332750000000  0.4812450000000  0.5488020000000 1.0
C      1  0.5299920000000  0.5450120000000  0.5345180000000 1.0
C      1  0.4909670000000  0.4054610000000  0.4456840000000 1.0
C      1  0.4886810000000  0.4157830000000  0.5733130000000 1.0
C      1  0.4901110000000  0.5407400000000  0.5996220000000 1.0
C      1  0.4894440000000  0.6080470000000  0.4898630000000 1.0
C      1  0.4932600000000  0.5245410000000  0.3935660000000 1.0
C      1  0.5266540000000  0.4658140000000  0.5975900000000 1.0
C      1  0.5190520000000  0.5887260000000  0.5704350000000 1.0
C      1  0.5279980000000  0.5903300000000  0.4418260000000 1.0
C      1  0.5252100000000  0.4683980000000  0.3948760000000 1.0
C      1  0.5219260000000  0.3911140000000  0.4990880000000 1.0
C      1  0.5816900000000  0.4418600000000  0.5066580000000 1.0
C      1  0.5816230000000  0.4932880000000  0.5531300000000 1.0
C      1  0.5776600000000  0.5421740000000  0.5167920000000 1.0
C      1  0.5792260000000  0.5369390000000  0.4602430000000 1.0
C      1  0.5789190000000  0.4708530000000  0.4482500000000 1.0
C      1  0.4614810000000  0.3976410000000  0.4849470000000 1.0
C      1  0.4697580000000  0.4560310000000  0.5978920000000 1.0
C      1  0.4653210000000  0.5759540000000  0.5746630000000 1.0
C      1  0.4640640000000  0.5937070000000  0.4514040000000 1.0
C      1  0.4641570000000  0.4851390000000  0.3956820000000 1.0
C      1  0.4808770000000  0.4380520000000  0.4798190000000 1.0
C      1  0.4832340000000  0.4612200000000  0.5535410000000 1.0
C      1  0.4792650000000  0.5369220000000  0.5520140000000 1.0
C      1  0.4794470000000  0.5610550000000  0.4796450000000 1.0
C      1  0.4796400000000  0.5001160000000  0.4343930000000 1.0
C      1  0.4251010000000  0.4355970000000  0.4848330000000 1.0
C      1  0.4325290000000  0.4636400000000  0.5588950000000 1.0
C      1  0.4329290000000  0.5417190000000  0.5538250000000 1.0
C      1  0.4320000000000  0.5651700000000  0.4781340000000 1.0
C      1  0.4325460000000  0.5020310000000  0.4335440000000 1.0
C      1  0.5399590000000  0.4093990000000  0.5160290000000 1.0
C      1  0.5452110000000  0.4873050000000  0.5913500000000 1.0
C      1  0.5380700000000  0.5909120000000  0.5484090000000 1.0
C      1  0.5469560000000  0.5678700000000  0.4362000000000 1.0
C      1  0.5440600000000  0.4564710000000  0.4149920000000 1.0
C      1  0.5104390000000  0.5070330000000  0.4354930000000 1.0
C      1  0.5115580000000  0.4409520000000  0.4721080000000 1.0
C      1  0.5145980000000  0.4559470000000  0.5488350000000 1.0
C      1  0.5109960000000  0.5341120000000  0.5563090000000 1.0
C      1  0.5103730000000  0.5644490000000  0.4878670000000 1.0
C      1  0.4966250000000  0.4672740000000  0.4017830000000 1.0
C      1  0.4925810000000  0.3829500000000  0.5015130000000 1.0
C      1  0.5020670000000  0.4707070000000  0.6133910000000 1.0
C      1  0.4905660000000  0.5892300000000  0.5584750000000 1.0
C      1  0.4993170000000  0.5833980000000  0.4412520000000 1.0
C      1  0.4287010000000  0.4416940000000  0.5362780000000 1.0
C      1  0.4310210000000  0.5134150000000  0.5675180000000 1.0
C      1  0.4292130000000  0.5671620000000  0.5093080000000 1.0
C      1  0.4277870000000  0.5320340000000  0.4396450000000 1.0
C      1  0.4248630000000  0.4544390000000  0.4530530000000 1.0
C      1  0.4951710000000  0.4213660000000  0.4204480000000 1.0
C      1  0.4918100000000  0.4035730000000  0.5470890000000 1.0
C      1  0.4888550000000  0.5123410000000  0.6059890000000 1.0
C      1  0.4834660000000  0.6055670000000  0.5185970000000 1.0
C      1  0.4978740000000  0.5528080000000  0.4022480000000 1.0
C      1  0.5372490000000  0.6012580000000  0.4679640000000 1.0
C      1  0.5349790000000  0.4961910000000  0.3915600000000 1.0
C      1  0.5324630000000  0.3946790000000  0.4718730000000 1.0
C      1  0.5376660000000  0.4407550000000  0.5873200000000 1.0
C      1  0.5305290000000  0.5671910000000  0.5878650000000 1.0
C      1  0.4117080000000  0.4952840000000  0.5257450000000 1.0
C      1  0.4122860000000  0.5210910000000  0.5125570000000 1.0
C      1  0.4216620000000  0.5179960000000  0.4846440000000 1.0
C      1  0.4056990000000  0.4959690000000  0.4725710000000 1.0
C      1  0.4014420000000  0.4732510000000  0.5103510000000 1.0
C      1  0.4435580000000  0.4685860000000  0.5881930000000 1.0
C      1  0.4396010000000  0.5719130000000  0.5583540000000 1.0
C      1  0.4386900000000  0.5778030000000  0.4504630000000 1.0
C      1  0.4397850000000  0.4801790000000  0.4124160000000 1.0
C      1  0.4381690000000  0.4112750000000  0.4978090000000 1.0
C      1  0.4739530000000  0.4889660000000  0.5651640000000 1.0
C      1  0.4669470000000  0.5554290000000  0.5288660000000 1.0
C      1  0.4709720000000  0.5483430000000  0.4502800000000 1.0
C      1  0.4710130000000  0.4664950000000  0.4404510000000 1.0
C      1  0.4729460000000  0.4340590000000  0.5112560000000 1.0
C      1  0.3880280000000  0.4799660000000  0.4869390000000 1.0
C      1  0.4536760000000  0.5150460000000  0.4858900000000 1.0
END
