TITL C-3578201-9217-221 4.49187680938036e-07 125000 -244.625255569061 0 0 40 (C4) n - 1
REM
REM in /home/bkarasulu/work/CARBON/AIRSS/Generating-Clusters/EDIP-Nigel-Params/with-SteepDescent/Higher-Symm/SD-CG/HFTN-CG
REM
REM
REM
REM
REM
REM ./C.cell (12c818d87b63d06a65506943cc24bca4)
REM
REM compiler GCC version 9.2.1 20190827 (Red Hat 9.2.1-1)
REM options -cpp -mtune=generic -march=x86-64 -g -O0 -fpre-include=/usr/include/finclude/math-vector-fortran.h
REM seed -1057925139 1181367315 -1473502682 1327541083 1794508693 1051507419 1923395618 54492881 -235180799 1448984297 -1281796691 1636559021 -761998464 -1391720012 -1365706779 552104143 1219844628 -1034754976 781666906 -1399755457 1790964939 -208779073 -1096176199 -1533376079 1918857843 -1482171250 397932456 -1254804547 -2044308673 615464724 -928776031 -736283628 -1168488219
REM
CELL 1.54180   50.00000   50.00000   50.00000   90.00000   90.00000   90.00000
LATT -1
SFAC C  
C      1  0.4940540000000  0.5211040000000  0.5682890000000 1.0
C      1  0.5682890000000  0.5211040000000  0.5059460000000 1.0
C      1  0.5059460000000  0.5211040000000  0.4317110000000 1.0
C      1  0.4317110000000  0.5211040000000  0.4940540000000 1.0
C      1  0.4940540000000  0.4788960000000  0.4317110000000 1.0
C      1  0.5682890000000  0.4788960000000  0.4940540000000 1.0
C      1  0.5059460000000  0.4788960000000  0.5682890000000 1.0
C      1  0.4317110000000  0.4788960000000  0.5059460000000 1.0
C      1  0.5402440000000  0.5129620000000  0.5514490000000 1.0
C      1  0.5514490000000  0.5129630000000  0.4597560000000 1.0
C      1  0.4597560000000  0.5129630000000  0.4485510000000 1.0
C      1  0.4485510000000  0.5129620000000  0.5402440000000 1.0
C      1  0.5402440000000  0.4870380000000  0.4485510000000 1.0
C      1  0.5514490000000  0.4870370000000  0.5402440000000 1.0
C      1  0.4597560000000  0.4870370000000  0.5514490000000 1.0
C      1  0.4485510000000  0.4870370000000  0.4597560000000 1.0
C      1  0.5284560000000  0.5259790000000  0.4756870000000 1.0
C      1  0.4756870000000  0.5259790000000  0.4715440000000 1.0
C      1  0.4715440000000  0.5259790000000  0.5243130000000 1.0
C      1  0.5243130000000  0.5259790000000  0.5284560000000 1.0
C      1  0.5284560000000  0.4740210000000  0.5243130000000 1.0
C      1  0.4756870000000  0.4740210000000  0.5284560000000 1.0
C      1  0.4715440000000  0.4740210000000  0.4756870000000 1.0
C      1  0.5243130000000  0.4740210000000  0.4715440000000 1.0
C      1  0.4258040000000  0.4937120000000  0.4788390000000 1.0
C      1  0.4788390000000  0.4937120000000  0.5741960000000 1.0
C      1  0.5741960000000  0.4937120000000  0.5211610000000 1.0
C      1  0.5211610000000  0.4937120000000  0.4258040000000 1.0
C      1  0.4258040000000  0.5062880000000  0.5211610000000 1.0
C      1  0.4788390000000  0.5062880000000  0.4258040000000 1.0
C      1  0.5741960000000  0.5062880000000  0.4788390000000 1.0
C      1  0.5211610000000  0.5062880000000  0.5741960000000 1.0
C      1  0.5025220000000  0.5158660000000  0.4625280000000 1.0
C      1  0.4625280000000  0.5158660000000  0.4974780000000 1.0
C      1  0.4974780000000  0.5158660000000  0.5374720000000 1.0
C      1  0.5374720000000  0.5158660000000  0.5025220000000 1.0
C      1  0.5025220000000  0.4841340000000  0.5374720000000 1.0
C      1  0.4625280000000  0.4841340000000  0.5025220000000 1.0
C      1  0.4974780000000  0.4841340000000  0.4625280000000 1.0
C      1  0.5374720000000  0.4841340000000  0.4974780000000 1.0
END
