TITL C-3577091-527-762 -1.38523634514693e-06 125000 -364.461988785256 0 0 59 (C1) n - 1
REM
REM in /home/bkarasulu/work/CARBON/AIRSS/Generating-Clusters/EDIP-Nigel-Params/with-SteepDescent/Higher-Symm/SD-CG/HFTN-CG
REM
REM
REM
REM
REM
REM ./C.cell (12c818d87b63d06a65506943cc24bca4)
REM
REM compiler GCC version 9.2.1 20190827 (Red Hat 9.2.1-1)
REM options -cpp -mtune=generic -march=x86-64 -g -O0 -fpre-include=/usr/include/finclude/math-vector-fortran.h
REM seed 2017899851 428165392 -335580042 -58503395 1451256967 698444485 -940302668 615398856 744704265 -1042345805 -598214051 -325820577 1816912756 -639935647 -1666232776 590201164 1816352033 -1499821822 -916624033 423091527 898418121 1508641264 -1572147198 -805599015 -265238265 -418394334 800334494 1968161150 2079979560 1220162629 -1431338283 -641385230 -971546807
REM
CELL 1.54180   50.00000   50.00000   50.00000   90.00000   90.00000   90.00000
LATT -1
SFAC C  
C      1  0.5260960000000  0.5513040000000  0.5055680000000 1.0
C      1  0.4718620000000  0.5540010000000  0.5067510000000 1.0
C      1  0.5552940000000  0.5496860000000  0.5444550000000 1.0
C      1  0.4442950000000  0.5532370000000  0.5436210000000 1.0
C      1  0.4536350000000  0.5060740000000  0.5483520000000 1.0
C      1  0.5442150000000  0.5043520000000  0.5439440000000 1.0
C      1  0.4653970000000  0.4559190000000  0.5400880000000 1.0
C      1  0.5376020000000  0.4534950000000  0.5357900000000 1.0
C      1  0.5462290000000  0.4802430000000  0.5255990000000 1.0
C      1  0.4566890000000  0.4826710000000  0.5296270000000 1.0
C      1  0.4816210000000  0.5160060000000  0.4481030000000 1.0
C      1  0.5136970000000  0.5141860000000  0.4506560000000 1.0
C      1  0.5444800000000  0.5281150000000  0.5030820000000 1.0
C      1  0.4584990000000  0.5273670000000  0.5066270000000 1.0
C      1  0.4401860000000  0.5261860000000  0.5311970000000 1.0
C      1  0.5602360000000  0.5250390000000  0.5294320000000 1.0
C      1  0.4620540000000  0.4776990000000  0.4373040000000 1.0
C      1  0.5332840000000  0.4777480000000  0.4345340000000 1.0
C      1  0.4718370000000  0.4427090000000  0.4700340000000 1.0
C      1  0.5254240000000  0.4407340000000  0.4658690000000 1.0
C      1  0.5130840000000  0.5708160000000  0.5514640000000 1.0
C      1  0.4855600000000  0.5687160000000  0.5462050000000 1.0
C      1  0.4674780000000  0.5030080000000  0.4268160000000 1.0
C      1  0.5258580000000  0.5035990000000  0.4266670000000 1.0
C      1  0.5390300000000  0.4378530000000  0.5109270000000 1.0
C      1  0.4618440000000  0.4391840000000  0.5158730000000 1.0
C      1  0.5152910000000  0.4498430000000  0.5516160000000 1.0
C      1  0.4890280000000  0.4521300000000  0.5538190000000 1.0
C      1  0.5140140000000  0.5559240000000  0.4786950000000 1.0
C      1  0.4826760000000  0.5566570000000  0.4789450000000 1.0
C      1  0.4847110000000  0.4388240000000  0.4959570000000 1.0
C      1  0.5149080000000  0.4389160000000  0.4932220000000 1.0
C      1  0.4366460000000  0.4794350000000  0.5067930000000 1.0
C      1  0.5645130000000  0.4786480000000  0.5007740000000 1.0
C      1  0.4660690000000  0.5367720000000  0.4623660000000 1.0
C      1  0.5296930000000  0.5374860000000  0.4600360000000 1.0
C      1  0.5141230000000  0.5170010000000  0.5480980000000 1.0
C      1  0.4775440000000  0.5205550000000  0.5580060000000 1.0
C      1  0.4826240000000  0.4672780000000  0.4573050000000 1.0
C      1  0.5127750000000  0.4615980000000  0.4494700000000 1.0
C      1  0.4797230000000  0.5044740000000  0.5072730000000 1.0
C      1  0.5259810000000  0.5038350000000  0.5023560000000 1.0
C      1  0.5156390000000  0.4930210000000  0.4731750000000 1.0
C      1  0.4860340000000  0.4914330000000  0.4782050000000 1.0
C      1  0.5576550000000  0.4745270000000  0.4516380000000 1.0
C      1  0.4387230000000  0.4752180000000  0.4569980000000 1.0
C      1  0.5542390000000  0.5247520000000  0.4748250000000 1.0
C      1  0.4452510000000  0.5229820000000  0.4802230000000 1.0
C      1  0.5347950000000  0.5685930000000  0.5287780000000 1.0
C      1  0.4549680000000  0.5717510000000  0.5226140000000 1.0
C      1  0.4694550000000  0.5487920000000  0.5596630000000 1.0
C      1  0.5275450000000  0.5444650000000  0.5589380000000 1.0
C      1  0.4423140000000  0.4478200000000  0.4712230000000 1.0
C      1  0.5547780000000  0.4469780000000  0.4652960000000 1.0
C      1  0.5624100000000  0.4492100000000  0.4945620000000 1.0
C      1  0.4372530000000  0.4500940000000  0.5011000000000 1.0
C      1  0.4421530000000  0.4930220000000  0.4807070000000 1.0
C      1  0.5589880000000  0.4937050000000  0.4749170000000 1.0
C      1  0.5047680000000  0.5146180000000  0.5188980000000 1.0
END
