TITL C-3577082-504-459 -6.84593114816052e-07 125000 -1097.24690736672 0 0 179 (C1) n - 1
REM
REM in /home/bkarasulu/work/CARBON/AIRSS/Generating-Clusters/EDIP-Nigel-Params/with-SteepDescent/Higher-Symm/SD-CG/HFTN-CG
REM
REM
REM
REM
REM
REM ./C.cell (12c818d87b63d06a65506943cc24bca4)
REM
REM compiler GCC version 9.2.1 20190827 (Red Hat 9.2.1-1)
REM options -cpp -mtune=generic -march=x86-64 -g -O0 -fpre-include=/usr/include/finclude/math-vector-fortran.h
REM seed 1611621853 969316724 -2021728538 1542280635 -58119232 1766541889 -1424125937 -117384579 -2036098012 -1404381692 243537914 1990565176 -1536323686 -1377340853 37422453 2084018601 -1667192029 598775960 825311666 1894152040 2143800370 -1324149077 -1931771873 703322039 -1173387687 -1778644724 -1483301616 -298683484 -2105544145 2015640395 -2057159034 1382774325 -603842654
REM
CELL 1.54180   50.00000   50.00000   50.00000   90.00000   90.00000   90.00000
LATT -1
SFAC C  
C      1  0.4186550000000  0.5464100000000  0.5624710000000 1.0
C      1  0.4246400000000  0.5429520000000  0.4401590000000 1.0
C      1  0.5215020000000  0.6150810000000  0.5274160000000 1.0
C      1  0.5216140000000  0.6135990000000  0.4763130000000 1.0
C      1  0.4978160000000  0.5982460000000  0.4860040000000 1.0
C      1  0.4989610000000  0.5978000000000  0.5182040000000 1.0
C      1  0.5247100000000  0.4899740000000  0.5713910000000 1.0
C      1  0.5221480000000  0.4871180000000  0.4296870000000 1.0
C      1  0.4739270000000  0.4116050000000  0.4101190000000 1.0
C      1  0.4832860000000  0.4162890000000  0.5848700000000 1.0
C      1  0.5387690000000  0.5386830000000  0.5508570000000 1.0
C      1  0.5366330000000  0.5370000000000  0.4483170000000 1.0
C      1  0.5378510000000  0.5868400000000  0.4474830000000 1.0
C      1  0.5411770000000  0.5879290000000  0.5541490000000 1.0
C      1  0.5464530000000  0.4439570000000  0.5665750000000 1.0
C      1  0.5493560000000  0.4426340000000  0.4322080000000 1.0
C      1  0.5038920000000  0.5595060000000  0.4220100000000 1.0
C      1  0.5087040000000  0.5608530000000  0.5807820000000 1.0
C      1  0.4019620000000  0.4248190000000  0.5121180000000 1.0
C      1  0.4119430000000  0.4374350000000  0.4889860000000 1.0
C      1  0.5371110000000  0.4791710000000  0.5257020000000 1.0
C      1  0.5371530000000  0.4782210000000  0.4738930000000 1.0
C      1  0.5013270000000  0.3970210000000  0.5241100000000 1.0
C      1  0.5029750000000  0.3924670000000  0.4722460000000 1.0
C      1  0.5059830000000  0.5161780000000  0.4838630000000 1.0
C      1  0.5095210000000  0.5191800000000  0.5139200000000 1.0
C      1  0.4611250000000  0.5404780000000  0.5965680000000 1.0
C      1  0.4570660000000  0.5324660000000  0.4043570000000 1.0
C      1  0.4994270000000  0.4346770000000  0.5265420000000 1.0
C      1  0.5026410000000  0.4301940000000  0.4673290000000 1.0
C      1  0.4802650000000  0.5686850000000  0.5912580000000 1.0
C      1  0.4724790000000  0.5626920000000  0.4126550000000 1.0
C      1  0.4388860000000  0.5629870000000  0.5148470000000 1.0
C      1  0.4456340000000  0.5605630000000  0.4849010000000 1.0
C      1  0.5181880000000  0.5146240000000  0.4414680000000 1.0
C      1  0.5211810000000  0.5176130000000  0.5612170000000 1.0
C      1  0.4336120000000  0.4505620000000  0.5587350000000 1.0
C      1  0.4355540000000  0.4477530000000  0.4372600000000 1.0
C      1  0.5995090000000  0.4496320000000  0.5163230000000 1.0
C      1  0.6002330000000  0.4493950000000  0.4846950000000 1.0
C      1  0.5546360000000  0.5032070000000  0.5152000000000 1.0
C      1  0.5560730000000  0.5024360000000  0.4839530000000 1.0
C      1  0.4729660000000  0.6016990000000  0.5348860000000 1.0
C      1  0.4730870000000  0.6099180000000  0.4736930000000 1.0
C      1  0.3915550000000  0.4444100000000  0.5277120000000 1.0
C      1  0.3917960000000  0.4463590000000  0.4716200000000 1.0
C      1  0.4298980000000  0.5268260000000  0.4165550000000 1.0
C      1  0.4319450000000  0.5307460000000  0.5848440000000 1.0
C      1  0.5936470000000  0.5256170000000  0.4868620000000 1.0
C      1  0.5921990000000  0.5260700000000  0.5163380000000 1.0
C      1  0.4773810000000  0.5223530000000  0.5786050000000 1.0
C      1  0.4754060000000  0.5180010000000  0.4238360000000 1.0
C      1  0.5524060000000  0.4380020000000  0.5243870000000 1.0
C      1  0.5541230000000  0.4370420000000  0.4747150000000 1.0
C      1  0.5506150000000  0.5446280000000  0.4213300000000 1.0
C      1  0.5538130000000  0.5462280000000  0.5857790000000 1.0
C      1  0.4766070000000  0.4432890000000  0.5849660000000 1.0
C      1  0.4778380000000  0.4390810000000  0.4119110000000 1.0
C      1  0.5270060000000  0.6130090000000  0.5556760000000 1.0
C      1  0.5236960000000  0.6121030000000  0.4474340000000 1.0
C      1  0.4874560000000  0.4824230000000  0.5385440000000 1.0
C      1  0.4827660000000  0.4737340000000  0.4670620000000 1.0
C      1  0.5929890000000  0.4988550000000  0.4741580000000 1.0
C      1  0.5901370000000  0.4995930000000  0.5283690000000 1.0
C      1  0.4272070000000  0.5310290000000  0.4869300000000 1.0
C      1  0.4173330000000  0.5418850000000  0.5132980000000 1.0
C      1  0.4096820000000  0.4905480000000  0.4844180000000 1.0
C      1  0.4024360000000  0.4869330000000  0.5109310000000 1.0
C      1  0.4501940000000  0.4831660000000  0.5889020000000 1.0
C      1  0.4506920000000  0.4826120000000  0.4061640000000 1.0
C      1  0.5529200000000  0.4943820000000  0.4064850000000 1.0
C      1  0.5537310000000  0.4947370000000  0.5973930000000 1.0
C      1  0.5078200000000  0.4860770000000  0.4830050000000 1.0
C      1  0.5090920000000  0.4882920000000  0.5185310000000 1.0
C      1  0.5675550000000  0.5215430000000  0.5919540000000 1.0
C      1  0.5667000000000  0.5216890000000  0.4111670000000 1.0
C      1  0.5080410000000  0.4996550000000  0.3833510000000 1.0
C      1  0.5108640000000  0.5038630000000  0.6235720000000 1.0
C      1  0.4007540000000  0.4720230000000  0.4636540000000 1.0
C      1  0.3968880000000  0.4712250000000  0.5334970000000 1.0
C      1  0.4603360000000  0.5702670000000  0.5528650000000 1.0
C      1  0.4580630000000  0.5811590000000  0.4306250000000 1.0
C      1  0.5039040000000  0.4429550000000  0.5576900000000 1.0
C      1  0.5063910000000  0.4373100000000  0.4366250000000 1.0
C      1  0.4766740000000  0.3987510000000  0.4830480000000 1.0
C      1  0.4745110000000  0.4013880000000  0.5130440000000 1.0
C      1  0.4430900000000  0.5060100000000  0.5465500000000 1.0
C      1  0.4408430000000  0.5042570000000  0.4549490000000 1.0
C      1  0.5377300000000  0.4708890000000  0.5540730000000 1.0
C      1  0.5366870000000  0.4679980000000  0.4458060000000 1.0
C      1  0.5715220000000  0.4707900000000  0.5939360000000 1.0
C      1  0.5728080000000  0.4719570000000  0.4080130000000 1.0
C      1  0.4151150000000  0.5288670000000  0.5384120000000 1.0
C      1  0.4124250000000  0.5291180000000  0.4626410000000 1.0
C      1  0.4673130000000  0.5269320000000  0.6223550000000 1.0
C      1  0.4590930000000  0.5118890000000  0.3812950000000 1.0
C      1  0.4963220000000  0.4782770000000  0.5679870000000 1.0
C      1  0.4939160000000  0.4724350000000  0.4352190000000 1.0
C      1  0.5666520000000  0.5693220000000  0.4859750000000 1.0
C      1  0.5634970000000  0.5679920000000  0.5141900000000 1.0
C      1  0.5873660000000  0.4689050000000  0.4336030000000 1.0
C      1  0.5863020000000  0.4685730000000  0.5682660000000 1.0
C      1  0.5516240000000  0.4489090000000  0.5966230000000 1.0
C      1  0.5549670000000  0.4490060000000  0.4027680000000 1.0
C      1  0.5945400000000  0.4226820000000  0.5268700000000 1.0
C      1  0.5960730000000  0.4222360000000  0.4744360000000 1.0
C      1  0.4774280000000  0.4010570000000  0.5614000000000 1.0
C      1  0.4783350000000  0.4026600000000  0.4365400000000 1.0
C      1  0.4698610000000  0.6016510000000  0.4466070000000 1.0
C      1  0.4742130000000  0.5888240000000  0.5711210000000 1.0
C      1  0.5121080000000  0.5255450000000  0.3936390000000 1.0
C      1  0.5170610000000  0.5278580000000  0.6095610000000 1.0
C      1  0.4529320000000  0.4537240000000  0.4145990000000 1.0
C      1  0.4517530000000  0.4560110000000  0.5801020000000 1.0
C      1  0.4168520000000  0.4706930000000  0.4390340000000 1.0
C      1  0.4151860000000  0.4730500000000  0.5560690000000 1.0
C      1  0.4783010000000  0.5245670000000  0.4782320000000 1.0
C      1  0.4800840000000  0.5284440000000  0.5251170000000 1.0
C      1  0.5884480000000  0.5166370000000  0.4283260000000 1.0
C      1  0.5889780000000  0.5164350000000  0.5748670000000 1.0
C      1  0.5034450000000  0.5700860000000  0.5277800000000 1.0
C      1  0.4989880000000  0.5700190000000  0.4749160000000 1.0
C      1  0.5517790000000  0.5297770000000  0.4725810000000 1.0
C      1  0.5405540000000  0.5306200000000  0.5212140000000 1.0
C      1  0.5928280000000  0.4951380000000  0.4456850000000 1.0
C      1  0.5915470000000  0.4952430000000  0.5567800000000 1.0
C      1  0.5246690000000  0.4132050000000  0.4310900000000 1.0
C      1  0.5183440000000  0.4168740000000  0.5677600000000 1.0
C      1  0.5217720000000  0.5651520000000  0.5523490000000 1.0
C      1  0.5182160000000  0.5639650000000  0.4508150000000 1.0
C      1  0.4305030000000  0.4994800000000  0.5743150000000 1.0
C      1  0.4299140000000  0.4960110000000  0.4253710000000 1.0
C      1  0.5260570000000  0.4370770000000  0.4841580000000 1.0
C      1  0.5249980000000  0.4391030000000  0.5121680000000 1.0
C      1  0.5521090000000  0.5905350000000  0.4728660000000 1.0
C      1  0.5509970000000  0.5905620000000  0.5268070000000 1.0
C      1  0.5334390000000  0.4559010000000  0.3855120000000 1.0
C      1  0.5303440000000  0.4557400000000  0.6145910000000 1.0
C      1  0.4476960000000  0.6064130000000  0.5192580000000 1.0
C      1  0.4493010000000  0.6071680000000  0.4898100000000 1.0
C      1  0.4500010000000  0.4569510000000  0.5183400000000 1.0
C      1  0.4322790000000  0.4605130000000  0.4928490000000 1.0
C      1  0.5319880000000  0.4838140000000  0.3875640000000 1.0
C      1  0.5303650000000  0.4839810000000  0.6135020000000 1.0
C      1  0.4305900000000  0.5815220000000  0.4693660000000 1.0
C      1  0.4269210000000  0.5869530000000  0.5286110000000 1.0
C      1  0.5773470000000  0.4427680000000  0.5540580000000 1.0
C      1  0.5799200000000  0.4418300000000  0.4460710000000 1.0
C      1  0.5056920000000  0.5309050000000  0.5818110000000 1.0
C      1  0.5019820000000  0.5286610000000  0.4210850000000 1.0
C      1  0.5330410000000  0.5612830000000  0.5995540000000 1.0
C      1  0.5302420000000  0.5578590000000  0.4033020000000 1.0
C      1  0.4770160000000  0.4942170000000  0.5901960000000 1.0
C      1  0.4784240000000  0.4901730000000  0.4145160000000 1.0
C      1  0.5698410000000  0.4128040000000  0.4850740000000 1.0
C      1  0.5687580000000  0.4133550000000  0.5153030000000 1.0
C      1  0.4815630000000  0.5018250000000  0.6195410000000 1.0
C      1  0.4807870000000  0.4938100000000  0.3759570000000 1.0
C      1  0.4457330000000  0.4335750000000  0.4611280000000 1.0
C      1  0.4378250000000  0.4282840000000  0.5409190000000 1.0
C      1  0.4532870000000  0.4849050000000  0.4770930000000 1.0
C      1  0.4593810000000  0.4858720000000  0.5273800000000 1.0
C      1  0.5840250000000  0.5498150000000  0.4728050000000 1.0
C      1  0.5756390000000  0.5465000000000  0.5281080000000 1.0
C      1  0.4760590000000  0.5581710000000  0.5258640000000 1.0
C      1  0.4754820000000  0.5535400000000  0.4820350000000 1.0
C      1  0.5046820000000  0.3935900000000  0.5527340000000 1.0
C      1  0.5055810000000  0.3935230000000  0.4431190000000 1.0
C      1  0.4335200000000  0.5711280000000  0.4427280000000 1.0
C      1  0.4303970000000  0.5742870000000  0.5566900000000 1.0
C      1  0.5711150000000  0.4616970000000  0.4844530000000 1.0
C      1  0.5707670000000  0.4622850000000  0.5151710000000 1.0
C      1  0.4610470000000  0.4085290000000  0.4599900000000 1.0
C      1  0.4623580000000  0.4126310000000  0.5385090000000 1.0
C      1  0.4760680000000  0.4454650000000  0.5079870000000 1.0
C      1  0.4780190000000  0.4452110000000  0.4774420000000 1.0
C      1  0.4660460000000  0.5187630000000  0.4514070000000 1.0
C      1  0.4665730000000  0.5230520000000  0.5511110000000 1.0
C      1  0.4605520000000  0.5058030000000  0.5002060000000 1.0
END
