TITL C-3578200-9634-347 -1.7241496466411e-06 125000 -811.931688542407 0 0 133 (C1) n - 1
REM
REM in /home/bkarasulu/work/CARBON/AIRSS/Generating-Clusters/EDIP-Nigel-Params/with-SteepDescent/Higher-Symm/SD-CG/HFTN-CG
REM
REM
REM
REM
REM
REM ./C.cell (12c818d87b63d06a65506943cc24bca4)
REM
REM compiler GCC version 9.2.1 20190827 (Red Hat 9.2.1-1)
REM options -cpp -mtune=generic -march=x86-64 -g -O0 -fpre-include=/usr/include/finclude/math-vector-fortran.h
REM seed 1977779699 -148156514 1038555829 1552031433 1147348917 -2103947468 -1627846513 -1149820427 1259613650 -28292294 -1823904757 -1170609219 -1905494404 1324145540 465255629 -1774686679 -1487588762 1924857469 -1786827350 2008605584 -908030498 -995951379 -254601391 -905483769 932357237 -253500926 2036193238 -1602726814 1653334914 -1733680255 66806903 1132199616 1053629643
REM
CELL 1.54180   50.00000   50.00000   50.00000   90.00000   90.00000   90.00000
LATT -1
SFAC C  
C      1  0.4844120000000  0.5128830000000  0.4689400000000 1.0
C      1  0.4855530000000  0.4836570000000  0.4698250000000 1.0
C      1  0.4838130000000  0.4661930000000  0.4932180000000 1.0
C      1  0.4849170000000  0.4733310000000  0.5216450000000 1.0
C      1  0.4837780000000  0.5002020000000  0.5334990000000 1.0
C      1  0.4856520000000  0.5275170000000  0.5201660000000 1.0
C      1  0.4871960000000  0.5326220000000  0.4904490000000 1.0
C      1  0.5269160000000  0.5683400000000  0.5490590000000 1.0
C      1  0.5285710000000  0.5835090000000  0.4776160000000 1.0
C      1  0.5288540000000  0.5338370000000  0.4214650000000 1.0
C      1  0.5271920000000  0.4590190000000  0.4231790000000 1.0
C      1  0.5252720000000  0.4154380000000  0.4821700000000 1.0
C      1  0.5275060000000  0.4345680000000  0.5532970000000 1.0
C      1  0.5269580000000  0.5015550000000  0.5847930000000 1.0
C      1  0.4405470000000  0.5199440000000  0.4708180000000 1.0
C      1  0.4349960000000  0.4901830000000  0.4662570000000 1.0
C      1  0.4344380000000  0.4672910000000  0.4877940000000 1.0
C      1  0.4336070000000  0.4694100000000  0.5192430000000 1.0
C      1  0.4319980000000  0.4955790000000  0.5368530000000 1.0
C      1  0.4463730000000  0.5215110000000  0.5254600000000 1.0
C      1  0.4357540000000  0.5342080000000  0.4992120000000 1.0
C      1  0.4845070000000  0.5945120000000  0.5423470000000 1.0
C      1  0.4864990000000  0.5950900000000  0.4587160000000 1.0
C      1  0.4866210000000  0.5235700000000  0.3982470000000 1.0
C      1  0.4833760000000  0.4377550000000  0.4169100000000 1.0
C      1  0.4823850000000  0.3961730000000  0.4956810000000 1.0
C      1  0.4852880000000  0.4317860000000  0.5779000000000 1.0
C      1  0.4844110000000  0.5165450000000  0.6017530000000 1.0
C      1  0.5405400000000  0.5059590000000  0.5262140000000 1.0
C      1  0.5524410000000  0.5251380000000  0.5097730000000 1.0
C      1  0.5421460000000  0.5257710000000  0.4837130000000 1.0
C      1  0.5541960000000  0.5039000000000  0.4710330000000 1.0
C      1  0.5412070000000  0.4797830000000  0.4766920000000 1.0
C      1  0.5392220000000  0.4662660000000  0.5002730000000 1.0
C      1  0.5531470000000  0.4819280000000  0.5192340000000 1.0
C      1  0.5450810000000  0.5515920000000  0.4382280000000 1.0
C      1  0.5442700000000  0.4825780000000  0.4232940000000 1.0
C      1  0.5432130000000  0.4278750000000  0.4629800000000 1.0
C      1  0.5438870000000  0.4258820000000  0.5309980000000 1.0
C      1  0.5442260000000  0.4807570000000  0.5746630000000 1.0
C      1  0.5427710000000  0.5476790000000  0.5627980000000 1.0
C      1  0.5457020000000  0.5784930000000  0.5001590000000 1.0
C      1  0.5814110000000  0.4608480000000  0.4545520000000 1.0
C      1  0.5805520000000  0.4399390000000  0.4995440000000 1.0
C      1  0.5836530000000  0.4647910000000  0.5493520000000 1.0
C      1  0.5819220000000  0.5146680000000  0.5570170000000 1.0
C      1  0.5839780000000  0.5572670000000  0.5224090000000 1.0
C      1  0.5839710000000  0.5533010000000  0.4716480000000 1.0
C      1  0.5843180000000  0.5088260000000  0.4387830000000 1.0
C      1  0.4741110000000  0.5072180000000  0.4179880000000 1.0
C      1  0.4708540000000  0.4424310000000  0.4422140000000 1.0
C      1  0.4709070000000  0.4190450000000  0.5083880000000 1.0
C      1  0.4723700000000  0.4553870000000  0.5684840000000 1.0
C      1  0.4726990000000  0.5248930000000  0.5770190000000 1.0
C      1  0.4704160000000  0.5780970000000  0.5236820000000 1.0
C      1  0.4775270000000  0.5683570000000  0.4538130000000 1.0
C      1  0.6549170000000  0.4904810000000  0.4819160000000 1.0
C      1  0.6543550000000  0.4796930000000  0.5065420000000 1.0
C      1  0.6400980000000  0.4878240000000  0.5278900000000 1.0
C      1  0.6247660000000  0.5108290000000  0.5309630000000 1.0
C      1  0.6326530000000  0.5316290000000  0.5141520000000 1.0
C      1  0.6257210000000  0.5299920000000  0.4871920000000 1.0
C      1  0.6412920000000  0.5118950000000  0.4729160000000 1.0
C      1  0.4447370000000  0.5338140000000  0.5755970000000 1.0
C      1  0.4430650000000  0.5805760000000  0.5125710000000 1.0
C      1  0.4497320000000  0.5648390000000  0.4439840000000 1.0
C      1  0.4443260000000  0.5003090000000  0.4167490000000 1.0
C      1  0.4419400000000  0.4362090000000  0.4480810000000 1.0
C      1  0.4424860000000  0.4195420000000  0.5179830000000 1.0
C      1  0.4438120000000  0.4621620000000  0.5751910000000 1.0
C      1  0.5959480000000  0.5289190000000  0.4842670000000 1.0
C      1  0.5846690000000  0.5045630000000  0.4687000000000 1.0
C      1  0.5979630000000  0.4770350000000  0.4733600000000 1.0
C      1  0.5973370000000  0.4644130000000  0.5007730000000 1.0
C      1  0.5835300000000  0.4803170000000  0.5234770000000 1.0
C      1  0.5949410000000  0.5083680000000  0.5308720000000 1.0
C      1  0.5823930000000  0.5289330000000  0.5119020000000 1.0
C      1  0.5713340000000  0.5431740000000  0.4463390000000 1.0
C      1  0.5720580000000  0.4813080000000  0.4327570000000 1.0
C      1  0.5657370000000  0.4433140000000  0.4732080000000 1.0
C      1  0.5697550000000  0.4375710000000  0.5272310000000 1.0
C      1  0.5716500000000  0.4866850000000  0.5663400000000 1.0
C      1  0.5694320000000  0.5418580000000  0.5536040000000 1.0
C      1  0.5734260000000  0.5697850000000  0.4966630000000 1.0
C      1  0.4461210000000  0.4908570000000  0.5648340000000 1.0
C      1  0.4447370000000  0.5444390000000  0.5474550000000 1.0
C      1  0.4464810000000  0.5616620000000  0.4899820000000 1.0
C      1  0.4510520000000  0.5343850000000  0.4439490000000 1.0
C      1  0.4463770000000  0.4794560000000  0.4391210000000 1.0
C      1  0.4453000000000  0.4394680000000  0.4783060000000 1.0
C      1  0.4458970000000  0.4449120000000  0.5344000000000 1.0
C      1  0.4028500000000  0.4460390000000  0.5247070000000 1.0
C      1  0.4028280000000  0.4837770000000  0.5599740000000 1.0
C      1  0.4020160000000  0.5330620000000  0.5536660000000 1.0
C      1  0.4099260000000  0.5600960000000  0.5148700000000 1.0
C      1  0.4105190000000  0.5418820000000  0.4583140000000 1.0
C      1  0.4036930000000  0.4914840000000  0.4436310000000 1.0
C      1  0.4027330000000  0.4499410000000  0.4732300000000 1.0
C      1  0.4758460000000  0.4987160000000  0.5627340000000 1.0
C      1  0.4748550000000  0.5519200000000  0.5379350000000 1.0
C      1  0.4773020000000  0.5605570000000  0.4837400000000 1.0
C      1  0.4795470000000  0.5257160000000  0.4419590000000 1.0
C      1  0.4760380000000  0.4719790000000  0.4435190000000 1.0
C      1  0.4750800000000  0.4381650000000  0.4856390000000 1.0
C      1  0.4760300000000  0.4499920000000  0.5390100000000 1.0
C      1  0.5360560000000  0.4541390000000  0.5714240000000 1.0
C      1  0.5324920000000  0.5285280000000  0.5802700000000 1.0
C      1  0.5371470000000  0.5814400000000  0.5266230000000 1.0
C      1  0.5349820000000  0.5734850000000  0.4523490000000 1.0
C      1  0.5368120000000  0.5080060000000  0.4142190000000 1.0
C      1  0.5342480000000  0.4364870000000  0.4380140000000 1.0
C      1  0.5332030000000  0.4129850000000  0.5087470000000 1.0
C      1  0.4167540000000  0.5571590000000  0.5435770000000 1.0
C      1  0.4289500000000  0.5661500000000  0.4652110000000 1.0
C      1  0.4203460000000  0.5147670000000  0.4317340000000 1.0
C      1  0.4173650000000  0.4549220000000  0.4463650000000 1.0
C      1  0.4173880000000  0.4293750000000  0.5030380000000 1.0
C      1  0.4182360000000  0.4567730000000  0.5588080000000 1.0
C      1  0.4186160000000  0.5168280000000  0.5732190000000 1.0
C      1  0.3932360000000  0.5361400000000  0.5063860000000 1.0
C      1  0.3977540000000  0.5252690000000  0.4793670000000 1.0
C      1  0.3917500000000  0.4981220000000  0.4699290000000 1.0
C      1  0.3909490000000  0.4738110000000  0.4859430000000 1.0
C      1  0.3898600000000  0.4704330000000  0.5147630000000 1.0
C      1  0.3884290000000  0.4911310000000  0.5350560000000 1.0
C      1  0.3950350000000  0.5185860000000  0.5296420000000 1.0
C      1  0.5004520000000  0.4948870000000  0.5923180000000 1.0
C      1  0.4998960000000  0.5747740000000  0.5561670000000 1.0
C      1  0.5014750000000  0.5906120000000  0.4824890000000 1.0
C      1  0.5021520000000  0.5407820000000  0.4146900000000 1.0
C      1  0.4999130000000  0.4609840000000  0.4152800000000 1.0
C      1  0.4982920000000  0.4089020000000  0.4757510000000 1.0
C      1  0.5007790000000  0.4250790000000  0.5549660000000 1.0
END
