TITL C-3578198-8939-346 -8.17067634905947e-07 125000 -934.089633645132 0 0 147 (C1) n - 1
REM
REM in /home/bkarasulu/work/CARBON/AIRSS/Generating-Clusters/EDIP-Nigel-Params/with-SteepDescent/Higher-Symm/SD-CG/HFTN-CG
REM
REM
REM
REM
REM
REM ./C.cell (12c818d87b63d06a65506943cc24bca4)
REM
REM compiler GCC version 9.2.1 20190827 (Red Hat 9.2.1-1)
REM options -cpp -mtune=generic -march=x86-64 -g -O0 -fpre-include=/usr/include/finclude/math-vector-fortran.h
REM seed 287232428 -228479174 -1161506356 -733114416 -528450514 607301292 803092701 -1163775108 -776309553 -1754892697 424609187 129694061 1328535486 981094626 -1344731823 731321246 2089784091 1932905526 631066700 1038572288 -208146133 839984396 -448296211 -239531035 216487445 314883296 1028772791 215892998 1358374309 -1223165253 831623467 -274107865 1092441869
REM
CELL 1.54180   50.00000   50.00000   50.00000   90.00000   90.00000   90.00000
LATT -1
SFAC C  
C      1  0.4494220000000  0.4687930000000  0.4879590000000 1.0
C      1  0.4472570000000  0.5050040000000  0.5213090000000 1.0
C      1  0.4400080000000  0.4982170000000  0.4930480000000 1.0
C      1  0.3936910000000  0.5027950000000  0.5116610000000 1.0
C      1  0.3816000000000  0.5280280000000  0.5134110000000 1.0
C      1  0.4103270000000  0.5014810000000  0.4862020000000 1.0
C      1  0.4376980000000  0.5414010000000  0.4675530000000 1.0
C      1  0.4298190000000  0.4340990000000  0.4702150000000 1.0
C      1  0.4408610000000  0.5099240000000  0.5741070000000 1.0
C      1  0.4552100000000  0.5328500000000  0.5221740000000 1.0
C      1  0.4663550000000  0.4986450000000  0.4539510000000 1.0
C      1  0.4620480000000  0.4608310000000  0.5149800000000 1.0
C      1  0.4325480000000  0.4501630000000  0.4444300000000 1.0
C      1  0.4406070000000  0.4835850000000  0.5840500000000 1.0
C      1  0.4381100000000  0.5629410000000  0.4896550000000 1.0
C      1  0.4923780000000  0.5104960000000  0.4446050000000 1.0
C      1  0.4890070000000  0.4464080000000  0.5208220000000 1.0
C      1  0.4852990000000  0.5399610000000  0.5270330000000 1.0
C      1  0.5640360000000  0.4459290000000  0.4367290000000 1.0
C      1  0.5576960000000  0.4662560000000  0.5877940000000 1.0
C      1  0.5588930000000  0.5954680000000  0.4786260000000 1.0
C      1  0.5153810000000  0.4469160000000  0.5886870000000 1.0
C      1  0.5167420000000  0.6060580000000  0.5010040000000 1.0
C      1  0.5222700000000  0.4522430000000  0.4109560000000 1.0
C      1  0.5211110000000  0.4265440000000  0.4527120000000 1.0
C      1  0.5111850000000  0.4967970000000  0.5898590000000 1.0
C      1  0.5127610000000  0.5827990000000  0.4636980000000 1.0
C      1  0.4905320000000  0.5055300000000  0.5686120000000 1.0
C      1  0.4700920000000  0.5723130000000  0.4442470000000 1.0
C      1  0.4761890000000  0.4190620000000  0.4668080000000 1.0
C      1  0.5487290000000  0.4275460000000  0.4607450000000 1.0
C      1  0.5411980000000  0.5001470000000  0.5869840000000 1.0
C      1  0.5406880000000  0.5763270000000  0.4616690000000 1.0
C      1  0.4316300000000  0.4983990000000  0.4377690000000 1.0
C      1  0.4393010000000  0.4518810000000  0.5323390000000 1.0
C      1  0.4322360000000  0.5462430000000  0.5347690000000 1.0
C      1  0.5590660000000  0.4301170000000  0.5229090000000 1.0
C      1  0.5712730000000  0.5455700000000  0.5480270000000 1.0
C      1  0.5537020000000  0.5217150000000  0.4410490000000 1.0
C      1  0.4572030000000  0.5174030000000  0.4767030000000 1.0
C      1  0.4724130000000  0.4705770000000  0.4669470000000 1.0
C      1  0.4710620000000  0.4878230000000  0.5251220000000 1.0
C      1  0.5291430000000  0.5828490000000  0.5530260000000 1.0
C      1  0.5259540000000  0.5138010000000  0.3987360000000 1.0
C      1  0.5255730000000  0.4060140000000  0.5473900000000 1.0
C      1  0.4527660000000  0.5877740000000  0.4896440000000 1.0
C      1  0.4582600000000  0.4507120000000  0.4303600000000 1.0
C      1  0.4578610000000  0.4670940000000  0.5693960000000 1.0
C      1  0.4713740000000  0.4701960000000  0.4129420000000 1.0
C      1  0.4661640000000  0.4394260000000  0.5769360000000 1.0
C      1  0.4677450000000  0.5955520000000  0.5145690000000 1.0
C      1  0.4573660000000  0.4904020000000  0.3964640000000 1.0
C      1  0.4541280000000  0.4149510000000  0.5610110000000 1.0
C      1  0.4568620000000  0.5915450000000  0.5435460000000 1.0
C      1  0.4773670000000  0.3970860000000  0.5527970000000 1.0
C      1  0.4819370000000  0.5963080000000  0.5611210000000 1.0
C      1  0.4794960000000  0.5072070000000  0.3835950000000 1.0
C      1  0.5471890000000  0.4043090000000  0.4839160000000 1.0
C      1  0.5490870000000  0.5310040000000  0.5895280000000 1.0
C      1  0.5430210000000  0.5656640000000  0.4326710000000 1.0
C      1  0.5237740000000  0.5388350000000  0.5747160000000 1.0
C      1  0.5151800000000  0.5602020000000  0.4239880000000 1.0
C      1  0.5182090000000  0.3988970000000  0.4895050000000 1.0
C      1  0.5836210000000  0.5815350000000  0.4810490000000 1.0
C      1  0.5852710000000  0.4595980000000  0.4488820000000 1.0
C      1  0.5828270000000  0.4701760000000  0.5759270000000 1.0
C      1  0.5946110000000  0.4537260000000  0.4958030000000 1.0
C      1  0.5930060000000  0.4979960000000  0.5366730000000 1.0
C      1  0.5901060000000  0.5327860000000  0.4731470000000 1.0
C      1  0.5779690000000  0.5118890000000  0.4571930000000 1.0
C      1  0.5848820000000  0.4467460000000  0.5225870000000 1.0
C      1  0.5886780000000  0.5267490000000  0.5289420000000 1.0
C      1  0.5375600000000  0.5004630000000  0.4786540000000 1.0
C      1  0.5462220000000  0.4732640000000  0.5181210000000 1.0
C      1  0.5401400000000  0.5247740000000  0.5157820000000 1.0
C      1  0.5408320000000  0.4468090000000  0.5742730000000 1.0
C      1  0.5447820000000  0.5965420000000  0.5049010000000 1.0
C      1  0.5475300000000  0.4638660000000  0.4199110000000 1.0
C      1  0.4798840000000  0.4805490000000  0.5539830000000 1.0
C      1  0.4643230000000  0.5907580000000  0.4644920000000 1.0
C      1  0.4774470000000  0.4384840000000  0.4459220000000 1.0
C      1  0.4957830000000  0.4374470000000  0.5695930000000 1.0
C      1  0.4978060000000  0.5897810000000  0.5164980000000 1.0
C      1  0.5018530000000  0.4741240000000  0.4116440000000 1.0
C      1  0.4180840000000  0.5593380000000  0.5104520000000 1.0
C      1  0.4161970000000  0.4748730000000  0.4438860000000 1.0
C      1  0.4163870000000  0.4679500000000  0.5356990000000 1.0
C      1  0.4800640000000  0.3962380000000  0.5232930000000 1.0
C      1  0.4878390000000  0.5716780000000  0.5767890000000 1.0
C      1  0.4798910000000  0.5335310000000  0.3981480000000 1.0
C      1  0.4671570000000  0.5234700000000  0.5775840000000 1.0
C      1  0.4497740000000  0.5516380000000  0.4399620000000 1.0
C      1  0.4539700000000  0.4230790000000  0.4843080000000 1.0
C      1  0.5069200000000  0.4467560000000  0.4975970000000 1.0
C      1  0.5154810000000  0.5045180000000  0.5247380000000 1.0
C      1  0.5020200000000  0.5320310000000  0.4628260000000 1.0
C      1  0.4988910000000  0.4733580000000  0.4834800000000 1.0
C      1  0.4935810000000  0.4974980000000  0.5048250000000 1.0
C      1  0.4851500000000  0.5251190000000  0.4908870000000 1.0
C      1  0.4037730000000  0.4760910000000  0.4707190000000 1.0
C      1  0.4073490000000  0.4945280000000  0.5362320000000 1.0
C      1  0.3972420000000  0.5439280000000  0.4958860000000 1.0
C      1  0.5154900000000  0.4296930000000  0.4255930000000 1.0
C      1  0.5081740000000  0.4711910000000  0.6001510000000 1.0
C      1  0.5070910000000  0.6079730000000  0.4746610000000 1.0
C      1  0.4145990000000  0.4532330000000  0.4851530000000 1.0
C      1  0.4236660000000  0.5173660000000  0.5499550000000 1.0
C      1  0.4094140000000  0.5291570000000  0.4721240000000 1.0
C      1  0.5709350000000  0.5176700000000  0.5047250000000 1.0
C      1  0.5670240000000  0.4956060000000  0.4799440000000 1.0
C      1  0.5760840000000  0.4774070000000  0.5194430000000 1.0
C      1  0.5172590000000  0.5669220000000  0.5750750000000 1.0
C      1  0.5084540000000  0.5372620000000  0.4062890000000 1.0
C      1  0.5089330000000  0.3934700000000  0.5164000000000 1.0
C      1  0.5006140000000  0.4583360000000  0.5462860000000 1.0
C      1  0.5025590000000  0.5598300000000  0.5114780000000 1.0
C      1  0.5129760000000  0.4900190000000  0.4376420000000 1.0
C      1  0.5021070000000  0.4089680000000  0.5637190000000 1.0
C      1  0.5059860000000  0.5985040000000  0.5434990000000 1.0
C      1  0.5063250000000  0.4936500000000  0.3885670000000 1.0
C      1  0.4408090000000  0.5093040000000  0.4129690000000 1.0
C      1  0.4397810000000  0.4224590000000  0.5347190000000 1.0
C      1  0.4464620000000  0.5645440000000  0.5536490000000 1.0
C      1  0.5394240000000  0.5001370000000  0.4227800000000 1.0
C      1  0.5458710000000  0.4265270000000  0.5512430000000 1.0
C      1  0.5486650000000  0.5718450000000  0.5307560000000 1.0
C      1  0.4978860000000  0.5621110000000  0.4484330000000 1.0
C      1  0.5042730000000  0.4219710000000  0.4772310000000 1.0
C      1  0.5031280000000  0.5221210000000  0.5460000000000 1.0
C      1  0.5468050000000  0.5284450000000  0.5452200000000 1.0
C      1  0.5336190000000  0.5271570000000  0.4653990000000 1.0
C      1  0.5388980000000  0.4482620000000  0.5057990000000 1.0
C      1  0.5729310000000  0.5423470000000  0.5777640000000 1.0
C      1  0.5608630000000  0.5454730000000  0.4262920000000 1.0
C      1  0.5622720000000  0.4058550000000  0.5075510000000 1.0
C      1  0.5450990000000  0.5522410000000  0.4800070000000 1.0
C      1  0.5484170000000  0.4524710000000  0.4775800000000 1.0
C      1  0.5493450000000  0.4997060000000  0.5573740000000 1.0
C      1  0.5227830000000  0.4785910000000  0.4657350000000 1.0
C      1  0.5291560000000  0.4813900000000  0.5396630000000 1.0
C      1  0.5324500000000  0.5539040000000  0.5092430000000 1.0
C      1  0.4694690000000  0.5510280000000  0.5662530000000 1.0
C      1  0.4575380000000  0.5326750000000  0.4181780000000 1.0
C      1  0.4562040000000  0.4111380000000  0.5118550000000 1.0
C      1  0.5785950000000  0.4935060000000  0.5607140000000 1.0
C      1  0.5749750000000  0.5546120000000  0.4821410000000 1.0
C      1  0.5755980000000  0.4651240000000  0.4756750000000 1.0
END
