TITL C-3577091-527-88 4.46348481622844e-07 125000 -139.436934674233 0 0 24 (Ci) n - 1
REM
REM in /home/bkarasulu/work/CARBON/AIRSS/Generating-Clusters/EDIP-Nigel-Params/with-SteepDescent/Higher-Symm/SD-CG/HFTN-CG
REM
REM
REM
REM
REM
REM ./C.cell (12c818d87b63d06a65506943cc24bca4)
REM
REM compiler GCC version 9.2.1 20190827 (Red Hat 9.2.1-1)
REM options -cpp -mtune=generic -march=x86-64 -g -O0 -fpre-include=/usr/include/finclude/math-vector-fortran.h
REM seed -1741292649 1411735054 -1135960236 -1022093056 439971342 -1251748050 -1662144084 1268476505 -838823286 915858051 -1373421716 -1599341095 718359337 -2055888761 -334884736 1519155993 1286225598 592954351 41033990 1242178241 -1943712270 -930524519 -1632971452 712408795 1545229621 180857074 313654973 1123635427 -332499420 -842399019 532335798 -198212898 -681281504
REM
CELL 1.54180   50.00000   50.00000   50.00000   90.00000   90.00000   90.00000
LATT -1
SFAC C  
C      1  0.4390550000000  0.4910530000000  0.4691340000000 1.0
C      1  0.5609450000000  0.5089470000000  0.5308660000000 1.0
C      1  0.4983280000000  0.4747270000000  0.5382090000000 1.0
C      1  0.5016720000000  0.5252730000000  0.4617910000000 1.0
C      1  0.5184830000000  0.5361400000000  0.5054380000000 1.0
C      1  0.4815170000000  0.4638600000000  0.4945620000000 1.0
C      1  0.4784280000000  0.5543620000000  0.4914200000000 1.0
C      1  0.5215720000000  0.4456380000000  0.5085800000000 1.0
C      1  0.4574450000000  0.5374480000000  0.4975390000000 1.0
C      1  0.5425550000000  0.4625520000000  0.5024610000000 1.0
C      1  0.5368540000000  0.5016950000000  0.5421100000000 1.0
C      1  0.4631460000000  0.4983050000000  0.4578900000000 1.0
C      1  0.5007310000000  0.4808580000000  0.4805640000000 1.0
C      1  0.4992690000000  0.5191420000000  0.5194360000000 1.0
C      1  0.5280680000000  0.4722580000000  0.4810740000000 1.0
C      1  0.4719320000000  0.5277420000000  0.5189260000000 1.0
C      1  0.4334690000000  0.4663350000000  0.4802780000000 1.0
C      1  0.5665310000000  0.5336650000000  0.5197220000000 1.0
C      1  0.5093230000000  0.5004210000000  0.5391210000000 1.0
C      1  0.4906770000000  0.4995790000000  0.4608790000000 1.0
C      1  0.5460610000000  0.5282580000000  0.5017580000000 1.0
C      1  0.4539390000000  0.4717420000000  0.4982420000000 1.0
C      1  0.4955800000000  0.4540320000000  0.5188230000000 1.0
C      1  0.5044200000000  0.5459680000000  0.4811770000000 1.0
END
