TITL C-3578197-9521-469 -2.3497885304323e-06 125000 -713.780679546002 0 0 114 (C1) n - 1
REM
REM in /home/bkarasulu/work/CARBON/AIRSS/Generating-Clusters/EDIP-Nigel-Params/with-SteepDescent/Higher-Symm/SD-CG/HFTN-CG
REM
REM
REM
REM
REM
REM ./C.cell (12c818d87b63d06a65506943cc24bca4)
REM
REM compiler GCC version 9.2.1 20190827 (Red Hat 9.2.1-1)
REM options -cpp -mtune=generic -march=x86-64 -g -O0 -fpre-include=/usr/include/finclude/math-vector-fortran.h
REM seed 1606663805 1594874870 -1088080868 -1870590216 1044043863 512298050 587388720 -572985555 -1706131062 -715020198 -1015838431 1063916325 -53580719 -1249373055 -997232347 35027858 593425527 -1180998295 -1386424101 868626359 -85293459 1311965271 -161513110 -680927045 1955351528 -366350441 1613608688 952679133 -644911228 183121500 535836050 -1305255750 1800723348
REM
CELL 1.54180   50.00000   50.00000   50.00000   90.00000   90.00000   90.00000
LATT -1
SFAC C  
C      1  0.5012030000000  0.5165780000000  0.4673350000000 1.0
C      1  0.5272410000000  0.5117600000000  0.4856680000000 1.0
C      1  0.5242990000000  0.5178070000000  0.5201150000000 1.0
C      1  0.4932090000000  0.5180490000000  0.5347340000000 1.0
C      1  0.4672700000000  0.5086240000000  0.5158100000000 1.0
C      1  0.4720960000000  0.5146660000000  0.4826210000000 1.0
C      1  0.5042050000000  0.4787990000000  0.4661650000000 1.0
C      1  0.5282190000000  0.4814160000000  0.4866990000000 1.0
C      1  0.5286310000000  0.4857470000000  0.5182340000000 1.0
C      1  0.4995630000000  0.4824720000000  0.5309680000000 1.0
C      1  0.4765270000000  0.4797470000000  0.5098320000000 1.0
C      1  0.4749380000000  0.4839880000000  0.4792340000000 1.0
C      1  0.5178660000000  0.4552360000000  0.4314650000000 1.0
C      1  0.5740330000000  0.4461790000000  0.4768000000000 1.0
C      1  0.5533750000000  0.4606280000000  0.5444600000000 1.0
C      1  0.4836990000000  0.4562200000000  0.5686160000000 1.0
C      1  0.4326760000000  0.4543730000000  0.5186560000000 1.0
C      1  0.4468090000000  0.4502080000000  0.4469530000000 1.0
C      1  0.5123400000000  0.5407010000000  0.4321160000000 1.0
C      1  0.5681170000000  0.5457350000000  0.4801730000000 1.0
C      1  0.5546870000000  0.5528300000000  0.5519460000000 1.0
C      1  0.4850750000000  0.5424750000000  0.5705630000000 1.0
C      1  0.4279020000000  0.5526250000000  0.5241520000000 1.0
C      1  0.4435260000000  0.5494170000000  0.4530930000000 1.0
C      1  0.5262980000000  0.5505290000000  0.4546860000000 1.0
C      1  0.5549360000000  0.5564890000000  0.5033240000000 1.0
C      1  0.5266330000000  0.5600200000000  0.5517120000000 1.0
C      1  0.4708850000000  0.5534280000000  0.5484380000000 1.0
C      1  0.4406280000000  0.5644400000000  0.5005060000000 1.0
C      1  0.4708970000000  0.5598910000000  0.4507270000000 1.0
C      1  0.5318080000000  0.4397430000000  0.4509110000000 1.0
C      1  0.5597100000000  0.4378630000000  0.5011220000000 1.0
C      1  0.5263770000000  0.4511000000000  0.5453150000000 1.0
C      1  0.4700660000000  0.4409860000000  0.5482240000000 1.0
C      1  0.4419760000000  0.4392290000000  0.4954010000000 1.0
C      1  0.4751340000000  0.4489640000000  0.4523010000000 1.0
C      1  0.5126570000000  0.5743410000000  0.5287560000000 1.0
C      1  0.4839040000000  0.5666880000000  0.5264780000000 1.0
C      1  0.4685630000000  0.5764170000000  0.5026530000000 1.0
C      1  0.4857250000000  0.5740020000000  0.4736320000000 1.0
C      1  0.5132350000000  0.5630830000000  0.4770250000000 1.0
C      1  0.5295330000000  0.5725530000000  0.5002400000000 1.0
C      1  0.5146440000000  0.4348970000000  0.5246060000000 1.0
C      1  0.4858060000000  0.4262430000000  0.5261400000000 1.0
C      1  0.4693120000000  0.4245580000000  0.4957040000000 1.0
C      1  0.4866510000000  0.4324810000000  0.4728160000000 1.0
C      1  0.5158570000000  0.4247150000000  0.4724630000000 1.0
C      1  0.5316190000000  0.4250710000000  0.5019890000000 1.0
C      1  0.4713830000000  0.3938680000000  0.4985550000000 1.0
C      1  0.4900180000000  0.3833850000000  0.4797890000000 1.0
C      1  0.5161720000000  0.3934000000000  0.4747740000000 1.0
C      1  0.5300060000000  0.3941620000000  0.5016990000000 1.0
C      1  0.5115100000000  0.3847600000000  0.5210600000000 1.0
C      1  0.4854370000000  0.3952280000000  0.5251190000000 1.0
C      1  0.4720220000000  0.6071090000000  0.5002690000000 1.0
C      1  0.4874560000000  0.6051540000000  0.4743060000000 1.0
C      1  0.5138070000000  0.6142130000000  0.4796520000000 1.0
C      1  0.5302910000000  0.6036860000000  0.5001920000000 1.0
C      1  0.5147330000000  0.6054880000000  0.5262860000000 1.0
C      1  0.4896290000000  0.6171280000000  0.5201070000000 1.0
C      1  0.5112420000000  0.4603180000000  0.5674040000000 1.0
C      1  0.4427850000000  0.4507220000000  0.5450590000000 1.0
C      1  0.4298310000000  0.4496590000000  0.4706240000000 1.0
C      1  0.4902950000000  0.4572490000000  0.4300140000000 1.0
C      1  0.5599730000000  0.4480320000000  0.4516350000000 1.0
C      1  0.5710880000000  0.4519430000000  0.5238230000000 1.0
C      1  0.5122210000000  0.5490290000000  0.5739960000000 1.0
C      1  0.4428240000000  0.5481310000000  0.5485450000000 1.0
C      1  0.4269430000000  0.5562050000000  0.4758810000000 1.0
C      1  0.4852190000000  0.5478790000000  0.4286410000000 1.0
C      1  0.5536720000000  0.5430250000000  0.4556950000000 1.0
C      1  0.5694970000000  0.5517110000000  0.5277030000000 1.0
C      1  0.4082050000000  0.5199260000000  0.4933390000000 1.0
C      1  0.4500050000000  0.5169900000000  0.4156320000000 1.0
C      1  0.5518800000000  0.5135160000000  0.4155300000000 1.0
C      1  0.5873470000000  0.5100230000000  0.5078840000000 1.0
C      1  0.5495490000000  0.5206260000000  0.5894280000000 1.0
C      1  0.4470540000000  0.5132900000000  0.5839700000000 1.0
C      1  0.4113100000000  0.4909910000000  0.4921510000000 1.0
C      1  0.4548540000000  0.4877060000000  0.4132970000000 1.0
C      1  0.5550000000000  0.4842080000000  0.4161420000000 1.0
C      1  0.5959030000000  0.4825790000000  0.5033550000000 1.0
C      1  0.5459350000000  0.4920280000000  0.5827480000000 1.0
C      1  0.4458200000000  0.4841150000000  0.5833670000000 1.0
C      1  0.5242680000000  0.5219610000000  0.4139910000000 1.0
C      1  0.5808510000000  0.5196070000000  0.4819980000000 1.0
C      1  0.5649780000000  0.5320540000000  0.5684210000000 1.0
C      1  0.4738280000000  0.5229140000000  0.5878480000000 1.0
C      1  0.4170630000000  0.5257520000000  0.5200050000000 1.0
C      1  0.4375460000000  0.5221210000000  0.4419800000000 1.0
C      1  0.5299850000000  0.4724650000000  0.4135190000000 1.0
C      1  0.5863240000000  0.4731980000000  0.4772250000000 1.0
C      1  0.5598480000000  0.4866390000000  0.5570520000000 1.0
C      1  0.4711440000000  0.4729660000000  0.5873340000000 1.0
C      1  0.4215180000000  0.4814400000000  0.5170710000000 1.0
C      1  0.4387480000000  0.4764490000000  0.4356740000000 1.0
C      1  0.5260330000000  0.5351820000000  0.5938080000000 1.0
C      1  0.4322830000000  0.5254050000000  0.5627710000000 1.0
C      1  0.4022840000000  0.5420120000000  0.4770060000000 1.0
C      1  0.4706890000000  0.5346760000000  0.4088330000000 1.0
C      1  0.5661030000000  0.5250160000000  0.4373200000000 1.0
C      1  0.5880070000000  0.5294550000000  0.5286460000000 1.0
C      1  0.5191050000000  0.4823770000000  0.5836260000000 1.0
C      1  0.4342970000000  0.4728720000000  0.5604920000000 1.0
C      1  0.4120260000000  0.4728890000000  0.4706930000000 1.0
C      1  0.4824290000000  0.4797570000000  0.4142610000000 1.0
C      1  0.5687750000000  0.4742980000000  0.4401300000000 1.0
C      1  0.5968350000000  0.4632230000000  0.5233750000000 1.0
C      1  0.4916110000000  0.4993800000000  0.5630240000000 1.0
C      1  0.5620380000000  0.5009110000000  0.4670070000000 1.0
C      1  0.5547650000000  0.5111030000000  0.5372930000000 1.0
C      1  0.4363550000000  0.5043520000000  0.5310210000000 1.0
C      1  0.4422750000000  0.4958040000000  0.4614110000000 1.0
C      1  0.5067170000000  0.4974100000000  0.4379120000000 1.0
END
