TITL C-3578206-1180-448 -1.17929151393712e-06 125000 -321.293765853345 0 0 53 (C1) n - 1
REM
REM in /home/bkarasulu/work/CARBON/AIRSS/Generating-Clusters/EDIP-Nigel-Params/with-SteepDescent/Higher-Symm/SD-CG/HFTN-CG
REM
REM
REM
REM
REM
REM ./C.cell (12c818d87b63d06a65506943cc24bca4)
REM
REM compiler GCC version 9.2.1 20190827 (Red Hat 9.2.1-1)
REM options -cpp -mtune=generic -march=x86-64 -g -O0 -fpre-include=/usr/include/finclude/math-vector-fortran.h
REM seed -1074121294 1498751500 -1069834452 -1277827066 -739860497 1425722942 -506319037 1564870390 -1970996996 1607781228 556117483 -1417912178 1688467375 -120600909 -2074237485 2010288050 814193669 271953354 -903191025 2128450009 -1031360730 -1998443271 -506635675 1452339993 -1834019269 1632438430 -1997543880 -158092631 540339435 -1907616935 -293610675 -36310747 728246569
REM
CELL 1.54180   50.00000   50.00000   50.00000   90.00000   90.00000   90.00000
LATT -1
SFAC C  
C      1  0.4810660000000  0.5356950000000  0.4573040000000 1.0
C      1  0.5410700000000  0.5053780000000  0.4533060000000 1.0
C      1  0.4846050000000  0.4630620000000  0.4561180000000 1.0
C      1  0.4689110000000  0.4648990000000  0.5504900000000 1.0
C      1  0.5331190000000  0.4943090000000  0.5416250000000 1.0
C      1  0.4772930000000  0.5399310000000  0.5447960000000 1.0
C      1  0.4289890000000  0.5426880000000  0.5302620000000 1.0
C      1  0.5649740000000  0.5266000000000  0.5328840000000 1.0
C      1  0.4823900000000  0.4195630000000  0.5394860000000 1.0
C      1  0.4427420000000  0.4608360000000  0.4841760000000 1.0
C      1  0.5741500000000  0.4705890000000  0.4625210000000 1.0
C      1  0.4879210000000  0.5728790000000  0.4928600000000 1.0
C      1  0.4757720000000  0.4892030000000  0.4441820000000 1.0
C      1  0.5030330000000  0.5307200000000  0.4377920000000 1.0
C      1  0.5239510000000  0.4867990000000  0.4380550000000 1.0
C      1  0.4693700000000  0.5136130000000  0.5557070000000 1.0
C      1  0.4954750000000  0.4731230000000  0.5645840000000 1.0
C      1  0.5175200000000  0.5161910000000  0.5533070000000 1.0
C      1  0.5025110000000  0.5220590000000  0.4933830000000 1.0
C      1  0.5360430000000  0.4671390000000  0.4900530000000 1.0
C      1  0.4785840000000  0.4899030000000  0.5108300000000 1.0
C      1  0.5153770000000  0.4532000000000  0.5072160000000 1.0
C      1  0.5316220000000  0.5197490000000  0.5055410000000 1.0
C      1  0.4517890000000  0.5320860000000  0.5014960000000 1.0
C      1  0.5343310000000  0.4433510000000  0.4589940000000 1.0
C      1  0.4577820000000  0.5037710000000  0.4911890000000 1.0
C      1  0.5243030000000  0.5431830000000  0.4805990000000 1.0
C      1  0.5248860000000  0.5590340000000  0.5243310000000 1.0
C      1  0.4324120000000  0.4902800000000  0.5251980000000 1.0
C      1  0.5247620000000  0.4443840000000  0.5339670000000 1.0
C      1  0.4699860000000  0.4532690000000  0.4808240000000 1.0
C      1  0.4777320000000  0.5629370000000  0.4675300000000 1.0
C      1  0.5676060000000  0.4977330000000  0.4625680000000 1.0
C      1  0.4549990000000  0.5542390000000  0.5333830000000 1.0
C      1  0.4718860000000  0.4439890000000  0.5298970000000 1.0
C      1  0.5598190000000  0.4993140000000  0.5317510000000 1.0
C      1  0.4655100000000  0.5102730000000  0.4621970000000 1.0
C      1  0.5299860000000  0.5328800000000  0.4517800000000 1.0
C      1  0.5144660000000  0.4634040000000  0.4530290000000 1.0
C      1  0.4613890000000  0.4904380000000  0.5360550000000 1.0
C      1  0.5228290000000  0.4685260000000  0.5515350000000 1.0
C      1  0.5063490000000  0.5384310000000  0.5369550000000 1.0
C      1  0.5519880000000  0.5485440000000  0.5221440000000 1.0
C      1  0.5087610000000  0.4232260000000  0.5433860000000 1.0
C      1  0.4229020000000  0.5158080000000  0.5306860000000 1.0
C      1  0.5576600000000  0.4510610000000  0.4741540000000 1.0
C      1  0.5173580000000  0.5701760000000  0.4964120000000 1.0
C      1  0.4338150000000  0.4855040000000  0.4949030000000 1.0
C      1  0.4811620000000  0.5429850000000  0.5012150000000 1.0
C      1  0.4849150000000  0.4597180000000  0.5066170000000 1.0
C      1  0.5490440000000  0.4952880000000  0.4957170000000 1.0
C      1  0.4945050000000  0.5032110000000  0.5677610000000 1.0
C      1  0.4995270000000  0.5016420000000  0.4294360000000 1.0
END
