TITL C-3578209-2550-654 -3.8195125805489e-06 125000 -720.466154687025 0 0 116 (C1) n - 1
REM
REM in /home/bkarasulu/work/CARBON/AIRSS/Generating-Clusters/EDIP-Nigel-Params/with-SteepDescent/Higher-Symm/SD-CG/HFTN-CG
REM
REM
REM
REM
REM
REM ./C.cell (12c818d87b63d06a65506943cc24bca4)
REM
REM compiler GCC version 9.2.1 20190827 (Red Hat 9.2.1-1)
REM options -cpp -mtune=generic -march=x86-64 -g -O0 -fpre-include=/usr/include/finclude/math-vector-fortran.h
REM seed -801677116 612014494 -618376240 -673059143 230902269 -1529131374 373395009 1180760592 221515693 -1565870879 -834946376 371892996 -176926734 1746412420 -439969946 -916571762 -644376068 -162308116 -548279794 1931582459 909128774 1749900548 1665528707 346829136 897039818 -679881662 1887798075 1522914199 -1884391015 -1213711862 2072245006 -1886696617 -241517568
REM
CELL 1.54180   50.00000   50.00000   50.00000   90.00000   90.00000   90.00000
LATT -1
SFAC C  
C      1  0.5189340000000  0.4348360000000  0.5229720000000 1.0
C      1  0.5183080000000  0.5307790000000  0.4158210000000 1.0
C      1  0.4111070000000  0.5357730000000  0.5363540000000 1.0
C      1  0.4798060000000  0.5740840000000  0.5202460000000 1.0
C      1  0.4806350000000  0.4283700000000  0.4745220000000 1.0
C      1  0.5197550000000  0.5719250000000  0.4750770000000 1.0
C      1  0.4801970000000  0.4690980000000  0.4141810000000 1.0
C      1  0.4779470000000  0.5286740000000  0.5880240000000 1.0
C      1  0.5208970000000  0.4743140000000  0.5813150000000 1.0
C      1  0.5879410000000  0.4725970000000  0.5346550000000 1.0
C      1  0.5673120000000  0.5162230000000  0.4731600000000 1.0
C      1  0.4325120000000  0.4837130000000  0.4734950000000 1.0
C      1  0.5248180000000  0.4329190000000  0.4792200000000 1.0
C      1  0.5223100000000  0.5303930000000  0.5856210000000 1.0
C      1  0.4169160000000  0.5096840000000  0.4700100000000 1.0
C      1  0.4753150000000  0.5695910000000  0.4766830000000 1.0
C      1  0.4623000000000  0.4117310000000  0.5290650000000 1.0
C      1  0.5266210000000  0.5712290000000  0.5242760000000 1.0
C      1  0.4769910000000  0.4698300000000  0.5820900000000 1.0
C      1  0.4745450000000  0.5249630000000  0.4182320000000 1.0
C      1  0.5241940000000  0.4709280000000  0.4117920000000 1.0
C      1  0.5826300000000  0.4905420000000  0.4682000000000 1.0
C      1  0.5698400000000  0.5123480000000  0.5271300000000 1.0
C      1  0.4324890000000  0.4888700000000  0.5260450000000 1.0
C      1  0.4884500000000  0.5390870000000  0.5153840000000 1.0
C      1  0.5134300000000  0.4904630000000  0.5561740000000 1.0
C      1  0.5367670000000  0.5121510000000  0.4857390000000 1.0
C      1  0.5082730000000  0.4646930000000  0.5158130000000 1.0
C      1  0.5169530000000  0.5340010000000  0.4720840000000 1.0
C      1  0.4825680000000  0.4662420000000  0.4711130000000 1.0
C      1  0.4717280000000  0.5098760000000  0.5544140000000 1.0
C      1  0.4896870000000  0.4800940000000  0.4426140000000 1.0
C      1  0.5113980000000  0.5189560000000  0.4439490000000 1.0
C      1  0.4622950000000  0.4891210000000  0.4835230000000 1.0
C      1  0.4694210000000  0.5177530000000  0.5254720000000 1.0
C      1  0.5260820000000  0.4857820000000  0.5289280000000 1.0
C      1  0.4887680000000  0.5380130000000  0.4845040000000 1.0
C      1  0.5216550000000  0.4898410000000  0.4453070000000 1.0
C      1  0.5369920000000  0.5121920000000  0.5171680000000 1.0
C      1  0.5102190000000  0.4636740000000  0.4852710000000 1.0
C      1  0.5162710000000  0.5353810000000  0.5301770000000 1.0
C      1  0.4807090000000  0.4703940000000  0.5269110000000 1.0
C      1  0.4817210000000  0.5100270000000  0.4442150000000 1.0
C      1  0.4847210000000  0.4827050000000  0.5547270000000 1.0
C      1  0.5090740000000  0.5205500000000  0.5588200000000 1.0
C      1  0.4615660000000  0.4905540000000  0.5140260000000 1.0
C      1  0.4721010000000  0.5154640000000  0.4722430000000 1.0
C      1  0.5273620000000  0.4859230000000  0.4743980000000 1.0
C      1  0.5476790000000  0.4383750000000  0.5268690000000 1.0
C      1  0.5236460000000  0.5577470000000  0.4264060000000 1.0
C      1  0.4301640000000  0.5345300000000  0.5570300000000 1.0
C      1  0.4537140000000  0.5647160000000  0.5261300000000 1.0
C      1  0.4532060000000  0.4335950000000  0.4724360000000 1.0
C      1  0.5471730000000  0.5656700000000  0.4728660000000 1.0
C      1  0.4745930000000  0.4423010000000  0.4252850000000 1.0
C      1  0.4783130000000  0.5506650000000  0.5694790000000 1.0
C      1  0.5242270000000  0.4469270000000  0.5706270000000 1.0
C      1  0.5708760000000  0.4711450000000  0.5571010000000 1.0
C      1  0.5630310000000  0.5269190000000  0.4460090000000 1.0
C      1  0.4362970000000  0.4732480000000  0.4462000000000 1.0
C      1  0.5524310000000  0.4410640000000  0.4767710000000 1.0
C      1  0.5329420000000  0.5546480000000  0.5727950000000 1.0
C      1  0.4294770000000  0.5223960000000  0.4465530000000 1.0
C      1  0.4471960000000  0.5621920000000  0.4761660000000 1.0
C      1  0.4466310000000  0.4346280000000  0.5258010000000 1.0
C      1  0.5523920000000  0.5600920000000  0.5251020000000 1.0
C      1  0.4691370000000  0.4443620000000  0.5711560000000 1.0
C      1  0.4694290000000  0.5519030000000  0.4298440000000 1.0
C      1  0.5281300000000  0.4492280000000  0.4304130000000 1.0
C      1  0.5697340000000  0.4777750000000  0.4449560000000 1.0
C      1  0.5700780000000  0.5210620000000  0.5547390000000 1.0
C      1  0.4374220000000  0.4818500000000  0.5537980000000 1.0
C      1  0.5091140000000  0.5945000000000  0.4618920000000 1.0
C      1  0.4544770000000  0.5127060000000  0.5949000000000 1.0
C      1  0.5864370000000  0.4614620000000  0.5089500000000 1.0
C      1  0.4917770000000  0.4058270000000  0.4617470000000 1.0
C      1  0.4906370000000  0.5921800000000  0.5395530000000 1.0
C      1  0.5096140000000  0.4089120000000  0.5317570000000 1.0
C      1  0.5410050000000  0.4858210000000  0.5980690000000 1.0
C      1  0.5389870000000  0.5175840000000  0.4005990000000 1.0
C      1  0.4586770000000  0.4829210000000  0.4003930000000 1.0
C      1  0.4136700000000  0.5424770000000  0.5093130000000 1.0
C      1  0.4205550000000  0.4635240000000  0.4917920000000 1.0
C      1  0.5813730000000  0.5353880000000  0.4909640000000 1.0
C      1  0.5184220000000  0.5932120000000  0.5398990000000 1.0
C      1  0.4578700000000  0.5113750000000  0.3986930000000 1.0
C      1  0.5962650000000  0.4753760000000  0.4873180000000 1.0
C      1  0.4847840000000  0.4064990000000  0.5447180000000 1.0
C      1  0.4814600000000  0.5938240000000  0.4620710000000 1.0
C      1  0.5191360000000  0.4098700000000  0.4627640000000 1.0
C      1  0.5413250000000  0.4892390000000  0.3984830000000 1.0
C      1  0.5431250000000  0.5139220000000  0.5972750000000 1.0
C      1  0.4579110000000  0.4847250000000  0.5969240000000 1.0
C      1  0.4046450000000  0.5253470000000  0.4896670000000 1.0
C      1  0.4105670000000  0.4746910000000  0.5150350000000 1.0
C      1  0.5920810000000  0.5232040000000  0.5132700000000 1.0
C      1  0.4407790000000  0.4988900000000  0.4305930000000 1.0
C      1  0.4344350000000  0.5083710000000  0.5721370000000 1.0
C      1  0.5607930000000  0.4503110000000  0.5036210000000 1.0
C      1  0.4391940000000  0.5537260000000  0.5033180000000 1.0
C      1  0.5678950000000  0.4969980000000  0.5728450000000 1.0
C      1  0.5602840000000  0.5020180000000  0.4289720000000 1.0
C      1  0.5022650000000  0.4325160000000  0.4363280000000 1.0
C      1  0.4410150000000  0.4440050000000  0.4973910000000 1.0
C      1  0.4960410000000  0.5674440000000  0.4379490000000 1.0
C      1  0.4956340000000  0.4320240000000  0.5604610000000 1.0
C      1  0.5051740000000  0.5644290000000  0.5618790000000 1.0
C      1  0.5596220000000  0.5532620000000  0.4968950000000 1.0
C      1  0.4542690000000  0.5504040000000  0.5515800000000 1.0
C      1  0.5497610000000  0.4561130000000  0.4507080000000 1.0
C      1  0.5469440000000  0.4540120000000  0.5516560000000 1.0
C      1  0.5473920000000  0.5523100000000  0.4460920000000 1.0
C      1  0.4480740000000  0.5457650000000  0.4509510000000 1.0
C      1  0.4483410000000  0.4524320000000  0.5509040000000 1.0
C      1  0.4517720000000  0.4476450000000  0.4458660000000 1.0
C      1  0.5532150000000  0.5456180000000  0.5516540000000 1.0
END
