TITL C-3578201-9217-597 -1.05654616273081e-06 125000 -363.007792902392 0 0 58 (C1) n - 1
REM
REM in /home/bkarasulu/work/CARBON/AIRSS/Generating-Clusters/EDIP-Nigel-Params/with-SteepDescent/Higher-Symm/SD-CG/HFTN-CG
REM
REM
REM
REM
REM
REM ./C.cell (12c818d87b63d06a65506943cc24bca4)
REM
REM compiler GCC version 9.2.1 20190827 (Red Hat 9.2.1-1)
REM options -cpp -mtune=generic -march=x86-64 -g -O0 -fpre-include=/usr/include/finclude/math-vector-fortran.h
REM seed 538573930 -34379892 253847973 -1939619962 -1636774714 462200090 -1912082854 1880290001 -2118479666 -1387399292 -1377080512 -498587391 664030741 -1676985950 2109937940 1440511149 -1942487110 -417031072 -1006801266 2113623947 1382328550 1682501164 1171577317 -1960564276 1405620867 117523063 -1830136558 1310421681 -1404555810 137235516 824963769 1869935863 1540033979
REM
CELL 1.54180   50.00000   50.00000   50.00000   90.00000   90.00000   90.00000
LATT -1
SFAC C  
C      1  0.4440140000000  0.5189730000000  0.5302730000000 1.0
C      1  0.4690070000000  0.5107800000000  0.4519870000000 1.0
C      1  0.5335530000000  0.5140060000000  0.4448080000000 1.0
C      1  0.5467030000000  0.5146630000000  0.5112000000000 1.0
C      1  0.4978390000000  0.5122370000000  0.5639860000000 1.0
C      1  0.5444810000000  0.4857500000000  0.5078490000000 1.0
C      1  0.5474990000000  0.4872610000000  0.4495670000000 1.0
C      1  0.4690360000000  0.4795090000000  0.4449640000000 1.0
C      1  0.4515830000000  0.4901860000000  0.5246580000000 1.0
C      1  0.4901600000000  0.4826220000000  0.5668990000000 1.0
C      1  0.5169750000000  0.5656500000000  0.5501680000000 1.0
C      1  0.4744960000000  0.5563370000000  0.5302780000000 1.0
C      1  0.4952100000000  0.5446300000000  0.4810490000000 1.0
C      1  0.5036550000000  0.5498700000000  0.4531720000000 1.0
C      1  0.5162690000000  0.5515680000000  0.5015970000000 1.0
C      1  0.4706980000000  0.4487200000000  0.5371240000000 1.0
C      1  0.5210170000000  0.4443650000000  0.5028510000000 1.0
C      1  0.5468950000000  0.4473270000000  0.4822380000000 1.0
C      1  0.4873280000000  0.4379660000000  0.4639060000000 1.0
C      1  0.4688120000000  0.4406990000000  0.5081820000000 1.0
C      1  0.5622220000000  0.5306330000000  0.4928180000000 1.0
C      1  0.5271280000000  0.5177860000000  0.5654760000000 1.0
C      1  0.4476330000000  0.5267870000000  0.5583940000000 1.0
C      1  0.4420490000000  0.5207490000000  0.4660220000000 1.0
C      1  0.5121020000000  0.5134570000000  0.4248700000000 1.0
C      1  0.4384070000000  0.4812330000000  0.4992390000000 1.0
C      1  0.4602770000000  0.4801700000000  0.5714260000000 1.0
C      1  0.5416870000000  0.4748440000000  0.5355290000000 1.0
C      1  0.5713830000000  0.4885290000000  0.4673350000000 1.0
C      1  0.4916770000000  0.4691890000000  0.4290330000000 1.0
C      1  0.5222920000000  0.5283360000000  0.5216900000000 1.0
C      1  0.4940810000000  0.5173500000000  0.5335790000000 1.0
C      1  0.4603960000000  0.5365010000000  0.5129890000000 1.0
C      1  0.4822860000000  0.5171760000000  0.4802630000000 1.0
C      1  0.5331750000000  0.5429440000000  0.4553930000000 1.0
C      1  0.4831980000000  0.4916890000000  0.5216620000000 1.0
C      1  0.4935530000000  0.4684080000000  0.5397080000000 1.0
C      1  0.5191630000000  0.4805260000000  0.4895400000000 1.0
C      1  0.5296930000000  0.4657860000000  0.4627850000000 1.0
C      1  0.4633050000000  0.4559780000000  0.4627710000000 1.0
C      1  0.5429340000000  0.5510360000000  0.4831050000000 1.0
C      1  0.5312600000000  0.5414340000000  0.5470610000000 1.0
C      1  0.4730340000000  0.5409980000000  0.5559480000000 1.0
C      1  0.4513360000000  0.5405750000000  0.4857800000000 1.0
C      1  0.4893650000000  0.5296120000000  0.4350780000000 1.0
C      1  0.4520820000000  0.4574460000000  0.4899490000000 1.0
C      1  0.4490290000000  0.4679190000000  0.5464570000000 1.0
C      1  0.5201970000000  0.4561400000000  0.5313780000000 1.0
C      1  0.5654080000000  0.4704140000000  0.4908800000000 1.0
C      1  0.5078730000000  0.4510710000000  0.4464720000000 1.0
C      1  0.5769000000000  0.5152580000000  0.4744120000000 1.0
C      1  0.4478830000000  0.5049680000000  0.5757940000000 1.0
C      1  0.4299410000000  0.4994980000000  0.4798190000000 1.0
C      1  0.5390500000000  0.4939090000000  0.5562050000000 1.0
C      1  0.5055890000000  0.4885010000000  0.4147240000000 1.0
C      1  0.4941660000000  0.4329610000000  0.4930320000000 1.0
C      1  0.5021200000000  0.5677080000000  0.5257990000000 1.0
C      1  0.4926980000000  0.4928610000000  0.4943250000000 1.0
END
