TITL C-3577077-324-179 -2.94402597386428e-06 125000 -867.154341137235 0 0 143 (C1) n - 1
REM
REM in /home/bkarasulu/work/CARBON/AIRSS/Generating-Clusters/EDIP-Nigel-Params/with-SteepDescent/Higher-Symm/SD-CG/HFTN-CG
REM
REM
REM
REM
REM
REM ./C.cell (12c818d87b63d06a65506943cc24bca4)
REM
REM compiler GCC version 9.2.1 20190827 (Red Hat 9.2.1-1)
REM options -cpp -mtune=generic -march=x86-64 -g -O0 -fpre-include=/usr/include/finclude/math-vector-fortran.h
REM seed 282873484 -884797530 164680338 1851090077 -956275880 -360126101 439494813 -178001390 -313018567 420138451 1313488237 -2104186296 -1964568275 1015155029 1393993222 1074255950 -373460524 1199987241 -966898742 1859952406 1150345431 -1327286010 -210861969 455538790 -1505460412 603076100 1365154992 -173328525 -594193092 -917105284 461176907 631986932 -1011222703
REM
CELL 1.54180   50.00000   50.00000   50.00000   90.00000   90.00000   90.00000
LATT -1
SFAC C  
C      1  0.5321650000000  0.4614670000000  0.4652740000000 1.0
C      1  0.5230320000000  0.4859700000000  0.4520100000000 1.0
C      1  0.5274250000000  0.5151330000000  0.4458560000000 1.0
C      1  0.5218250000000  0.5342670000000  0.4667410000000 1.0
C      1  0.5391730000000  0.5304220000000  0.4895140000000 1.0
C      1  0.5337550000000  0.5377340000000  0.5170000000000 1.0
C      1  0.5322180000000  0.5262330000000  0.5476570000000 1.0
C      1  0.5222400000000  0.4982700000000  0.5559120000000 1.0
C      1  0.5335740000000  0.4668740000000  0.5562640000000 1.0
C      1  0.5342150000000  0.4421250000000  0.5308930000000 1.0
C      1  0.5307560000000  0.4420160000000  0.4990950000000 1.0
C      1  0.5969010000000  0.5410540000000  0.4633510000000 1.0
C      1  0.6058940000000  0.5355510000000  0.4890240000000 1.0
C      1  0.5979260000000  0.5357550000000  0.5155170000000 1.0
C      1  0.5999210000000  0.5133670000000  0.5316170000000 1.0
C      1  0.5863110000000  0.4957430000000  0.5482280000000 1.0
C      1  0.5836730000000  0.4678940000000  0.5388310000000 1.0
C      1  0.5938020000000  0.4616720000000  0.5134100000000 1.0
C      1  0.5891110000000  0.4629300000000  0.4858170000000 1.0
C      1  0.6015930000000  0.4805670000000  0.4683050000000 1.0
C      1  0.5962320000000  0.4940960000000  0.4444840000000 1.0
C      1  0.6032710000000  0.5209290000000  0.4453150000000 1.0
C      1  0.5343430000000  0.4873590000000  0.6023210000000 1.0
C      1  0.5382370000000  0.4290610000000  0.5854950000000 1.0
C      1  0.5334170000000  0.3851150000000  0.5340800000000 1.0
C      1  0.5386480000000  0.4075520000000  0.4686990000000 1.0
C      1  0.5304740000000  0.4287550000000  0.4165020000000 1.0
C      1  0.5354040000000  0.4858670000000  0.3992850000000 1.0
C      1  0.5339200000000  0.5494940000000  0.4044430000000 1.0
C      1  0.5372390000000  0.5871530000000  0.4473600000000 1.0
C      1  0.5271020000000  0.6038380000000  0.5014010000000 1.0
C      1  0.5426460000000  0.5769660000000  0.5470870000000 1.0
C      1  0.5239550000000  0.5478030000000  0.6034080000000 1.0
C      1  0.4390230000000  0.4893260000000  0.4531990000000 1.0
C      1  0.4303150000000  0.5208300000000  0.4501530000000 1.0
C      1  0.4302040000000  0.5521330000000  0.4643080000000 1.0
C      1  0.4195180000000  0.5682450000000  0.4893350000000 1.0
C      1  0.4308500000000  0.5655710000000  0.5182750000000 1.0
C      1  0.4293640000000  0.5436280000000  0.5366930000000 1.0
C      1  0.4300950000000  0.4883320000000  0.5551790000000 1.0
C      1  0.4322890000000  0.4598120000000  0.5528250000000 1.0
C      1  0.4263460000000  0.4435240000000  0.5265270000000 1.0
C      1  0.4396020000000  0.4462200000000  0.4972000000000 1.0
C      1  0.4327290000000  0.4606340000000  0.4687740000000 1.0
C      1  0.4904380000000  0.4153420000000  0.5722000000000 1.0
C      1  0.4887730000000  0.3917390000000  0.5124580000000 1.0
C      1  0.4892270000000  0.4053930000000  0.4585700000000 1.0
C      1  0.4851800000000  0.4456110000000  0.4141070000000 1.0
C      1  0.4875560000000  0.5008930000000  0.3959720000000 1.0
C      1  0.4871570000000  0.5623710000000  0.4163020000000 1.0
C      1  0.4871270000000  0.6001200000000  0.4567560000000 1.0
C      1  0.4801130000000  0.6195150000000  0.5070560000000 1.0
C      1  0.4932490000000  0.5765370000000  0.5579790000000 1.0
C      1  0.4788670000000  0.5305720000000  0.5958070000000 1.0
C      1  0.4864230000000  0.4709880000000  0.6039630000000 1.0
C      1  0.4812220000000  0.4959190000000  0.5401380000000 1.0
C      1  0.4902030000000  0.4689480000000  0.5468870000000 1.0
C      1  0.4855480000000  0.4464420000000  0.5289350000000 1.0
C      1  0.4828430000000  0.4552750000000  0.5007920000000 1.0
C      1  0.4838520000000  0.4595490000000  0.4718080000000 1.0
C      1  0.4811690000000  0.4882620000000  0.4654790000000 1.0
C      1  0.4806750000000  0.5144500000000  0.4522480000000 1.0
C      1  0.4705720000000  0.5361490000000  0.4690040000000 1.0
C      1  0.4745400000000  0.5505060000000  0.4937860000000 1.0
C      1  0.4898040000000  0.5359990000000  0.5136990000000 1.0
C      1  0.4835330000000  0.5253930000000  0.5401640000000 1.0
C      1  0.5073100000000  0.4428080000000  0.4587170000000 1.0
C      1  0.5002280000000  0.4760620000000  0.4338210000000 1.0
C      1  0.5027290000000  0.5196820000000  0.4262550000000 1.0
C      1  0.5006310000000  0.5539710000000  0.4522170000000 1.0
C      1  0.4910160000000  0.5759960000000  0.4872340000000 1.0
C      1  0.5116700000000  0.5585820000000  0.5151450000000 1.0
C      1  0.5057080000000  0.5398630000000  0.5571260000000 1.0
C      1  0.4963670000000  0.5020720000000  0.5758290000000 1.0
C      1  0.5060180000000  0.4603980000000  0.5721750000000 1.0
C      1  0.5078850000000  0.4265240000000  0.5395460000000 1.0
C      1  0.5048610000000  0.4236140000000  0.4964190000000 1.0
C      1  0.5544230000000  0.5350140000000  0.4143340000000 1.0
C      1  0.5603530000000  0.5728330000000  0.4476980000000 1.0
C      1  0.5476400000000  0.5872980000000  0.4950450000000 1.0
C      1  0.5647550000000  0.5590440000000  0.5468380000000 1.0
C      1  0.5463730000000  0.5450610000000  0.5890900000000 1.0
C      1  0.5573770000000  0.4931980000000  0.5890130000000 1.0
C      1  0.5526250000000  0.4516860000000  0.5751800000000 1.0
C      1  0.5546350000000  0.3990030000000  0.5432480000000 1.0
C      1  0.5525220000000  0.4264000000000  0.4850720000000 1.0
C      1  0.5523350000000  0.4395510000000  0.4275760000000 1.0
C      1  0.5612610000000  0.4861210000000  0.4079190000000 1.0
C      1  0.4518890000000  0.4819350000000  0.4276370000000 1.0
C      1  0.4489850000000  0.5276160000000  0.4241810000000 1.0
C      1  0.4483570000000  0.5684210000000  0.4481450000000 1.0
C      1  0.4411050000000  0.5976590000000  0.4842350000000 1.0
C      1  0.4530100000000  0.5819000000000  0.5261470000000 1.0
C      1  0.4494070000000  0.5468140000000  0.5581270000000 1.0
C      1  0.4474680000000  0.4978560000000  0.5768540000000 1.0
C      1  0.4517700000000  0.4505220000000  0.5724150000000 1.0
C      1  0.4512760000000  0.4195330000000  0.5368480000000 1.0
C      1  0.4531810000000  0.4208680000000  0.4905970000000 1.0
C      1  0.4497130000000  0.4411820000000  0.4503290000000 1.0
C      1  0.4585150000000  0.5250610000000  0.5767040000000 1.0
C      1  0.4634730000000  0.4740560000000  0.5859840000000 1.0
C      1  0.4646830000000  0.4260460000000  0.5623740000000 1.0
C      1  0.4661880000000  0.4097140000000  0.5135110000000 1.0
C      1  0.4649360000000  0.4201270000000  0.4643260000000 1.0
C      1  0.4617830000000  0.4549120000000  0.4277550000000 1.0
C      1  0.4635260000000  0.5040380000000  0.4128750000000 1.0
C      1  0.4631030000000  0.5530770000000  0.4287380000000 1.0
C      1  0.4590170000000  0.5918290000000  0.4613250000000 1.0
C      1  0.4556830000000  0.6051000000000  0.5087840000000 1.0
C      1  0.4648230000000  0.5721050000000  0.5514370000000 1.0
C      1  0.5018930000000  0.5441140000000  0.5869350000000 1.0
C      1  0.5065870000000  0.4915800000000  0.6029560000000 1.0
C      1  0.5103890000000  0.4329200000000  0.5825430000000 1.0
C      1  0.5087120000000  0.3976090000000  0.5315890000000 1.0
C      1  0.5116240000000  0.4028970000000  0.4758620000000 1.0
C      1  0.5059820000000  0.4331940000000  0.4289790000000 1.0
C      1  0.5078630000000  0.4823200000000  0.4044700000000 1.0
C      1  0.5072600000000  0.5439220000000  0.4099480000000 1.0
C      1  0.5093680000000  0.5829930000000  0.4482900000000 1.0
C      1  0.4994740000000  0.5994440000000  0.5039250000000 1.0
C      1  0.5154160000000  0.5780270000000  0.5389480000000 1.0
C      1  0.3898910000000  0.5357790000000  0.5127700000000 1.0
C      1  0.4070820000000  0.5263290000000  0.5324210000000 1.0
C      1  0.4072210000000  0.4991330000000  0.5417690000000 1.0
C      1  0.3919670000000  0.4790740000000  0.5299750000000 1.0
C      1  0.3981020000000  0.4543400000000  0.5185280000000 1.0
C      1  0.3920910000000  0.4535610000000  0.4912810000000 1.0
C      1  0.4028650000000  0.4626740000000  0.4673110000000 1.0
C      1  0.3952180000000  0.4881080000000  0.4577940000000 1.0
C      1  0.4007560000000  0.5149290000000  0.4509990000000 1.0
C      1  0.3894030000000  0.5353020000000  0.4663840000000 1.0
C      1  0.3937230000000  0.5506180000000  0.4894480000000 1.0
C      1  0.5677940000000  0.4913140000000  0.4357620000000 1.0
C      1  0.5557990000000  0.5209100000000  0.4390770000000 1.0
C      1  0.5682110000000  0.5495040000000  0.4629060000000 1.0
C      1  0.5615420000000  0.5620330000000  0.4933660000000 1.0
C      1  0.5752010000000  0.5529270000000  0.5194610000000 1.0
C      1  0.5564760000000  0.5351160000000  0.5643680000000 1.0
C      1  0.5711700000000  0.5086550000000  0.5698660000000 1.0
C      1  0.5728420000000  0.4448330000000  0.5542010000000 1.0
C      1  0.5590220000000  0.4257350000000  0.5360560000000 1.0
C      1  0.5723410000000  0.4440880000000  0.4711340000000 1.0
C      1  0.5572980000000  0.4576100000000  0.4490780000000 1.0
END
