TITL C-3577081-279-603 -1.51093140637755e-06 125000 -825.803232891786 0 0 131 (C1) n - 1
REM
REM in /home/bkarasulu/work/CARBON/AIRSS/Generating-Clusters/EDIP-Nigel-Params/with-SteepDescent/Higher-Symm/SD-CG/HFTN-CG
REM
REM
REM
REM
REM
REM ./C.cell (12c818d87b63d06a65506943cc24bca4)
REM
REM compiler GCC version 9.2.1 20190827 (Red Hat 9.2.1-1)
REM options -cpp -mtune=generic -march=x86-64 -g -O0 -fpre-include=/usr/include/finclude/math-vector-fortran.h
REM seed 2109849765 -2022707241 -154592399 -267462984 -527357048 -544894782 1054301062 338279669 1960557405 1604351276 -1806806966 575111663 2033706449 757341409 573725803 -964225706 -1805411267 452240539 -828995951 -1138255456 -657427747 785671969 -1090369664 -2034694707 297831011 -59729827 1849548757 60524713 859009041 -1876028359 -1663069291 1274646093 345647594
REM
CELL 1.54180   50.00000   50.00000   50.00000   90.00000   90.00000   90.00000
LATT -1
SFAC C  
C      1  0.5293130000000  0.5064130000000  0.4936260000000 1.0
C      1  0.4911210000000  0.5056190000000  0.5290970000000 1.0
C      1  0.4798860000000  0.5047680000000  0.4783180000000 1.0
C      1  0.4268170000000  0.4657920000000  0.5197400000000 1.0
C      1  0.5213400000000  0.4676280000000  0.4252720000000 1.0
C      1  0.5521630000000  0.4670760000000  0.5568170000000 1.0
C      1  0.4829760000000  0.4056240000000  0.5128700000000 1.0
C      1  0.4895540000000  0.4040720000000  0.4857940000000 1.0
C      1  0.5170530000000  0.4019430000000  0.4808060000000 1.0
C      1  0.5794480000000  0.4687780000000  0.5464110000000 1.0
C      1  0.4209000000000  0.4709310000000  0.5482880000000 1.0
C      1  0.4993480000000  0.4726470000000  0.4061340000000 1.0
C      1  0.5044220000000  0.4226520000000  0.4302470000000 1.0
C      1  0.5484550000000  0.4212770000000  0.5404170000000 1.0
C      1  0.4367070000000  0.4216000000000  0.5339800000000 1.0
C      1  0.5309940000000  0.5319770000000  0.4801180000000 1.0
C      1  0.5015760000000  0.5317830000000  0.5369790000000 1.0
C      1  0.4657430000000  0.5297570000000  0.4831840000000 1.0
C      1  0.4254290000000  0.5112320000000  0.5716000000000 1.0
C      1  0.4789770000000  0.5142730000000  0.3990360000000 1.0
C      1  0.5981650000000  0.5084990000000  0.5285610000000 1.0
C      1  0.4221680000000  0.5318840000000  0.5056030000000 1.0
C      1  0.5344620000000  0.5331910000000  0.4305240000000 1.0
C      1  0.5423580000000  0.5339130000000  0.5641970000000 1.0
C      1  0.4880400000000  0.5650670000000  0.4288490000000 1.0
C      1  0.5670190000000  0.5667700000000  0.5267200000000 1.0
C      1  0.4421070000000  0.5658130000000  0.5446080000000 1.0
C      1  0.4583170000000  0.5476670000000  0.5610370000000 1.0
C      1  0.4671690000000  0.5449060000000  0.4347410000000 1.0
C      1  0.5735390000000  0.5476780000000  0.5053540000000 1.0
C      1  0.5465930000000  0.5763150000000  0.4726470000000 1.0
C      1  0.4984030000000  0.5772610000000  0.5521260000000 1.0
C      1  0.4536270000000  0.5745080000000  0.4730570000000 1.0
C      1  0.4383060000000  0.4744450000000  0.4466330000000 1.0
C      1  0.5782610000000  0.4736420000000  0.4702770000000 1.0
C      1  0.4849990000000  0.4744750000000  0.5821170000000 1.0
C      1  0.4879550000000  0.4557890000000  0.5438650000000 1.0
C      1  0.4711180000000  0.4563840000000  0.4668300000000 1.0
C      1  0.5487530000000  0.4599640000000  0.4916140000000 1.0
C      1  0.4526870000000  0.5465000000000  0.4615750000000 1.0
C      1  0.5563060000000  0.5485900000000  0.4794650000000 1.0
C      1  0.4890780000000  0.5492030000000  0.5585140000000 1.0
C      1  0.4607850000000  0.4464120000000  0.5702350000000 1.0
C      1  0.4611520000000  0.4474420000000  0.4302360000000 1.0
C      1  0.5769880000000  0.4375670000000  0.5057520000000 1.0
C      1  0.4581630000000  0.4818650000000  0.4793930000000 1.0
C      1  0.5409560000000  0.4848360000000  0.4730840000000 1.0
C      1  0.5028250000000  0.4834590000000  0.5486130000000 1.0
C      1  0.4725560000000  0.4176590000000  0.4667700000000 1.0
C      1  0.5285910000000  0.4224890000000  0.4959190000000 1.0
C      1  0.4836110000000  0.4177200000000  0.5377660000000 1.0
C      1  0.4607050000000  0.5072730000000  0.5291690000000 1.0
C      1  0.4962720000000  0.5072260000000  0.4521540000000 1.0
C      1  0.5441840000000  0.5091000000000  0.5204030000000 1.0
C      1  0.4153100000000  0.4920090000000  0.4802040000000 1.0
C      1  0.5610030000000  0.4935400000000  0.4348120000000 1.0
C      1  0.5246610000000  0.4940300000000  0.5854290000000 1.0
C      1  0.5935610000000  0.5199920000000  0.4771310000000 1.0
C      1  0.4733570000000  0.5213950000000  0.5932360000000 1.0
C      1  0.4246430000000  0.5199190000000  0.4323090000000 1.0
C      1  0.4129110000000  0.4708100000000  0.4604190000000 1.0
C      1  0.5793710000000  0.4722760000000  0.4415850000000 1.0
C      1  0.5090040000000  0.4732950000000  0.5985600000000 1.0
C      1  0.5267310000000  0.4385080000000  0.4253120000000 1.0
C      1  0.5458460000000  0.4383710000000  0.5620160000000 1.0
C      1  0.4231690000000  0.4369530000000  0.5152350000000 1.0
C      1  0.5748620000000  0.5179360000000  0.5110370000000 1.0
C      1  0.4529550000000  0.5181660000000  0.5602240000000 1.0
C      1  0.4746960000000  0.5166380000000  0.4294040000000 1.0
C      1  0.5529070000000  0.4302310000000  0.4276440000000 1.0
C      1  0.5337280000000  0.4308270000000  0.5855220000000 1.0
C      1  0.4147750000000  0.4285730000000  0.4903800000000 1.0
C      1  0.4084810000000  0.4452660000000  0.4704320000000 1.0
C      1  0.5733210000000  0.4472400000000  0.4310690000000 1.0
C      1  0.5207220000000  0.4483000000000  0.6009130000000 1.0
C      1  0.5149770000000  0.5326970000000  0.4553510000000 1.0
C      1  0.5310850000000  0.5339050000000  0.5350240000000 1.0
C      1  0.4532260000000  0.5317420000000  0.5098960000000 1.0
C      1  0.4902750000000  0.6066930000000  0.4863890000000 1.0
C      1  0.5179910000000  0.6079490000000  0.4956230000000 1.0
C      1  0.4844080000000  0.6086250000000  0.5149590000000 1.0
C      1  0.5150870000000  0.4791370000000  0.4544160000000 1.0
C      1  0.5323280000000  0.4805280000000  0.5362680000000 1.0
C      1  0.4556200000000  0.4765970000000  0.5110820000000 1.0
C      1  0.4144390000000  0.5629210000000  0.5383920000000 1.0
C      1  0.5073000000000  0.5630900000000  0.4079510000000 1.0
C      1  0.5745750000000  0.5647720000000  0.5540910000000 1.0
C      1  0.4095780000000  0.4978000000000  0.5506250000000 1.0
C      1  0.5037830000000  0.4996130000000  0.3948860000000 1.0
C      1  0.5877950000000  0.4964980000000  0.5535460000000 1.0
C      1  0.5491020000000  0.5635270000000  0.5671440000000 1.0
C      1  0.4151180000000  0.5611070000000  0.5097950000000 1.0
C      1  0.5320440000000  0.5623240000000  0.4223390000000 1.0
C      1  0.4371600000000  0.4957330000000  0.4264930000000 1.0
C      1  0.5967050000000  0.4921650000000  0.4825420000000 1.0
C      1  0.4663340000000  0.4938760000000  0.5938100000000 1.0
C      1  0.5423320000000  0.4862480000000  0.4146370000000 1.0
C      1  0.5516700000000  0.4866570000000  0.5794290000000 1.0
C      1  0.4075360000000  0.4845470000000  0.5066410000000 1.0
C      1  0.5012650000000  0.5657380000000  0.4549030000000 1.0
C      1  0.5379260000000  0.5672820000000  0.5235770000000 1.0
C      1  0.4587510000000  0.5655460000000  0.5205080000000 1.0
C      1  0.5284820000000  0.5791240000000  0.4482890000000 1.0
C      1  0.5286330000000  0.5803370000000  0.5499700000000 1.0
C      1  0.4397410000000  0.5779660000000  0.4998920000000 1.0
C      1  0.5753410000000  0.5354890000000  0.4606590000000 1.0
C      1  0.4963210000000  0.5368710000000  0.5847770000000 1.0
C      1  0.4254950000000  0.5354120000000  0.4554880000000 1.0
C      1  0.5834640000000  0.4631310000000  0.5185150000000 1.0
C      1  0.4366360000000  0.4636620000000  0.5716080000000 1.0
C      1  0.4712950000000  0.4662620000000  0.4095610000000 1.0
C      1  0.5534930000000  0.4210490000000  0.5127660000000 1.0
C      1  0.4588840000000  0.4233380000000  0.5510460000000 1.0
C      1  0.4776500000000  0.4233750000000  0.4386430000000 1.0
C      1  0.4078200000000  0.5095010000000  0.5229730000000 1.0
C      1  0.5281290000000  0.5113140000000  0.4077610000000 1.0
C      1  0.5655580000000  0.5108160000000  0.5686510000000 1.0
C      1  0.6021630000000  0.4843470000000  0.5101620000000 1.0
C      1  0.4378580000000  0.4882820000000  0.5880580000000 1.0
C      1  0.4570780000000  0.4919880000000  0.4045660000000 1.0
C      1  0.5313130000000  0.5827560000000  0.4970750000000 1.0
C      1  0.4838700000000  0.5824450000000  0.5265650000000 1.0
C      1  0.4827970000000  0.5802930000000  0.4752820000000 1.0
C      1  0.5220100000000  0.5232670000000  0.5838280000000 1.0
C      1  0.4147980000000  0.5214660000000  0.4784160000000 1.0
C      1  0.5618470000000  0.5227060000000  0.4382100000000 1.0
C      1  0.5282080000000  0.4634200000000  0.5122140000000 1.0
C      1  0.4783390000000  0.4561810000000  0.5163300000000 1.0
C      1  0.4995800000000  0.4593560000000  0.4707830000000 1.0
C      1  0.5039910000000  0.4511010000000  0.4992910000000 1.0
C      1  0.5001010000000  0.5011650000000  0.5004450000000 1.0
END
