TITL C-3578202-4305-714 -4.08569365315696e-07 125000 -392.979109598584 0 0 65 (C1) n - 1
REM
REM in /home/bkarasulu/work/CARBON/AIRSS/Generating-Clusters/EDIP-Nigel-Params/with-SteepDescent/Higher-Symm/SD-CG/HFTN-CG
REM
REM
REM
REM
REM
REM ./C.cell (12c818d87b63d06a65506943cc24bca4)
REM
REM compiler GCC version 9.2.1 20190827 (Red Hat 9.2.1-1)
REM options -cpp -mtune=generic -march=x86-64 -g -O0 -fpre-include=/usr/include/finclude/math-vector-fortran.h
REM seed -1613352259 -163052946 1909912933 -1076555938 -392235286 1104985449 -941034727 -121982578 -1392927524 228560630 1866782930 1637069340 992366654 -2082297165 -231948006 2052058652 968334454 2031926480 -1091493460 1188774763 -746092435 1204716685 -1329056750 -918379913 76285814 1248721175 -1034329728 -707077088 -1845326437 -592679368 -1431647626 1856635518 1334305246
REM
CELL 1.54180   50.00000   50.00000   50.00000   90.00000   90.00000   90.00000
LATT -1
SFAC C  
C      1  0.5525930000000  0.4668880000000  0.5331330000000 1.0
C      1  0.5064800000000  0.4664670000000  0.4340350000000 1.0
C      1  0.4444180000000  0.4689450000000  0.5251880000000 1.0
C      1  0.5231990000000  0.4833760000000  0.4916310000000 1.0
C      1  0.4845490000000  0.4813200000000  0.4882490000000 1.0
C      1  0.4965570000000  0.4847150000000  0.5202530000000 1.0
C      1  0.4583980000000  0.4820200000000  0.5698400000000 1.0
C      1  0.5845800000000  0.4768130000000  0.4978210000000 1.0
C      1  0.4585930000000  0.4745930000000  0.4241080000000 1.0
C      1  0.5278800000000  0.5297350000000  0.4363860000000 1.0
C      1  0.4237670000000  0.5268720000000  0.5002040000000 1.0
C      1  0.5454770000000  0.5258330000000  0.5625770000000 1.0
C      1  0.5423020000000  0.5036320000000  0.5243660000000 1.0
C      1  0.4993420000000  0.5002300000000  0.4519300000000 1.0
C      1  0.4579360000000  0.5045850000000  0.5170640000000 1.0
C      1  0.4523450000000  0.4508130000000  0.5036620000000 1.0
C      1  0.5283640000000  0.4513190000000  0.5377040000000 1.0
C      1  0.5204320000000  0.4508490000000  0.4549330000000 1.0
C      1  0.4784080000000  0.4568160000000  0.4320990000000 1.0
C      1  0.4542680000000  0.4612880000000  0.5517710000000 1.0
C      1  0.5701400000000  0.4573520000000  0.5114860000000 1.0
C      1  0.5396660000000  0.4647630000000  0.4738510000000 1.0
C      1  0.4605010000000  0.4647950000000  0.4782960000000 1.0
C      1  0.5027990000000  0.4666070000000  0.5445850000000 1.0
C      1  0.4761790000000  0.4381830000000  0.5154970000000 1.0
C      1  0.5262380000000  0.4376050000000  0.5118970000000 1.0
C      1  0.4989760000000  0.4374110000000  0.4703500000000 1.0
C      1  0.5323050000000  0.5643020000000  0.4839970000000 1.0
C      1  0.4374860000000  0.5737210000000  0.4735560000000 1.0
C      1  0.5245250000000  0.5763690000000  0.5658400000000 1.0
C      1  0.5570510000000  0.5286550000000  0.5169410000000 1.0
C      1  0.4807040000000  0.5245210000000  0.4494650000000 1.0
C      1  0.4595490000000  0.5309560000000  0.5313960000000 1.0
C      1  0.4274590000000  0.5012840000000  0.5130810000000 1.0
C      1  0.5520550000000  0.4994680000000  0.5534630000000 1.0
C      1  0.5180620000000  0.5027920000000  0.4280940000000 1.0
C      1  0.5118980000000  0.5111870000000  0.5240180000000 1.0
C      1  0.5179320000000  0.5075960000000  0.4751230000000 1.0
C      1  0.4722410000000  0.5088300000000  0.4895100000000 1.0
C      1  0.5079330000000  0.5508710000000  0.4792920000000 1.0
C      1  0.4494320000000  0.5674110000000  0.4978000000000 1.0
C      1  0.5379930000000  0.5681990000000  0.5429940000000 1.0
C      1  0.5515700000000  0.5501120000000  0.4712800000000 1.0
C      1  0.4467330000000  0.5492540000000  0.4641460000000 1.0
C      1  0.5074440000000  0.5548500000000  0.5619830000000 1.0
C      1  0.4598580000000  0.5282520000000  0.5591900000000 1.0
C      1  0.5802720000000  0.5238700000000  0.5019570000000 1.0
C      1  0.4622990000000  0.5217450000000  0.4276840000000 1.0
C      1  0.4446450000000  0.4971910000000  0.4643300000000 1.0
C      1  0.5005700000000  0.5019050000000  0.5604540000000 1.0
C      1  0.5554470000000  0.4997550000000  0.4671780000000 1.0
C      1  0.5032900000000  0.5445620000000  0.4500900000000 1.0
C      1  0.4395060000000  0.5471920000000  0.5161690000000 1.0
C      1  0.5556860000000  0.5451780000000  0.5419600000000 1.0
C      1  0.5781850000000  0.5009700000000  0.4858940000000 1.0
C      1  0.4486160000000  0.4979460000000  0.4350580000000 1.0
C      1  0.4728630000000  0.5055880000000  0.5690950000000 1.0
C      1  0.4346730000000  0.5246240000000  0.4730530000000 1.0
C      1  0.5164310000000  0.5276110000000  0.5646070000000 1.0
C      1  0.5510670000000  0.5274010000000  0.4547200000000 1.0
C      1  0.4790690000000  0.4476800000000  0.5438590000000 1.0
C      1  0.5497240000000  0.4448800000000  0.4945240000000 1.0
C      1  0.4727480000000  0.4450440000000  0.4585950000000 1.0
C      1  0.5003570000000  0.4413670000000  0.4991970000000 1.0
C      1  0.5014480000000  0.5244020000000  0.4946640000000 1.0
END
