TITL C-3577078-809-71 -3.63486055017578e-06 125000 -386.725455711435 0 0 63 (C1) n - 1
REM
REM in /home/bkarasulu/work/CARBON/AIRSS/Generating-Clusters/EDIP-Nigel-Params/with-SteepDescent/Higher-Symm/SD-CG/HFTN-CG
REM
REM
REM
REM
REM
REM ./C.cell (12c818d87b63d06a65506943cc24bca4)
REM
REM compiler GCC version 9.2.1 20190827 (Red Hat 9.2.1-1)
REM options -cpp -mtune=generic -march=x86-64 -g -O0 -fpre-include=/usr/include/finclude/math-vector-fortran.h
REM seed 1099541831 -1023530099 1430173518 1981742319 -1639341870 1272015336 56375901 -240669596 -672358457 -2034751630 1825184002 944157756 -342657591 68518370 -822085707 -1035162170 -1098073079 -641742983 1431991506 -1114667252 162999833 1471833703 626061931 205533053 -873110852 429533441 -644306752 -1990828928 10635953 251172505 1955218285 1560351787 -528087743
REM
CELL 1.54180   50.00000   50.00000   50.00000   90.00000   90.00000   90.00000
LATT -1
SFAC C  
C      1  0.4532730000000  0.5087300000000  0.4610230000000 1.0
C      1  0.5558540000000  0.4672750000000  0.4608490000000 1.0
C      1  0.4769950000000  0.5181260000000  0.5452080000000 1.0
C      1  0.4852710000000  0.5512520000000  0.4521890000000 1.0
C      1  0.4527670000000  0.5531270000000  0.5221210000000 1.0
C      1  0.5090600000000  0.4843790000000  0.4809250000000 1.0
C      1  0.4672350000000  0.4860720000000  0.5114580000000 1.0
C      1  0.5750200000000  0.5378640000000  0.4975760000000 1.0
C      1  0.4962590000000  0.5104000000000  0.4379400000000 1.0
C      1  0.4978350000000  0.5690700000000  0.5225790000000 1.0
C      1  0.4957330000000  0.4582210000000  0.5428430000000 1.0
C      1  0.4573390000000  0.4631570000000  0.4499910000000 1.0
C      1  0.4713320000000  0.5720520000000  0.5313550000000 1.0
C      1  0.4980490000000  0.5239200000000  0.4928460000000 1.0
C      1  0.5430580000000  0.4739410000000  0.5175700000000 1.0
C      1  0.4067920000000  0.4707780000000  0.5137460000000 1.0
C      1  0.5024800000000  0.4228110000000  0.4928680000000 1.0
C      1  0.5108540000000  0.4857070000000  0.4311590000000 1.0
C      1  0.5406170000000  0.5099060000000  0.5528120000000 1.0
C      1  0.5268950000000  0.4394780000000  0.4887600000000 1.0
C      1  0.4822440000000  0.4517530000000  0.4550360000000 1.0
C      1  0.5473480000000  0.5051840000000  0.5129870000000 1.0
C      1  0.5661440000000  0.4734860000000  0.4874520000000 1.0
C      1  0.4271000000000  0.5107430000000  0.5285600000000 1.0
C      1  0.5143230000000  0.5532090000000  0.5405440000000 1.0
C      1  0.5847160000000  0.4957740000000  0.4886430000000 1.0
C      1  0.4988320000000  0.5360330000000  0.5588600000000 1.0
C      1  0.5018980000000  0.5628970000000  0.4936740000000 1.0
C      1  0.5181050000000  0.5166060000000  0.5711450000000 1.0
C      1  0.5780620000000  0.5117520000000  0.5134260000000 1.0
C      1  0.5325130000000  0.5412050000000  0.4557070000000 1.0
C      1  0.4959290000000  0.4329670000000  0.5291070000000 1.0
C      1  0.5396270000000  0.5418070000000  0.5315430000000 1.0
C      1  0.4202340000000  0.4813240000000  0.5372390000000 1.0
C      1  0.4590660000000  0.5442810000000  0.4945050000000 1.0
C      1  0.5031180000000  0.4912840000000  0.5762340000000 1.0
C      1  0.4872290000000  0.5078190000000  0.5178140000000 1.0
C      1  0.4404660000000  0.4818140000000  0.4622330000000 1.0
C      1  0.4816540000000  0.4295220000000  0.4726180000000 1.0
C      1  0.4774200000000  0.5598220000000  0.4776200000000 1.0
C      1  0.4477720000000  0.5302550000000  0.5412480000000 1.0
C      1  0.4457660000000  0.4673420000000  0.5371270000000 1.0
C      1  0.4753660000000  0.4947150000000  0.5651070000000 1.0
C      1  0.5163580000000  0.4688130000000  0.5606000000000 1.0
C      1  0.5285580000000  0.5536730000000  0.4828890000000 1.0
C      1  0.4426300000000  0.5233330000000  0.4834390000000 1.0
C      1  0.5366310000000  0.4890190000000  0.4206270000000 1.0
C      1  0.4701400000000  0.4692180000000  0.5520310000000 1.0
C      1  0.5766720000000  0.5220980000000  0.4709450000000 1.0
C      1  0.4718060000000  0.4342760000000  0.5142770000000 1.0
C      1  0.4833470000000  0.5103950000000  0.4651160000000 1.0
C      1  0.5302510000000  0.5094820000000  0.4866090000000 1.0
C      1  0.5527000000000  0.4914550000000  0.4436790000000 1.0
C      1  0.4783970000000  0.4589830000000  0.4982510000000 1.0
C      1  0.5070070000000  0.5380050000000  0.4396700000000 1.0
C      1  0.4238960000000  0.4780630000000  0.4912620000000 1.0
C      1  0.5158900000000  0.4633700000000  0.5039960000000 1.0
C      1  0.5407000000000  0.4798670000000  0.5480530000000 1.0
C      1  0.5490070000000  0.5159070000000  0.4614160000000 1.0
C      1  0.5080240000000  0.4674700000000  0.4550680000000 1.0
C      1  0.4403110000000  0.5005080000000  0.5026960000000 1.0
C      1  0.5482910000000  0.5486020000000  0.5041710000000 1.0
C      1  0.5317330000000  0.4496080000000  0.4609640000000 1.0
END
