TITL C-3578199-7832-695 -1.30162450608248e-06 125000 -1158.12580559608 0 0 181 (C1) n - 1
REM
REM in /home/bkarasulu/work/CARBON/AIRSS/Generating-Clusters/EDIP-Nigel-Params/with-SteepDescent/Higher-Symm/SD-CG/HFTN-CG
REM
REM
REM
REM
REM
REM ./C.cell (12c818d87b63d06a65506943cc24bca4)
REM
REM compiler GCC version 9.2.1 20190827 (Red Hat 9.2.1-1)
REM options -cpp -mtune=generic -march=x86-64 -g -O0 -fpre-include=/usr/include/finclude/math-vector-fortran.h
REM seed -1557037387 -2098957444 -1904873251 -531807886 1207770859 -1581696831 -1922264321 -619872145 1403467683 -1887813887 -1537905119 287682038 -1571513375 1838761546 -659141639 -150679318 1107252449 159829865 -915886212 -1375356677 -689213011 -486692459 -1741724196 1973881324 1658661351 -288864836 -1231983612 1608245452 1050212003 -1797512380 838291331 1393510018 -172572938
REM
CELL 1.54180   50.00000   50.00000   50.00000   90.00000   90.00000   90.00000
LATT -1
SFAC C  
C      1  0.4446710000000  0.5742010000000  0.4449730000000 1.0
C      1  0.5537340000000  0.5754730000000  0.5554850000000 1.0
C      1  0.4459810000000  0.5746990000000  0.5558630000000 1.0
C      1  0.5545150000000  0.5763440000000  0.4443950000000 1.0
C      1  0.3907340000000  0.5731700000000  0.5132430000000 1.0
C      1  0.6118420000000  0.5687510000000  0.4841400000000 1.0
C      1  0.3886190000000  0.5719450000000  0.4850860000000 1.0
C      1  0.6084310000000  0.5697920000000  0.5119960000000 1.0
C      1  0.4034470000000  0.5511960000000  0.5532980000000 1.0
C      1  0.5965120000000  0.5489050000000  0.4458850000000 1.0
C      1  0.4015660000000  0.5496300000000  0.4462450000000 1.0
C      1  0.5953910000000  0.5490090000000  0.5517490000000 1.0
C      1  0.4769240000000  0.4707450000000  0.5581000000000 1.0
C      1  0.5250200000000  0.4748830000000  0.4429560000000 1.0
C      1  0.4716370000000  0.4701820000000  0.4442590000000 1.0
C      1  0.5211670000000  0.4728350000000  0.5584000000000 1.0
C      1  0.6101750000000  0.5446010000000  0.4696060000000 1.0
C      1  0.3878300000000  0.5503130000000  0.5301260000000 1.0
C      1  0.6110800000000  0.5469210000000  0.5286970000000 1.0
C      1  0.3895530000000  0.5473610000000  0.4711120000000 1.0
C      1  0.4718430000000  0.4137340000000  0.4302190000000 1.0
C      1  0.5300810000000  0.4117740000000  0.5710870000000 1.0
C      1  0.4710420000000  0.4112510000000  0.5706480000000 1.0
C      1  0.5313070000000  0.4135920000000  0.4302500000000 1.0
C      1  0.3967060000000  0.4762570000000  0.4866620000000 1.0
C      1  0.6013250000000  0.4740890000000  0.5125410000000 1.0
C      1  0.4021700000000  0.4788530000000  0.5146040000000 1.0
C      1  0.6116380000000  0.4689260000000  0.4860320000000 1.0
C      1  0.4745370000000  0.5719790000000  0.4418170000000 1.0
C      1  0.5242070000000  0.5721830000000  0.5578740000000 1.0
C      1  0.4753210000000  0.5715270000000  0.5579240000000 1.0
C      1  0.5246460000000  0.5729860000000  0.4412210000000 1.0
C      1  0.5690880000000  0.4493350000000  0.4344000000000 1.0
C      1  0.4318030000000  0.4452300000000  0.5717340000000 1.0
C      1  0.5676740000000  0.4477900000000  0.5688200000000 1.0
C      1  0.4318570000000  0.4474620000000  0.4273340000000 1.0
C      1  0.5738580000000  0.4930650000000  0.4604760000000 1.0
C      1  0.4256480000000  0.4936050000000  0.5560890000000 1.0
C      1  0.5692020000000  0.4926300000000  0.5443540000000 1.0
C      1  0.4125960000000  0.4946780000000  0.4380300000000 1.0
C      1  0.4274080000000  0.5633240000000  0.5172830000000 1.0
C      1  0.5738840000000  0.5630120000000  0.4857520000000 1.0
C      1  0.4262830000000  0.5649710000000  0.4864890000000 1.0
C      1  0.5714950000000  0.5613050000000  0.5170700000000 1.0
C      1  0.4849390000000  0.5496650000000  0.4247570000000 1.0
C      1  0.5143560000000  0.5499160000000  0.5757190000000 1.0
C      1  0.4849030000000  0.5490870000000  0.5753740000000 1.0
C      1  0.5147120000000  0.5506330000000  0.4235550000000 1.0
C      1  0.4367370000000  0.5359880000000  0.5851350000000 1.0
C      1  0.5639860000000  0.5394010000000  0.4121550000000 1.0
C      1  0.4357210000000  0.5341800000000  0.4157120000000 1.0
C      1  0.5628640000000  0.5374570000000  0.5864130000000 1.0
C      1  0.6138640000000  0.5214310000000  0.5141700000000 1.0
C      1  0.3961900000000  0.5229490000000  0.4875670000000 1.0
C      1  0.6056710000000  0.5191090000000  0.4855190000000 1.0
C      1  0.3867860000000  0.5249440000000  0.5156980000000 1.0
C      1  0.4650640000000  0.4999390000000  0.4428220000000 1.0
C      1  0.5169070000000  0.5015930000000  0.5644150000000 1.0
C      1  0.4785940000000  0.5004490000000  0.5633610000000 1.0
C      1  0.5276890000000  0.5046340000000  0.4404630000000 1.0
C      1  0.5591690000000  0.5375270000000  0.4754370000000 1.0
C      1  0.4444220000000  0.5358980000000  0.5227110000000 1.0
C      1  0.5535090000000  0.5353350000000  0.5248000000000 1.0
C      1  0.4419880000000  0.5397560000000  0.4776560000000 1.0
C      1  0.4278910000000  0.5509400000000  0.4377280000000 1.0
C      1  0.5696610000000  0.5523470000000  0.5621870000000 1.0
C      1  0.4300440000000  0.5511840000000  0.5616160000000 1.0
C      1  0.5708360000000  0.5536120000000  0.4362520000000 1.0
C      1  0.4420650000000  0.5866390000000  0.5287290000000 1.0
C      1  0.5590710000000  0.5858020000000  0.4725850000000 1.0
C      1  0.4411420000000  0.5866310000000  0.4724300000000 1.0
C      1  0.5579600000000  0.5857750000000  0.5279180000000 1.0
C      1  0.4862670000000  0.4815890000000  0.3993620000000 1.0
C      1  0.5136900000000  0.4784170000000  0.6066240000000 1.0
C      1  0.4850200000000  0.4780760000000  0.6065110000000 1.0
C      1  0.5148610000000  0.4806170000000  0.3973450000000 1.0
C      1  0.5560220000000  0.4236000000000  0.4431180000000 1.0
C      1  0.4449460000000  0.4208160000000  0.5600370000000 1.0
C      1  0.5548480000000  0.4224360000000  0.5588230000000 1.0
C      1  0.4459060000000  0.4242180000000  0.4401540000000 1.0
C      1  0.5215320000000  0.4909500000000  0.4843640000000 1.0
C      1  0.4716850000000  0.4909320000000  0.5129620000000 1.0
C      1  0.5279810000000  0.4934630000000  0.5129450000000 1.0
C      1  0.4770950000000  0.4888750000000  0.4842920000000 1.0
C      1  0.5160150000000  0.5673030000000  0.4707300000000 1.0
C      1  0.4841370000000  0.5672130000000  0.5278410000000 1.0
C      1  0.5152080000000  0.5674050000000  0.5277340000000 1.0
C      1  0.4840730000000  0.5674290000000  0.4712070000000 1.0
C      1  0.6105920000000  0.4967120000000  0.5286900000000 1.0
C      1  0.3851100000000  0.4996240000000  0.4738930000000 1.0
C      1  0.6169950000000  0.4947100000000  0.4703450000000 1.0
C      1  0.3904450000000  0.5007170000000  0.5306380000000 1.0
C      1  0.5552350000000  0.4920190000000  0.5940770000000 1.0
C      1  0.4427460000000  0.4911770000000  0.3990430000000 1.0
C      1  0.5609290000000  0.4917130000000  0.4021460000000 1.0
C      1  0.4423060000000  0.4905910000000  0.5965300000000 1.0
C      1  0.4157160000000  0.4649960000000  0.4435990000000 1.0
C      1  0.5666010000000  0.4620870000000  0.5426260000000 1.0
C      1  0.4249070000000  0.4643130000000  0.5517220000000 1.0
C      1  0.5683630000000  0.4627440000000  0.4619160000000 1.0
C      1  0.4720670000000  0.5406420000000  0.4828250000000 1.0
C      1  0.5260640000000  0.5409130000000  0.5142330000000 1.0
C      1  0.4728600000000  0.5407640000000  0.5140640000000 1.0
C      1  0.5283340000000  0.5401460000000  0.4819470000000 1.0
C      1  0.5400880000000  0.4485970000000  0.5167650000000 1.0
C      1  0.4706220000000  0.4385130000000  0.4852600000000 1.0
C      1  0.5407280000000  0.4487110000000  0.4843930000000 1.0
C      1  0.4719560000000  0.4388740000000  0.5152240000000 1.0
C      1  0.4687800000000  0.5898690000000  0.5149310000000 1.0
C      1  0.5318120000000  0.5892110000000  0.4848670000000 1.0
C      1  0.4683700000000  0.5897280000000  0.4850060000000 1.0
C      1  0.5311790000000  0.5895930000000  0.5146090000000 1.0
C      1  0.5249080000000  0.4587570000000  0.5860480000000 1.0
C      1  0.4734090000000  0.4589500000000  0.4149580000000 1.0
C      1  0.5272690000000  0.4611360000000  0.4161870000000 1.0
C      1  0.4738960000000  0.4574040000000  0.5868760000000 1.0
C      1  0.4437560000000  0.4154540000000  0.5300310000000 1.0
C      1  0.5521390000000  0.4211750000000  0.4732310000000 1.0
C      1  0.4422880000000  0.4172780000000  0.4685060000000 1.0
C      1  0.5512080000000  0.4210880000000  0.5282450000000 1.0
C      1  0.5597730000000  0.5049620000000  0.5152100000000 1.0
C      1  0.4271170000000  0.5150050000000  0.4878210000000 1.0
C      1  0.5750090000000  0.5121080000000  0.4859050000000 1.0
C      1  0.4409310000000  0.4995060000000  0.5160320000000 1.0
C      1  0.4856500000000  0.5968410000000  0.4325630000000 1.0
C      1  0.5131280000000  0.5971130000000  0.5670140000000 1.0
C      1  0.4863840000000  0.5962960000000  0.5673760000000 1.0
C      1  0.5125040000000  0.5976490000000  0.4327700000000 1.0
C      1  0.5288590000000  0.4001170000000  0.5235500000000 1.0
C      1  0.4783820000000  0.4076090000000  0.4797800000000 1.0
C      1  0.5296800000000  0.3999850000000  0.4771450000000 1.0
C      1  0.4757370000000  0.4064310000000  0.5213950000000 1.0
C      1  0.4703220000000  0.5029350000000  0.5938470000000 1.0
C      1  0.5330090000000  0.5045770000000  0.4017480000000 1.0
C      1  0.4683650000000  0.5043030000000  0.4105980000000 1.0
C      1  0.5271620000000  0.5043710000000  0.5949190000000 1.0
C      1  0.4840990000000  0.4654120000000  0.5284180000000 1.0
C      1  0.5172120000000  0.4654210000000  0.4702620000000 1.0
C      1  0.4845730000000  0.4631140000000  0.4707830000000 1.0
C      1  0.5178010000000  0.4675640000000  0.5287080000000 1.0
C      1  0.4880110000000  0.4029300000000  0.4523000000000 1.0
C      1  0.5155170000000  0.3981140000000  0.5494590000000 1.0
C      1  0.4869690000000  0.4011230000000  0.5482180000000 1.0
C      1  0.5166120000000  0.3982800000000  0.4507680000000 1.0
C      1  0.5757940000000  0.5107540000000  0.4196630000000 1.0
C      1  0.4207460000000  0.5108920000000  0.5899510000000 1.0
C      1  0.5757300000000  0.5101550000000  0.5846080000000 1.0
C      1  0.4212890000000  0.5070690000000  0.4114000000000 1.0
C      1  0.5328790000000  0.5348450000000  0.5928260000000 1.0
C      1  0.4656190000000  0.5341210000000  0.4086440000000 1.0
C      1  0.5345300000000  0.5344850000000  0.4086060000000 1.0
C      1  0.4656760000000  0.5329330000000  0.5909150000000 1.0
C      1  0.5471560000000  0.5147850000000  0.5564820000000 1.0
C      1  0.4357390000000  0.5101950000000  0.4529320000000 1.0
C      1  0.5565640000000  0.5126500000000  0.4455400000000 1.0
C      1  0.4499510000000  0.5137070000000  0.5496150000000 1.0
C      1  0.4279700000000  0.4354190000000  0.5132010000000 1.0
C      1  0.5811660000000  0.4236840000000  0.4856050000000 1.0
C      1  0.4264360000000  0.4359160000000  0.4842530000000 1.0
C      1  0.5795360000000  0.4257610000000  0.5149950000000 1.0
C      1  0.4450930000000  0.4601940000000  0.4040620000000 1.0
C      1  0.5539880000000  0.4617250000000  0.5913400000000 1.0
C      1  0.4449660000000  0.4596560000000  0.5941490000000 1.0
C      1  0.5564580000000  0.4621370000000  0.4099830000000 1.0
C      1  0.4851630000000  0.4295630000000  0.5890280000000 1.0
C      1  0.5155450000000  0.4338450000000  0.4160420000000 1.0
C      1  0.4864630000000  0.4320990000000  0.4126580000000 1.0
C      1  0.5146390000000  0.4306470000000  0.5877850000000 1.0
C      1  0.4119760000000  0.4574490000000  0.4711320000000 1.0
C      1  0.5887890000000  0.4519640000000  0.5263950000000 1.0
C      1  0.4138560000000  0.4561590000000  0.5273210000000 1.0
C      1  0.5932100000000  0.4488230000000  0.4718230000000 1.0
C      1  0.6001350000000  0.4952080000000  0.4457980000000 1.0
C      1  0.3985490000000  0.5049910000000  0.5584220000000 1.0
C      1  0.5964940000000  0.5002350000000  0.5535660000000 1.0
C      1  0.3857470000000  0.5019270000000  0.4459490000000 1.0
C      1  0.4851380000000  0.5157280000000  0.5227470000000 1.0
C      1  0.5148160000000  0.5145290000000  0.4681720000000 1.0
C      1  0.4840340000000  0.5143120000000  0.4690970000000 1.0
C      1  0.5131220000000  0.5165130000000  0.5232880000000 1.0
C      1  0.5105370000000  0.4003450000000  0.5001150000000 1.0
END
