TITL C-3578202-4305-773 -1.1269783332926e-09 125000 -1111.76486652457 0 0 180 (C1) n - 1
REM
REM in /home/bkarasulu/work/CARBON/AIRSS/Generating-Clusters/EDIP-Nigel-Params/with-SteepDescent/Higher-Symm/SD-CG/HFTN-CG
REM
REM
REM
REM
REM
REM ./C.cell (12c818d87b63d06a65506943cc24bca4)
REM
REM compiler GCC version 9.2.1 20190827 (Red Hat 9.2.1-1)
REM options -cpp -mtune=generic -march=x86-64 -g -O0 -fpre-include=/usr/include/finclude/math-vector-fortran.h
REM seed -642502965 1967589062 -528440052 -650150847 -1663173951 121853344 -724787149 804618013 874408616 -1125239653 -948902144 -550238300 837080556 -1702399460 484053377 -467890800 -1238511223 -1498731594 -1743767227 1280922883 -1797218533 -2032694411 320525089 756128850 -1048773211 -1933751080 -1802530300 -1491141307 -1724510379 20143562 1039812998 -1249133539 1306366265
REM
CELL 1.54180   50.00000   50.00000   50.00000   90.00000   90.00000   90.00000
LATT -1
SFAC C  
C      1  0.4221210000000  0.5710580000000  0.5201100000000 1.0
C      1  0.3842170000000  0.4959760000000  0.5126530000000 1.0
C      1  0.4102450000000  0.4304980000000  0.5124550000000 1.0
C      1  0.4838080000000  0.3946530000000  0.5228050000000 1.0
C      1  0.5532580000000  0.4049770000000  0.5187410000000 1.0
C      1  0.5983910000000  0.4581680000000  0.5173400000000 1.0
C      1  0.5995570000000  0.5269150000000  0.5119040000000 1.0
C      1  0.5576190000000  0.5918410000000  0.5186180000000 1.0
C      1  0.4916980000000  0.6080220000000  0.5142290000000 1.0
C      1  0.4753240000000  0.4205270000000  0.4801120000000 1.0
C      1  0.5391960000000  0.4160250000000  0.4746000000000 1.0
C      1  0.5770640000000  0.4554580000000  0.4712530000000 1.0
C      1  0.5757490000000  0.5140220000000  0.4724340000000 1.0
C      1  0.5548360000000  0.5649840000000  0.4768570000000 1.0
C      1  0.5013050000000  0.5823690000000  0.4743540000000 1.0
C      1  0.4499680000000  0.5624580000000  0.4798530000000 1.0
C      1  0.4175960000000  0.5116270000000  0.4783710000000 1.0
C      1  0.4331800000000  0.4549840000000  0.4749880000000 1.0
C      1  0.5083460000000  0.4481710000000  0.5365680000000 1.0
C      1  0.5356050000000  0.4700950000000  0.5461880000000 1.0
C      1  0.5482130000000  0.5014480000000  0.5439530000000 1.0
C      1  0.5366780000000  0.5329770000000  0.5455230000000 1.0
C      1  0.5103570000000  0.5440600000000  0.5604940000000 1.0
C      1  0.4787380000000  0.5404110000000  0.5523990000000 1.0
C      1  0.4506150000000  0.5157250000000  0.5431550000000 1.0
C      1  0.4567620000000  0.4909800000000  0.5601920000000 1.0
C      1  0.4592930000000  0.4622230000000  0.5449120000000 1.0
C      1  0.4919330000000  0.3781690000000  0.4992950000000 1.0
C      1  0.5740580000000  0.3944670000000  0.4988310000000 1.0
C      1  0.6204490000000  0.4590090000000  0.4973730000000 1.0
C      1  0.6120010000000  0.5393500000000  0.4876620000000 1.0
C      1  0.5571310000000  0.6101000000000  0.4947510000000 1.0
C      1  0.4794990000000  0.6212070000000  0.4900900000000 1.0
C      1  0.4062290000000  0.5741990000000  0.4952750000000 1.0
C      1  0.3743800000000  0.4890390000000  0.4849750000000 1.0
C      1  0.4069080000000  0.4097300000000  0.4918010000000 1.0
C      1  0.5983120000000  0.4113560000000  0.5026940000000 1.0
C      1  0.6185600000000  0.4867630000000  0.4899320000000 1.0
C      1  0.6020490000000  0.5665540000000  0.4880760000000 1.0
C      1  0.5321940000000  0.6253940000000  0.4958750000000 1.0
C      1  0.4523340000000  0.6113560000000  0.4909750000000 1.0
C      1  0.3915000000000  0.5498330000000  0.4924660000000 1.0
C      1  0.3814200000000  0.4600230000000  0.4838700000000 1.0
C      1  0.4330540000000  0.3989520000000  0.4910620000000 1.0
C      1  0.5205260000000  0.3722820000000  0.5012140000000 1.0
C      1  0.4748600000000  0.5454370000000  0.5229490000000 1.0
C      1  0.4382810000000  0.4993350000000  0.5203630000000 1.0
C      1  0.4349060000000  0.4702100000000  0.5272640000000 1.0
C      1  0.4798370000000  0.4483630000000  0.5271590000000 1.0
C      1  0.5263440000000  0.4515360000000  0.5111830000000 1.0
C      1  0.5483970000000  0.4748040000000  0.5096840000000 1.0
C      1  0.5478310000000  0.5072300000000  0.5126290000000 1.0
C      1  0.5309210000000  0.5430350000000  0.5168120000000 1.0
C      1  0.5030430000000  0.5585950000000  0.5205570000000 1.0
C      1  0.5642970000000  0.5184390000000  0.5933540000000 1.0
C      1  0.5384310000000  0.5569000000000  0.5914460000000 1.0
C      1  0.4924710000000  0.5704250000000  0.5959860000000 1.0
C      1  0.4537640000000  0.5480510000000  0.5861990000000 1.0
C      1  0.4255650000000  0.5060240000000  0.5958370000000 1.0
C      1  0.4391840000000  0.4619000000000  0.5957330000000 1.0
C      1  0.4799360000000  0.4460400000000  0.5805960000000 1.0
C      1  0.5241350000000  0.4410850000000  0.5962370000000 1.0
C      1  0.5533680000000  0.4755220000000  0.5864330000000 1.0
C      1  0.4468500000000  0.6000430000000  0.5182530000000 1.0
C      1  0.3950780000000  0.5333350000000  0.5170220000000 1.0
C      1  0.3853510000000  0.4485560000000  0.5121860000000 1.0
C      1  0.4458560000000  0.4029470000000  0.5185980000000 1.0
C      1  0.5319690000000  0.3838620000000  0.5258410000000 1.0
C      1  0.5952200000000  0.4284640000000  0.5266970000000 1.0
C      1  0.6156130000000  0.5016050000000  0.5163970000000 1.0
C      1  0.5902840000000  0.5719550000000  0.5155000000000 1.0
C      1  0.5184220000000  0.6204940000000  0.5213910000000 1.0
C      1  0.4268820000000  0.5322360000000  0.5547870000000 1.0
C      1  0.4118460000000  0.4702290000000  0.5471490000000 1.0
C      1  0.4357000000000  0.4343080000000  0.5570290000000 1.0
C      1  0.5152440000000  0.4225850000000  0.5529700000000 1.0
C      1  0.5563920000000  0.4386810000000  0.5556820000000 1.0
C      1  0.5853530000000  0.4970700000000  0.5529140000000 1.0
C      1  0.5716500000000  0.5483980000000  0.5520690000000 1.0
C      1  0.5162340000000  0.5807280000000  0.5495280000000 1.0
C      1  0.4724710000000  0.5787680000000  0.5522670000000 1.0
C      1  0.4628010000000  0.5314760000000  0.4423650000000 1.0
C      1  0.4496380000000  0.5039250000000  0.4446850000000 1.0
C      1  0.4631900000000  0.4754170000000  0.4398850000000 1.0
C      1  0.4909620000000  0.4489240000000  0.4371390000000 1.0
C      1  0.5213390000000  0.4499710000000  0.4327520000000 1.0
C      1  0.5453740000000  0.4781650000000  0.4373900000000 1.0
C      1  0.5429840000000  0.5096070000000  0.4383520000000 1.0
C      1  0.5261270000000  0.5449380000000  0.4372310000000 1.0
C      1  0.4968140000000  0.5499080000000  0.4395150000000 1.0
C      1  0.5391130000000  0.5135680000000  0.6095730000000 1.0
C      1  0.5217710000000  0.5357230000000  0.6020490000000 1.0
C      1  0.4940550000000  0.5431960000000  0.6091200000000 1.0
C      1  0.4695270000000  0.5286280000000  0.6005520000000 1.0
C      1  0.4519290000000  0.5065300000000  0.6112400000000 1.0
C      1  0.4602370000000  0.4769440000000  0.6119610000000 1.0
C      1  0.4854030000000  0.4678950000000  0.5992980000000 1.0
C      1  0.5127170000000  0.4656940000000  0.6102750000000 1.0
C      1  0.5331500000000  0.4858460000000  0.6032050000000 1.0
C      1  0.4759480000000  0.5411260000000  0.4012540000000 1.0
C      1  0.4532910000000  0.5207270000000  0.4001580000000 1.0
C      1  0.4522670000000  0.4911900000000  0.3981180000000 1.0
C      1  0.4742820000000  0.4710820000000  0.3971460000000 1.0
C      1  0.5028740000000  0.4648220000000  0.3894260000000 1.0
C      1  0.5301790000000  0.4762390000000  0.3954490000000 1.0
C      1  0.5439190000000  0.5022900000000  0.3942820000000 1.0
C      1  0.5324350000000  0.5298870000000  0.3962260000000 1.0
C      1  0.5059720000000  0.5459070000000  0.3961040000000 1.0
C      1  0.5990170000000  0.4937780000000  0.4664440000000 1.0
C      1  0.5822910000000  0.5630270000000  0.4660710000000 1.0
C      1  0.5232100000000  0.6017200000000  0.4678470000000 1.0
C      1  0.4541150000000  0.5910700000000  0.4700080000000 1.0
C      1  0.4060410000000  0.5375620000000  0.4704530000000 1.0
C      1  0.4060200000000  0.4647940000000  0.4660450000000 1.0
C      1  0.4488230000000  0.4115250000000  0.4691840000000 1.0
C      1  0.5210300000000  0.3935410000000  0.4698210000000 1.0
C      1  0.5871040000000  0.4265640000000  0.4712200000000 1.0
C      1  0.5739410000000  0.4943180000000  0.5791920000000 1.0
C      1  0.5626590000000  0.5445430000000  0.5794180000000 1.0
C      1  0.5180970000000  0.5761190000000  0.5804180000000 1.0
C      1  0.4677210000000  0.5728100000000  0.5801350000000 1.0
C      1  0.4198400000000  0.5313710000000  0.5829600000000 1.0
C      1  0.4309750000000  0.4832520000000  0.5756310000000 1.0
C      1  0.4512690000000  0.4390140000000  0.5811300000000 1.0
C      1  0.5031180000000  0.4273000000000  0.5798290000000 1.0
C      1  0.5496460000000  0.4479530000000  0.5816970000000 1.0
C      1  0.4416510000000  0.5512870000000  0.4311070000000 1.0
C      1  0.4215840000000  0.5035810000000  0.4308310000000 1.0
C      1  0.4422470000000  0.4561670000000  0.4268420000000 1.0
C      1  0.4826550000000  0.4295960000000  0.4143860000000 1.0
C      1  0.5316590000000  0.4338040000000  0.4087000000000 1.0
C      1  0.5707070000000  0.4734480000000  0.4208960000000 1.0
C      1  0.5687430000000  0.5252580000000  0.4246040000000 1.0
C      1  0.5390550000000  0.5670710000000  0.4197180000000 1.0
C      1  0.4884240000000  0.5772220000000  0.4269580000000 1.0
C      1  0.5126780000000  0.5737660000000  0.4060140000000 1.0
C      1  0.4636950000000  0.5652960000000  0.4138060000000 1.0
C      1  0.4281700000000  0.5294150000000  0.4145500000000 1.0
C      1  0.4281550000000  0.4801000000000  0.4128130000000 1.0
C      1  0.4604930000000  0.4460960000000  0.4052460000000 1.0
C      1  0.5051310000000  0.4350380000000  0.3943470000000 1.0
C      1  0.5506330000000  0.4554920000000  0.3999550000000 1.0
C      1  0.5718820000000  0.5003850000000  0.4064690000000 1.0
C      1  0.5559100000000  0.5465320000000  0.4053590000000 1.0
C      1  0.4801860000000  0.5973460000000  0.4590870000000 1.0
C      1  0.4235130000000  0.5600650000000  0.4637570000000 1.0
C      1  0.3997570000000  0.4938090000000  0.4616880000000 1.0
C      1  0.4346650000000  0.4328340000000  0.4550250000000 1.0
C      1  0.4925490000000  0.3953930000000  0.4754860000000 1.0
C      1  0.5670250000000  0.4052030000000  0.4720050000000 1.0
C      1  0.5909970000000  0.4709930000000  0.4486770000000 1.0
C      1  0.5890080000000  0.5357870000000  0.4560200000000 1.0
C      1  0.5504580000000  0.5936960000000  0.4709410000000 1.0
C      1  0.5372270000000  0.4248420000000  0.5027880000000 1.0
C      1  0.5751440000000  0.4649870000000  0.4999150000000 1.0
C      1  0.5735190000000  0.5183980000000  0.5012680000000 1.0
C      1  0.5538470000000  0.5625480000000  0.5069180000000 1.0
C      1  0.4987330000000  0.5821850000000  0.5030360000000 1.0
C      1  0.4506550000000  0.5621860000000  0.5104880000000 1.0
C      1  0.4126160000000  0.5089870000000  0.5075100000000 1.0
C      1  0.4314180000000  0.4495730000000  0.5045330000000 1.0
C      1  0.4720320000000  0.4225620000000  0.5114370000000 1.0
C      1  0.5344120000000  0.4394670000000  0.4574420000000 1.0
C      1  0.5498150000000  0.4623460000000  0.4635600000000 1.0
C      1  0.5464720000000  0.5153460000000  0.4662920000000 1.0
C      1  0.5356490000000  0.5430810000000  0.4664700000000 1.0
C      1  0.4975250000000  0.5522940000000  0.4697490000000 1.0
C      1  0.4686240000000  0.5400420000000  0.4717360000000 1.0
C      1  0.4471250000000  0.5061500000000  0.4742570000000 1.0
C      1  0.4602190000000  0.4696100000000  0.4707500000000 1.0
C      1  0.4824380000000  0.4472840000000  0.4674000000000 1.0
C      1  0.4704000000000  0.6025730000000  0.5359200000000 1.0
C      1  0.4097480000000  0.5492900000000  0.5375650000000 1.0
C      1  0.3867210000000  0.4717120000000  0.5311390000000 1.0
C      1  0.4250550000000  0.4167750000000  0.5366800000000 1.0
C      1  0.5087360000000  0.3959990000000  0.5408050000000 1.0
C      1  0.5698520000000  0.4194090000000  0.5397720000000 1.0
C      1  0.6041610000000  0.4825260000000  0.5363900000000 1.0
C      1  0.5941890000000  0.5487750000000  0.5336330000000 1.0
C      1  0.5345580000000  0.6008560000000  0.5370260000000 1.0
END
