TITL C-3578200-9634-806 -4.88204897850266e-06 125000 -761.907242358301 0 0 121 (C1) n - 1
REM
REM in /home/bkarasulu/work/CARBON/AIRSS/Generating-Clusters/EDIP-Nigel-Params/with-SteepDescent/Higher-Symm/SD-CG/HFTN-CG
REM
REM
REM
REM
REM
REM ./C.cell (12c818d87b63d06a65506943cc24bca4)
REM
REM compiler GCC version 9.2.1 20190827 (Red Hat 9.2.1-1)
REM options -cpp -mtune=generic -march=x86-64 -g -O0 -fpre-include=/usr/include/finclude/math-vector-fortran.h
REM seed -693044921 556364991 -1215815838 -26910292 1044203261 -1681536843 1874323714 -320624199 1419766870 -429378212 113812848 -22096571 -2069079835 955564058 1610903287 -542857034 728500796 -934182273 1449280621 1532185917 1708838725 2102446321 -2070996862 447213183 1640768161 312126510 60452186 -901581837 -1646782353 -496985470 60943705 163410002 -742726597
REM
CELL 1.54180   50.00000   50.00000   50.00000   90.00000   90.00000   90.00000
LATT -1
SFAC C  
C      1  0.4497240000000  0.4810660000000  0.5813780000000 1.0
C      1  0.4519740000000  0.5114910000000  0.5740410000000 1.0
C      1  0.4556140000000  0.5411420000000  0.5823570000000 1.0
C      1  0.4829540000000  0.5543110000000  0.5829000000000 1.0
C      1  0.5207570000000  0.5515800000000  0.5817740000000 1.0
C      1  0.5478350000000  0.5377450000000  0.5821590000000 1.0
C      1  0.5527370000000  0.5068350000000  0.5856910000000 1.0
C      1  0.5473520000000  0.4768650000000  0.5770380000000 1.0
C      1  0.5267800000000  0.4559740000000  0.5866350000000 1.0
C      1  0.4988790000000  0.4436910000000  0.5815430000000 1.0
C      1  0.4725450000000  0.4600580000000  0.5761000000000 1.0
C      1  0.4449520000000  0.4231340000000  0.5067660000000 1.0
C      1  0.4118890000000  0.4635740000000  0.5069340000000 1.0
C      1  0.4081530000000  0.5160860000000  0.5047400000000 1.0
C      1  0.4324130000000  0.5619910000000  0.5026350000000 1.0
C      1  0.4782690000000  0.5878640000000  0.5055850000000 1.0
C      1  0.5313690000000  0.5903530000000  0.5074080000000 1.0
C      1  0.5748370000000  0.5609630000000  0.5058700000000 1.0
C      1  0.5917470000000  0.5111710000000  0.5036930000000 1.0
C      1  0.5815030000000  0.4593840000000  0.5043010000000 1.0
C      1  0.5441110000000  0.4206540000000  0.5035480000000 1.0
C      1  0.4940210000000  0.4061630000000  0.5049510000000 1.0
C      1  0.4523600000000  0.5787830000000  0.5176560000000 1.0
C      1  0.5041000000000  0.5942230000000  0.5206940000000 1.0
C      1  0.5568280000000  0.5799340000000  0.5205340000000 1.0
C      1  0.5872650000000  0.5371890000000  0.5184080000000 1.0
C      1  0.5923130000000  0.4842260000000  0.5175260000000 1.0
C      1  0.5667410000000  0.4360080000000  0.5169750000000 1.0
C      1  0.5202940000000  0.4100900000000  0.5180810000000 1.0
C      1  0.4685490000000  0.4093220000000  0.5202040000000 1.0
C      1  0.4253090000000  0.4411650000000  0.5210980000000 1.0
C      1  0.4053840000000  0.4896570000000  0.5198780000000 1.0
C      1  0.4149480000000  0.5428130000000  0.5174290000000 1.0
C      1  0.5678380000000  0.5531530000000  0.5641440000000 1.0
C      1  0.5732710000000  0.5090830000000  0.5559100000000 1.0
C      1  0.5701500000000  0.4644160000000  0.5588050000000 1.0
C      1  0.5364580000000  0.4368130000000  0.5559330000000 1.0
C      1  0.4971800000000  0.4173410000000  0.5643080000000 1.0
C      1  0.4622380000000  0.4450990000000  0.5515410000000 1.0
C      1  0.4254560000000  0.4705060000000  0.5647120000000 1.0
C      1  0.4346970000000  0.5132890000000  0.5492180000000 1.0
C      1  0.4373530000000  0.5578580000000  0.5631760000000 1.0
C      1  0.4810340000000  0.5663810000000  0.5550190000000 1.0
C      1  0.5256790000000  0.5657130000000  0.5548500000000 1.0
C      1  0.5330360000000  0.5235990000000  0.5273990000000 1.0
C      1  0.5465450000000  0.5044950000000  0.5419540000000 1.0
C      1  0.5443820000000  0.4780550000000  0.5331930000000 1.0
C      1  0.5240800000000  0.4612350000000  0.5425900000000 1.0
C      1  0.5016750000000  0.4596590000000  0.5265090000000 1.0
C      1  0.4742650000000  0.4599650000000  0.5282170000000 1.0
C      1  0.4624540000000  0.4837070000000  0.5213640000000 1.0
C      1  0.4537050000000  0.5093160000000  0.5258350000000 1.0
C      1  0.4729610000000  0.5283400000000  0.5212950000000 1.0
C      1  0.4893770000000  0.5430280000000  0.5375520000000 1.0
C      1  0.5174870000000  0.5452810000000  0.5337660000000 1.0
C      1  0.4423290000000  0.4202070000000  0.4779180000000 1.0
C      1  0.4106010000000  0.4620770000000  0.4779100000000 1.0
C      1  0.4074960000000  0.5149930000000  0.4756660000000 1.0
C      1  0.4367250000000  0.5573010000000  0.4737120000000 1.0
C      1  0.4794850000000  0.5862240000000  0.4767800000000 1.0
C      1  0.5311420000000  0.5901940000000  0.4781140000000 1.0
C      1  0.5759920000000  0.5623390000000  0.4766320000000 1.0
C      1  0.5888590000000  0.5117010000000  0.4743150000000 1.0
C      1  0.5814300000000  0.4596800000000  0.4752610000000 1.0
C      1  0.5414780000000  0.4233840000000  0.4748340000000 1.0
C      1  0.4922790000000  0.4052050000000  0.4755440000000 1.0
C      1  0.4540270000000  0.5768060000000  0.5473170000000 1.0
C      1  0.5037370000000  0.5870000000000  0.5498090000000 1.0
C      1  0.5536580000000  0.5753580000000  0.5498550000000 1.0
C      1  0.5848440000000  0.5350740000000  0.5478050000000 1.0
C      1  0.5898000000000  0.4849820000000  0.5471520000000 1.0
C      1  0.5654020000000  0.4366630000000  0.5465420000000 1.0
C      1  0.5214710000000  0.4124140000000  0.5477030000000 1.0
C      1  0.4712380000000  0.4168260000000  0.5493840000000 1.0
C      1  0.4327600000000  0.4459270000000  0.5495310000000 1.0
C      1  0.4137280000000  0.4924460000000  0.5484090000000 1.0
C      1  0.4208390000000  0.5393390000000  0.5466690000000 1.0
C      1  0.5718190000000  0.5363930000000  0.4323970000000 1.0
C      1  0.5549140000000  0.4842530000000  0.4455080000000 1.0
C      1  0.5512210000000  0.4549740000000  0.4400060000000 1.0
C      1  0.5225430000000  0.4479660000000  0.4383460000000 1.0
C      1  0.4841740000000  0.4285250000000  0.4386560000000 1.0
C      1  0.4398400000000  0.4640300000000  0.4348350000000 1.0
C      1  0.4246250000000  0.4891960000000  0.4391970000000 1.0
C      1  0.4414160000000  0.5144910000000  0.4427400000000 1.0
C      1  0.4730670000000  0.5636900000000  0.4344870000000 1.0
C      1  0.5030530000000  0.5666060000000  0.4400760000000 1.0
C      1  0.5433470000000  0.5580030000000  0.4471240000000 1.0
C      1  0.5189850000000  0.4754710000000  0.4803700000000 1.0
C      1  0.5066810000000  0.4639130000000  0.4584520000000 1.0
C      1  0.4846400000000  0.4466650000000  0.4627090000000 1.0
C      1  0.4591550000000  0.4595330000000  0.4675190000000 1.0
C      1  0.4621120000000  0.4854950000000  0.4774720000000 1.0
C      1  0.4632040000000  0.5085960000000  0.4627980000000 1.0
C      1  0.4835220000000  0.5262050000000  0.4680550000000 1.0
C      1  0.5040270000000  0.5396040000000  0.4553950000000 1.0
C      1  0.5288520000000  0.5411180000000  0.4676750000000 1.0
C      1  0.5387100000000  0.5179270000000  0.4785140000000 1.0
C      1  0.5389090000000  0.4917960000000  0.4702690000000 1.0
C      1  0.5008310000000  0.5390560000000  0.4039750000000 1.0
C      1  0.5265310000000  0.5476970000000  0.4129220000000 1.0
C      1  0.5485330000000  0.5269210000000  0.4167360000000 1.0
C      1  0.5420280000000  0.4986740000000  0.4214080000000 1.0
C      1  0.5211420000000  0.4851560000000  0.4078250000000 1.0
C      1  0.5127440000000  0.4582640000000  0.4115710000000 1.0
C      1  0.4842040000000  0.4489860000000  0.4147930000000 1.0
C      1  0.4621910000000  0.4691770000000  0.4156590000000 1.0
C      1  0.4632600000000  0.4947900000000  0.4040280000000 1.0
C      1  0.4555170000000  0.5191210000000  0.4159970000000 1.0
C      1  0.4747100000000  0.5412500000000  0.4148050000000 1.0
C      1  0.5161510000000  0.4157100000000  0.4589510000000 1.0
C      1  0.4648170000000  0.4071420000000  0.4644360000000 1.0
C      1  0.4255790000000  0.4407500000000  0.4626920000000 1.0
C      1  0.4079140000000  0.4878810000000  0.4631450000000 1.0
C      1  0.4231440000000  0.5348970000000  0.4589600000000 1.0
C      1  0.4599360000000  0.5705800000000  0.4610320000000 1.0
C      1  0.5052650000000  0.5879710000000  0.4625860000000 1.0
C      1  0.5554980000000  0.5804330000000  0.4630610000000 1.0
C      1  0.5796660000000  0.5367160000000  0.4608910000000 1.0
C      1  0.5839610000000  0.4860020000000  0.4591540000000 1.0
C      1  0.5624170000000  0.4404040000000  0.4620880000000 1.0
END
