TITL C-3577085-527-372 -1.13373376337961e-06 125000 -906.830383371496 0 0 146 (C1) n - 1
REM
REM in /home/bkarasulu/work/CARBON/AIRSS/Generating-Clusters/EDIP-Nigel-Params/with-SteepDescent/Higher-Symm/SD-CG/HFTN-CG
REM
REM
REM
REM
REM
REM ./C.cell (12c818d87b63d06a65506943cc24bca4)
REM
REM compiler GCC version 9.2.1 20190827 (Red Hat 9.2.1-1)
REM options -cpp -mtune=generic -march=x86-64 -g -O0 -fpre-include=/usr/include/finclude/math-vector-fortran.h
REM seed 1135359178 -1991705007 1490965320 1136964658 -1249990913 1617860444 1865475254 -763704606 1058662726 730176848 211882882 -306924272 2082241091 -1010769351 -387515331 585786337 -1721513512 1945029552 -53916716 1424382856 -1456173269 -1787274687 -1892981142 1406277779 128998045 -1294367764 -1468270938 7288033 2054060394 -1622855102 -1516064732 -696870428 613734465
REM
CELL 1.54180   50.00000   50.00000   50.00000   90.00000   90.00000   90.00000
LATT -1
SFAC C  
C      1  0.5758580000000  0.5738300000000  0.5271910000000 1.0
C      1  0.5696030000000  0.4341720000000  0.4713790000000 1.0
C      1  0.5171330000000  0.3986020000000  0.5352200000000 1.0
C      1  0.4979170000000  0.4955280000000  0.5121470000000 1.0
C      1  0.4103550000000  0.4777820000000  0.5074740000000 1.0
C      1  0.5126690000000  0.4776820000000  0.5561630000000 1.0
C      1  0.4446720000000  0.5075250000000  0.4297680000000 1.0
C      1  0.5820670000000  0.4909850000000  0.4672500000000 1.0
C      1  0.4382510000000  0.4343100000000  0.4490540000000 1.0
C      1  0.5628590000000  0.5186440000000  0.4192960000000 1.0
C      1  0.4403610000000  0.4564740000000  0.5678240000000 1.0
C      1  0.4455900000000  0.4843280000000  0.5931780000000 1.0
C      1  0.5413140000000  0.4110690000000  0.4965450000000 1.0
C      1  0.5772180000000  0.4448670000000  0.5238980000000 1.0
C      1  0.4565010000000  0.5677700000000  0.4313380000000 1.0
C      1  0.5700840000000  0.5027430000000  0.5722070000000 1.0
C      1  0.4426820000000  0.4420410000000  0.4776750000000 1.0
C      1  0.5110190000000  0.5042000000000  0.4876350000000 1.0
C      1  0.4077590000000  0.4587690000000  0.5310080000000 1.0
C      1  0.4819390000000  0.5144870000000  0.5957650000000 1.0
C      1  0.5160740000000  0.3973740000000  0.4873040000000 1.0
C      1  0.4741670000000  0.4100650000000  0.5135710000000 1.0
C      1  0.5439830000000  0.5122940000000  0.5229330000000 1.0
C      1  0.5099420000000  0.4228270000000  0.4408600000000 1.0
C      1  0.4702290000000  0.4691140000000  0.5969670000000 1.0
C      1  0.5923750000000  0.4777070000000  0.4911120000000 1.0
C      1  0.4305880000000  0.5343530000000  0.4442070000000 1.0
C      1  0.4749000000000  0.4565580000000  0.5317560000000 1.0
C      1  0.5806200000000  0.5617440000000  0.4758080000000 1.0
C      1  0.4992020000000  0.3929590000000  0.5117520000000 1.0
C      1  0.4511810000000  0.5636380000000  0.5726280000000 1.0
C      1  0.4164780000000  0.4620850000000  0.4822630000000 1.0
C      1  0.5565480000000  0.4294670000000  0.5410060000000 1.0
C      1  0.5067040000000  0.4251620000000  0.5438500000000 1.0
C      1  0.4163520000000  0.5266610000000  0.4910490000000 1.0
C      1  0.5332300000000  0.4402130000000  0.4338790000000 1.0
C      1  0.4986370000000  0.4933000000000  0.4634980000000 1.0
C      1  0.4610580000000  0.4177270000000  0.4396220000000 1.0
C      1  0.5681500000000  0.5743050000000  0.4311210000000 1.0
C      1  0.4618450000000  0.6007540000000  0.4739670000000 1.0
C      1  0.5146020000000  0.5146980000000  0.5314030000000 1.0
C      1  0.4696270000000  0.5113740000000  0.4137810000000 1.0
C      1  0.4483050000000  0.4669020000000  0.4126980000000 1.0
C      1  0.4318910000000  0.4596660000000  0.4358060000000 1.0
C      1  0.5449560000000  0.4054090000000  0.5261730000000 1.0
C      1  0.5328100000000  0.4843960000000  0.4094420000000 1.0
C      1  0.4389210000000  0.5068580000000  0.5753170000000 1.0
C      1  0.5240980000000  0.4788220000000  0.4525820000000 1.0
C      1  0.4259790000000  0.4969910000000  0.5503000000000 1.0
C      1  0.4452000000000  0.5509850000000  0.5239670000000 1.0
C      1  0.5796010000000  0.4758620000000  0.5179330000000 1.0
C      1  0.5394660000000  0.5320340000000  0.4044080000000 1.0
C      1  0.5675380000000  0.4760500000000  0.4457300000000 1.0
C      1  0.4870850000000  0.5224100000000  0.4529030000000 1.0
C      1  0.5787480000000  0.4343920000000  0.4973520000000 1.0
C      1  0.5075440000000  0.6000370000000  0.5020530000000 1.0
C      1  0.5111510000000  0.5058600000000  0.5604260000000 1.0
C      1  0.5201750000000  0.4480540000000  0.5236770000000 1.0
C      1  0.5487120000000  0.5204520000000  0.5780090000000 1.0
C      1  0.5637560000000  0.4756090000000  0.5667260000000 1.0
C      1  0.4096930000000  0.5245800000000  0.4628420000000 1.0
C      1  0.4965710000000  0.5385460000000  0.5255430000000 1.0
C      1  0.4684650000000  0.4803700000000  0.5558980000000 1.0
C      1  0.5137740000000  0.4320660000000  0.5717010000000 1.0
C      1  0.4498230000000  0.4605830000000  0.5171940000000 1.0
C      1  0.4520430000000  0.5544230000000  0.4574890000000 1.0
C      1  0.5876510000000  0.5155620000000  0.5533750000000 1.0
C      1  0.4982720000000  0.5549820000000  0.4254470000000 1.0
C      1  0.5257840000000  0.5572260000000  0.4172700000000 1.0
C      1  0.4749010000000  0.5357150000000  0.5038670000000 1.0
C      1  0.4968540000000  0.4644930000000  0.5138090000000 1.0
C      1  0.5273180000000  0.5129910000000  0.5955490000000 1.0
C      1  0.5169220000000  0.4507810000000  0.4732920000000 1.0
C      1  0.4819680000000  0.5107070000000  0.5651290000000 1.0
C      1  0.4916450000000  0.4901990000000  0.4232470000000 1.0
C      1  0.4847290000000  0.5877540000000  0.4626060000000 1.0
C      1  0.4581180000000  0.4923810000000  0.4799600000000 1.0
C      1  0.5354600000000  0.4415470000000  0.4974340000000 1.0
C      1  0.4578040000000  0.4148220000000  0.4887310000000 1.0
C      1  0.5009170000000  0.4104500000000  0.4658270000000 1.0
C      1  0.5195890000000  0.5823200000000  0.5445060000000 1.0
C      1  0.5282590000000  0.5623040000000  0.5645480000000 1.0
C      1  0.5575640000000  0.5900160000000  0.5094840000000 1.0
C      1  0.5205010000000  0.4828790000000  0.5992740000000 1.0
C      1  0.4579280000000  0.5955700000000  0.5015010000000 1.0
C      1  0.4384430000000  0.5707620000000  0.4797920000000 1.0
C      1  0.4828490000000  0.5916740000000  0.5155420000000 1.0
C      1  0.5008430000000  0.4589600000000  0.5759830000000 1.0
C      1  0.4731850000000  0.4701870000000  0.3977010000000 1.0
C      1  0.5437560000000  0.5111400000000  0.4584490000000 1.0
C      1  0.4018830000000  0.4992890000000  0.4540370000000 1.0
C      1  0.5428900000000  0.4360850000000  0.5697980000000 1.0
C      1  0.4305430000000  0.4395580000000  0.5278380000000 1.0
C      1  0.5579770000000  0.5803780000000  0.4814950000000 1.0
C      1  0.4720220000000  0.4047870000000  0.4645760000000 1.0
C      1  0.4830140000000  0.5780320000000  0.4355130000000 1.0
C      1  0.4940350000000  0.4503970000000  0.4037690000000 1.0
C      1  0.5935980000000  0.4944490000000  0.5354420000000 1.0
C      1  0.4753230000000  0.4645970000000  0.4411450000000 1.0
C      1  0.5445250000000  0.4625930000000  0.5828760000000 1.0
C      1  0.4451390000000  0.4300170000000  0.5529240000000 1.0
C      1  0.4275130000000  0.5520690000000  0.5004780000000 1.0
C      1  0.4797150000000  0.5621410000000  0.5630080000000 1.0
C      1  0.4664760000000  0.4640690000000  0.4721420000000 1.0
C      1  0.5042080000000  0.5558110000000  0.5804090000000 1.0
C      1  0.4755800000000  0.5371310000000  0.5469780000000 1.0
C      1  0.4761740000000  0.5400550000000  0.4138430000000 1.0
C      1  0.5523420000000  0.5337060000000  0.5054390000000 1.0
C      1  0.5296180000000  0.5931130000000  0.5193220000000 1.0
C      1  0.5506270000000  0.5560430000000  0.5272350000000 1.0
C      1  0.4158080000000  0.4751090000000  0.4560900000000 1.0
C      1  0.5208770000000  0.5083490000000  0.3983070000000 1.0
C      1  0.4154560000000  0.4701120000000  0.5568960000000 1.0
C      1  0.5951430000000  0.5143990000000  0.4798590000000 1.0
C      1  0.5436880000000  0.4763400000000  0.4825230000000 1.0
C      1  0.5576100000000  0.4903030000000  0.4220980000000 1.0
C      1  0.5047470000000  0.5325740000000  0.5989200000000 1.0
C      1  0.4334680000000  0.5625020000000  0.5486440000000 1.0
C      1  0.5166850000000  0.5507870000000  0.4745070000000 1.0
C      1  0.4745310000000  0.4266020000000  0.5394690000000 1.0
C      1  0.5747310000000  0.5279000000000  0.4432910000000 1.0
C      1  0.5319570000000  0.5759530000000  0.4653790000000 1.0
C      1  0.4859180000000  0.5455180000000  0.4741630000000 1.0
C      1  0.5531490000000  0.5473020000000  0.5699080000000 1.0
C      1  0.4477400000000  0.4911980000000  0.5271620000000 1.0
C      1  0.4137490000000  0.5441850000000  0.5601210000000 1.0
C      1  0.5105230000000  0.5961670000000  0.4727270000000 1.0
C      1  0.4683430000000  0.5047190000000  0.5058390000000 1.0
C      1  0.4898850000000  0.5844360000000  0.5437730000000 1.0
C      1  0.4845810000000  0.4349970000000  0.4291960000000 1.0
C      1  0.4592670000000  0.5115850000000  0.4572650000000 1.0
C      1  0.4057770000000  0.5156040000000  0.5387430000000 1.0
C      1  0.4042380000000  0.5075040000000  0.5102010000000 1.0
C      1  0.4310920000000  0.5341830000000  0.5823150000000 1.0
C      1  0.5815000000000  0.5553880000000  0.4470900000000 1.0
C      1  0.5404890000000  0.5747540000000  0.4354480000000 1.0
C      1  0.5805180000000  0.5364670000000  0.4923440000000 1.0
C      1  0.5211150000000  0.4585580000000  0.4137640000000 1.0
C      1  0.5774810000000  0.5451770000000  0.5526160000000 1.0
C      1  0.5204140000000  0.5179550000000  0.4355430000000 1.0
C      1  0.5313190000000  0.5267030000000  0.4826140000000 1.0
C      1  0.5499670000000  0.4843090000000  0.5158180000000 1.0
C      1  0.5570940000000  0.4489720000000  0.4505640000000 1.0
C      1  0.5367530000000  0.4681720000000  0.5399980000000 1.0
C      1  0.4912720000000  0.4561480000000  0.4866280000000 1.0
C      1  0.4900050000000  0.4877810000000  0.6070650000000 1.0
END
