TITL C-3578195-8548-37 3.02636951810224e-05 125000 -62.6105442035281 0 0 12 (Cs) n - 1
REM
REM in /home/bkarasulu/work/CARBON/AIRSS/Generating-Clusters/EDIP-Nigel-Params/with-SteepDescent/Higher-Symm/SD-CG/HFTN-CG
REM
REM
REM
REM
REM
REM ./C.cell (12c818d87b63d06a65506943cc24bca4)
REM
REM compiler GCC version 9.2.1 20190827 (Red Hat 9.2.1-1)
REM options -cpp -mtune=generic -march=x86-64 -g -O0 -fpre-include=/usr/include/finclude/math-vector-fortran.h
REM seed 2018226230 -1161440996 -339554599 1011998840 -1139078992 -632827806 2091781379 -769474040 -232025872 -1416149278 1636476852 349068446 2091103192 -149773317 -414416463 -379734962 1072883142 1167884415 1068343958 -865743824 -1977950042 -1434683435 91681039 1753463405 -1310658131 1371279085 -1450255766 1401711922 -926350536 -1141246168 -888270483 -521676616 1799668293
REM
CELL 1.54180   50.00000   50.00000   50.00000   90.00000   90.00000   90.00000
LATT -1
SFAC C  
C      1  0.5248820000000  0.5016610000000  0.4706050000000 1.0
C      1  0.5457390000000  0.4817100000000  0.4767450000000 1.0
C      1  0.5398090000000  0.4654180000000  0.5003450000000 1.0
C      1  0.5398180000000  0.4786450000000  0.5255310000000 1.0
C      1  0.5457560000000  0.5073200000000  0.5255120000000 1.0
C      1  0.5248970000000  0.5237060000000  0.5125850000000 1.0
C      1  0.5306550000000  0.5281030000000  0.4834960000000 1.0
C      1  0.4563820000000  0.5022210000000  0.4971140000000 1.0
C      1  0.4828010000000  0.5015470000000  0.4974580000000 1.0
C      1  0.4308780000000  0.5038560000000  0.4962630000000 1.0
C      1  0.5109020000000  0.4982860000000  0.4991610000000 1.0
C      1  0.5595040000000  0.4992580000000  0.4986330000000 1.0
END
