TITL C-3578200-9634-255 -1.64876058304751e-06 125000 -949.902297427796 0 0 150 (C1) n - 1
REM
REM in /home/bkarasulu/work/CARBON/AIRSS/Generating-Clusters/EDIP-Nigel-Params/with-SteepDescent/Higher-Symm/SD-CG/HFTN-CG
REM
REM
REM
REM
REM
REM ./C.cell (12c818d87b63d06a65506943cc24bca4)
REM
REM compiler GCC version 9.2.1 20190827 (Red Hat 9.2.1-1)
REM options -cpp -mtune=generic -march=x86-64 -g -O0 -fpre-include=/usr/include/finclude/math-vector-fortran.h
REM seed -599861970 120305408 1866348630 517669168 -1884669792 -1433900596 -162660112 -1407935299 1335933393 1564342797 -1648840489 1225689321 1441300505 732349045 1345955563 453679943 1389260216 1481012439 -1157749532 -1069664640 53130666 -695789067 1835843911 -752527849 -693270781 -1544645329 482701262 -1910527378 -1142337655 348731908 -1430124645 -814329655 1837933109
REM
CELL 1.54180   50.00000   50.00000   50.00000   90.00000   90.00000   90.00000
LATT -1
SFAC C  
C      1  0.3938410000000  0.5210510000000  0.5468870000000 1.0
C      1  0.6083780000000  0.5207020000000  0.4534260000000 1.0
C      1  0.6064540000000  0.4780640000000  0.5461030000000 1.0
C      1  0.3963090000000  0.4735160000000  0.4548140000000 1.0
C      1  0.4122970000000  0.4377560000000  0.5356080000000 1.0
C      1  0.5826850000000  0.4368870000000  0.4702040000000 1.0
C      1  0.5826750000000  0.5610800000000  0.5290030000000 1.0
C      1  0.4168270000000  0.5613400000000  0.4701930000000 1.0
C      1  0.4783110000000  0.4765880000000  0.5155040000000 1.0
C      1  0.5225770000000  0.4781660000000  0.4852980000000 1.0
C      1  0.5219320000000  0.5204250000000  0.5151830000000 1.0
C      1  0.4777170000000  0.5210700000000  0.4852740000000 1.0
C      1  0.5897100000000  0.4772370000000  0.4388870000000 1.0
C      1  0.4105130000000  0.4778880000000  0.5646780000000 1.0
C      1  0.4109070000000  0.5204050000000  0.4392620000000 1.0
C      1  0.5895630000000  0.5223980000000  0.5621010000000 1.0
C      1  0.5868100000000  0.5067660000000  0.4420390000000 1.0
C      1  0.4121420000000  0.5073650000000  0.5632590000000 1.0
C      1  0.4150690000000  0.4909230000000  0.4425600000000 1.0
C      1  0.5876110000000  0.4925620000000  0.5611840000000 1.0
C      1  0.4631270000000  0.5604530000000  0.5573800000000 1.0
C      1  0.5387590000000  0.5649510000000  0.4396820000000 1.0
C      1  0.5364630000000  0.4383170000000  0.5572830000000 1.0
C      1  0.4611170000000  0.4334630000000  0.4358640000000 1.0
C      1  0.4681760000000  0.5630710000000  0.4875350000000 1.0
C      1  0.5317620000000  0.5618250000000  0.5111850000000 1.0
C      1  0.5309760000000  0.4358210000000  0.4868640000000 1.0
C      1  0.4645780000000  0.4364730000000  0.5096260000000 1.0
C      1  0.4603260000000  0.5209790000000  0.4400890000000 1.0
C      1  0.5409640000000  0.5211610000000  0.5601900000000 1.0
C      1  0.5403530000000  0.4781890000000  0.4401260000000 1.0
C      1  0.4587160000000  0.4780020000000  0.5607660000000 1.0
C      1  0.5701760000000  0.5357190000000  0.5798360000000 1.0
C      1  0.4301050000000  0.5336580000000  0.4209550000000 1.0
C      1  0.4301610000000  0.4647460000000  0.5822700000000 1.0
C      1  0.5701570000000  0.4650140000000  0.4206190000000 1.0
C      1  0.4970720000000  0.5142690000000  0.5303560000000 1.0
C      1  0.5022970000000  0.5147120000000  0.4703710000000 1.0
C      1  0.5023970000000  0.4836680000000  0.5305800000000 1.0
C      1  0.4982840000000  0.4846940000000  0.4703110000000 1.0
C      1  0.5797450000000  0.5677310000000  0.4995070000000 1.0
C      1  0.4198780000000  0.5684620000000  0.4995760000000 1.0
C      1  0.4091440000000  0.4267730000000  0.5099900000000 1.0
C      1  0.5791890000000  0.4297930000000  0.4995810000000 1.0
C      1  0.4396570000000  0.4512330000000  0.4400030000000 1.0
C      1  0.5610250000000  0.4523560000000  0.5585330000000 1.0
C      1  0.5616350000000  0.5484120000000  0.4415210000000 1.0
C      1  0.4386860000000  0.5465660000000  0.5585780000000 1.0
C      1  0.4430500000000  0.4395130000000  0.5761210000000 1.0
C      1  0.5569470000000  0.4397460000000  0.4253330000000 1.0
C      1  0.5564240000000  0.5604620000000  0.5737160000000 1.0
C      1  0.4431800000000  0.5592300000000  0.4256450000000 1.0
C      1  0.4068670000000  0.4672100000000  0.5365420000000 1.0
C      1  0.5929350000000  0.4652530000000  0.4667010000000 1.0
C      1  0.5925760000000  0.5326530000000  0.5334820000000 1.0
C      1  0.4067370000000  0.5328260000000  0.4666730000000 1.0
C      1  0.4834880000000  0.4399840000000  0.4169850000000 1.0
C      1  0.5165930000000  0.4398370000000  0.5799310000000 1.0
C      1  0.5175080000000  0.5602170000000  0.4187960000000 1.0
C      1  0.4829070000000  0.5589060000000  0.5802490000000 1.0
C      1  0.5165900000000  0.4663620000000  0.4266110000000 1.0
C      1  0.4821300000000  0.4656090000000  0.5742230000000 1.0
C      1  0.4842870000000  0.5332610000000  0.4270440000000 1.0
C      1  0.5175140000000  0.5336880000000  0.5736190000000 1.0
C      1  0.4755370000000  0.4767430000000  0.4866370000000 1.0
C      1  0.5253750000000  0.4762290000000  0.5138180000000 1.0
C      1  0.5251680000000  0.5225050000000  0.4865970000000 1.0
C      1  0.4746470000000  0.5231310000000  0.5136550000000 1.0
C      1  0.4868020000000  0.5305270000000  0.6055210000000 1.0
C      1  0.5146690000000  0.5330510000000  0.3951540000000 1.0
C      1  0.5136730000000  0.4686440000000  0.6052190000000 1.0
C      1  0.4871480000000  0.4679040000000  0.3938410000000 1.0
C      1  0.5315360000000  0.5673080000000  0.5868990000000 1.0
C      1  0.4682820000000  0.5655600000000  0.4125500000000 1.0
C      1  0.4685060000000  0.4319450000000  0.5877530000000 1.0
C      1  0.5322060000000  0.4340060000000  0.4116680000000 1.0
C      1  0.4729590000000  0.4928250000000  0.4016010000000 1.0
C      1  0.5275500000000  0.4932870000000  0.5984970000000 1.0
C      1  0.5287160000000  0.5076660000000  0.4022830000000 1.0
C      1  0.4727640000000  0.5059400000000  0.5989290000000 1.0
C      1  0.5630580000000  0.4783310000000  0.5687850000000 1.0
C      1  0.4393400000000  0.4779780000000  0.4333730000000 1.0
C      1  0.4370650000000  0.5211730000000  0.5697920000000 1.0
C      1  0.5620570000000  0.5212650000000  0.4354370000000 1.0
C      1  0.4005880000000  0.5292610000000  0.5212490000000 1.0
C      1  0.5996060000000  0.5287870000000  0.4784940000000 1.0
C      1  0.5992140000000  0.4687630000000  0.5209570000000 1.0
C      1  0.4040880000000  0.4639850000000  0.4801270000000 1.0
C      1  0.6003070000000  0.5558300000000  0.4846540000000 1.0
C      1  0.3998210000000  0.5562870000000  0.5149700000000 1.0
C      1  0.4161440000000  0.4364720000000  0.4850200000000 1.0
C      1  0.5993020000000  0.4415580000000  0.5153210000000 1.0
C      1  0.4263970000000  0.5176560000000  0.5125540000000 1.0
C      1  0.5738210000000  0.5168540000000  0.4870820000000 1.0
C      1  0.5735200000000  0.4804690000000  0.5123930000000 1.0
C      1  0.4272230000000  0.4810520000000  0.4876250000000 1.0
C      1  0.5509960000000  0.5339670000000  0.4756910000000 1.0
C      1  0.4491100000000  0.5354950000000  0.5234860000000 1.0
C      1  0.4503820000000  0.4666120000000  0.4739630000000 1.0
C      1  0.5505410000000  0.4630520000000  0.5233450000000 1.0
C      1  0.5374450000000  0.5816490000000  0.5326530000000 1.0
C      1  0.4620010000000  0.5826690000000  0.4659490000000 1.0
C      1  0.4593880000000  0.4188700000000  0.5332070000000 1.0
C      1  0.5373620000000  0.4163550000000  0.4652160000000 1.0
C      1  0.4915180000000  0.4752760000000  0.4427170000000 1.0
C      1  0.5096940000000  0.4728910000000  0.5586580000000 1.0
C      1  0.5092840000000  0.5240970000000  0.4430960000000 1.0
C      1  0.4900120000000  0.5258740000000  0.5582630000000 1.0
C      1  0.5444720000000  0.5295780000000  0.5297050000000 1.0
C      1  0.4556180000000  0.5301880000000  0.4701830000000 1.0
C      1  0.4551610000000  0.4682380000000  0.5301670000000 1.0
C      1  0.5443960000000  0.4686670000000  0.4701160000000 1.0
C      1  0.5711100000000  0.4811010000000  0.4809280000000 1.0
C      1  0.4292320000000  0.4814760000000  0.5196460000000 1.0
C      1  0.4288270000000  0.5173850000000  0.4809360000000 1.0
C      1  0.5709800000000  0.5167240000000  0.5187690000000 1.0
C      1  0.4884900000000  0.5847040000000  0.4528070000000 1.0
C      1  0.5110960000000  0.5820160000000  0.5454890000000 1.0
C      1  0.5112570000000  0.4147850000000  0.4514080000000 1.0
C      1  0.4865260000000  0.4195130000000  0.5447230000000 1.0
C      1  0.5151850000000  0.4791460000000  0.3987670000000 1.0
C      1  0.4858210000000  0.4779260000000  0.6012350000000 1.0
C      1  0.4864560000000  0.5212420000000  0.3989050000000 1.0
C      1  0.5145340000000  0.5213710000000  0.6007590000000 1.0
C      1  0.4658520000000  0.4909610000000  0.4308220000000 1.0
C      1  0.5364730000000  0.4914430000000  0.5700170000000 1.0
C      1  0.5354220000000  0.5085510000000  0.4316610000000 1.0
C      1  0.4636160000000  0.5078390000000  0.5704960000000 1.0
C      1  0.4919580000000  0.4231030000000  0.5735360000000 1.0
C      1  0.5079230000000  0.4238590000000  0.4232300000000 1.0
C      1  0.5071540000000  0.5761120000000  0.5742190000000 1.0
C      1  0.4924600000000  0.5758450000000  0.4246590000000 1.0
C      1  0.5591110000000  0.4310020000000  0.4528360000000 1.0
C      1  0.4383650000000  0.4319520000000  0.5486190000000 1.0
C      1  0.4405360000000  0.5677970000000  0.4531410000000 1.0
C      1  0.5589770000000  0.5677560000000  0.5458400000000 1.0
C      1  0.4473150000000  0.4374690000000  0.4834620000000 1.0
C      1  0.5503470000000  0.4349060000000  0.5101910000000 1.0
C      1  0.5513110000000  0.5627800000000  0.4880030000000 1.0
C      1  0.4485660000000  0.5637420000000  0.5105750000000 1.0
C      1  0.5093060000000  0.5862860000000  0.4738510000000 1.0
C      1  0.4903520000000  0.5855830000000  0.5250110000000 1.0
C      1  0.4900180000000  0.4139760000000  0.4719050000000 1.0
C      1  0.5072160000000  0.4152600000000  0.5245290000000 1.0
C      1  0.4632800000000  0.5780060000000  0.5336070000000 1.0
C      1  0.5368040000000  0.5790940000000  0.4657760000000 1.0
C      1  0.5347970000000  0.4214390000000  0.5331020000000 1.0
C      1  0.4629330000000  0.4209140000000  0.4626970000000 1.0
C      1  0.4998290000000  0.4282640000000  0.4976510000000 1.0
C      1  0.4991120000000  0.5713890000000  0.4990010000000 1.0
END
