TITL C-3578195-8548-331 -3.42524688670228e-06 125000 -1107.21608290182 0 0 181 (C1) n - 1
REM
REM in /home/bkarasulu/work/CARBON/AIRSS/Generating-Clusters/EDIP-Nigel-Params/with-SteepDescent/Higher-Symm/SD-CG/HFTN-CG
REM
REM
REM
REM
REM
REM ./C.cell (12c818d87b63d06a65506943cc24bca4)
REM
REM compiler GCC version 9.2.1 20190827 (Red Hat 9.2.1-1)
REM options -cpp -mtune=generic -march=x86-64 -g -O0 -fpre-include=/usr/include/finclude/math-vector-fortran.h
REM seed -1286404916 1474669160 -640364061 40456903 -1662582633 -1618201772 -413229342 -1487237963 -1840769750 -1687201741 819846532 -1858515997 882879819 1332018248 -629097765 1343967171 -939999224 620081690 267998469 -1064472187 163830495 -631369105 -87992974 2043124411 693104811 -1960533365 -914453247 -1889662947 1854414405 -1755076793 -569336650 1155831672 1179744737
REM
CELL 1.54180   50.00000   50.00000   50.00000   90.00000   90.00000   90.00000
LATT -1
SFAC C  
C      1  0.5863490000000  0.4897570000000  0.5803920000000 1.0
C      1  0.5822300000000  0.4205310000000  0.5166780000000 1.0
C      1  0.5783040000000  0.4628840000000  0.4300960000000 1.0
C      1  0.5819800000000  0.5622340000000  0.4399520000000 1.0
C      1  0.5769800000000  0.5741060000000  0.5381680000000 1.0
C      1  0.5419780000000  0.4152220000000  0.4595720000000 1.0
C      1  0.5402360000000  0.5127970000000  0.4067960000000 1.0
C      1  0.5407020000000  0.5930470000000  0.4837010000000 1.0
C      1  0.5425170000000  0.5444570000000  0.5849680000000 1.0
C      1  0.5412320000000  0.4318080000000  0.5668660000000 1.0
C      1  0.5058980000000  0.6084490000000  0.5477760000000 1.0
C      1  0.5089690000000  0.4890890000000  0.6212860000000 1.0
C      1  0.5028140000000  0.3803190000000  0.5237430000000 1.0
C      1  0.5053070000000  0.4383670000000  0.3972120000000 1.0
C      1  0.5052200000000  0.5780560000000  0.4102140000000 1.0
C      1  0.5694210000000  0.5414870000000  0.4987410000000 1.0
C      1  0.5731540000000  0.5121200000000  0.5378030000000 1.0
C      1  0.5738580000000  0.4678740000000  0.5206690000000 1.0
C      1  0.5737500000000  0.4661090000000  0.4730270000000 1.0
C      1  0.5695630000000  0.5134970000000  0.4593080000000 1.0
C      1  0.5549960000000  0.4862770000000  0.4611310000000 1.0
C      1  0.5537040000000  0.5318760000000  0.4755210000000 1.0
C      1  0.5535680000000  0.5310640000000  0.5225770000000 1.0
C      1  0.5557710000000  0.4880480000000  0.5335980000000 1.0
C      1  0.5574850000000  0.4619940000000  0.4977620000000 1.0
C      1  0.4221480000000  0.4371900000000  0.5475600000000 1.0
C      1  0.4225200000000  0.4326850000000  0.4522830000000 1.0
C      1  0.4247370000000  0.5226650000000  0.4159870000000 1.0
C      1  0.4248020000000  0.5846450000000  0.4956850000000 1.0
C      1  0.4284870000000  0.5288320000000  0.5776060000000 1.0
C      1  0.5010080000000  0.4623600000000  0.5774540000000 1.0
C      1  0.4994640000000  0.4195280000000  0.4907670000000 1.0
C      1  0.4863190000000  0.4945420000000  0.4308590000000 1.0
C      1  0.4875310000000  0.5652600000000  0.4727020000000 1.0
C      1  0.4913050000000  0.5437490000000  0.5519300000000 1.0
C      1  0.4837570000000  0.5584220000000  0.4032900000000 1.0
C      1  0.4841280000000  0.6095080000000  0.5271170000000 1.0
C      1  0.4860580000000  0.5068430000000  0.6136700000000 1.0
C      1  0.4819610000000  0.3938100000000  0.5394690000000 1.0
C      1  0.4848200000000  0.4264400000000  0.4147920000000 1.0
C      1  0.5285750000000  0.4709210000000  0.3987050000000 1.0
C      1  0.5281240000000  0.5905340000000  0.4413130000000 1.0
C      1  0.5291040000000  0.5842480000000  0.5705280000000 1.0
C      1  0.5377870000000  0.4587580000000  0.6073900000000 1.0
C      1  0.5349160000000  0.3868280000000  0.4943780000000 1.0
C      1  0.4643140000000  0.4503870000000  0.5193600000000 1.0
C      1  0.4604670000000  0.4664710000000  0.4623720000000 1.0
C      1  0.4654390000000  0.5249100000000  0.4543870000000 1.0
C      1  0.4680680000000  0.5508940000000  0.5088600000000 1.0
C      1  0.4662970000000  0.5024660000000  0.5544510000000 1.0
C      1  0.5416170000000  0.3877500000000  0.4679870000000 1.0
C      1  0.5403940000000  0.4932210000000  0.3850380000000 1.0
C      1  0.5402470000000  0.6088540000000  0.4592990000000 1.0
C      1  0.5408630000000  0.5722230000000  0.5935410000000 1.0
C      1  0.5405930000000  0.4334030000000  0.5956610000000 1.0
C      1  0.4987830000000  0.4153580000000  0.4384250000000 1.0
C      1  0.4976850000000  0.5317310000000  0.4016610000000 1.0
C      1  0.4979410000000  0.6045280000000  0.5007310000000 1.0
C      1  0.4997530000000  0.5278710000000  0.5972190000000 1.0
C      1  0.4966310000000  0.4121920000000  0.5571640000000 1.0
C      1  0.4848130000000  0.5468490000000  0.4484180000000 1.0
C      1  0.4877100000000  0.5626910000000  0.5283630000000 1.0
C      1  0.4906400000000  0.4918790000000  0.5732570000000 1.0
C      1  0.4901410000000  0.4311480000000  0.5183450000000 1.0
C      1  0.4832170000000  0.4664730000000  0.4430370000000 1.0
C      1  0.4223730000000  0.4183060000000  0.5012660000000 1.0
C      1  0.4279230000000  0.4733650000000  0.4236690000000 1.0
C      1  0.4301170000000  0.5612540000000  0.4506170000000 1.0
C      1  0.4315290000000  0.5641140000000  0.5421420000000 1.0
C      1  0.4252980000000  0.4783710000000  0.5772740000000 1.0
C      1  0.3992920000000  0.4718250000000  0.5314410000000 1.0
C      1  0.3967620000000  0.4589240000000  0.4807200000000 1.0
C      1  0.3966360000000  0.5019560000000  0.4485180000000 1.0
C      1  0.4009680000000  0.5433530000000  0.4889340000000 1.0
C      1  0.4035590000000  0.5228020000000  0.5371690000000 1.0
C      1  0.4134800000000  0.5433310000000  0.5569530000000 1.0
C      1  0.4042030000000  0.4579170000000  0.5573830000000 1.0
C      1  0.4039880000000  0.4304330000000  0.4749620000000 1.0
C      1  0.4090370000000  0.4984430000000  0.4221200000000 1.0
C      1  0.4104860000000  0.5685420000000  0.4751540000000 1.0
C      1  0.4159570000000  0.4656370000000  0.5030690000000 1.0
C      1  0.4130630000000  0.4841000000000  0.4661420000000 1.0
C      1  0.4168630000000  0.5242850000000  0.4720210000000 1.0
C      1  0.4199260000000  0.5303690000000  0.5126860000000 1.0
C      1  0.4191670000000  0.4944180000000  0.5325300000000 1.0
C      1  0.4700790000000  0.5852290000000  0.5373720000000 1.0
C      1  0.4649560000000  0.4894300000000  0.6026470000000 1.0
C      1  0.4616120000000  0.4047770000000  0.5223980000000 1.0
C      1  0.4699060000000  0.4509920000000  0.4206160000000 1.0
C      1  0.4685370000000  0.5621580000000  0.4285870000000 1.0
C      1  0.4602110000000  0.4967980000000  0.3958670000000 1.0
C      1  0.4599380000000  0.5985370000000  0.4654640000000 1.0
C      1  0.4619610000000  0.5577330000000  0.5808530000000 1.0
C      1  0.4606900000000  0.4467170000000  0.5733140000000 1.0
C      1  0.4606120000000  0.4108800000000  0.4726400000000 1.0
C      1  0.5715300000000  0.5391430000000  0.5782350000000 1.0
C      1  0.5704920000000  0.4420370000000  0.5627270000000 1.0
C      1  0.5708870000000  0.4234180000000  0.4637590000000 1.0
C      1  0.5687050000000  0.5139410000000  0.4159490000000 1.0
C      1  0.5690560000000  0.5834680000000  0.4866670000000 1.0
C      1  0.4439000000000  0.5441290000000  0.5243860000000 1.0
C      1  0.4413040000000  0.4837790000000  0.5513030000000 1.0
C      1  0.4392440000000  0.4448340000000  0.4995260000000 1.0
C      1  0.4383900000000  0.4807590000000  0.4503540000000 1.0
C      1  0.4423220000000  0.5388240000000  0.4660280000000 1.0
C      1  0.4122080000000  0.4199570000000  0.5278240000000 1.0
C      1  0.4144380000000  0.4488780000000  0.4304480000000 1.0
C      1  0.4173290000000  0.5467450000000  0.4290720000000 1.0
C      1  0.4178660000000  0.5804950000000  0.5228760000000 1.0
C      1  0.4174980000000  0.5044020000000  0.5856660000000 1.0
C      1  0.5259720000000  0.5380540000000  0.4003980000000 1.0
C      1  0.5265410000000  0.6060270000000  0.5066580000000 1.0
C      1  0.5280840000000  0.5247540000000  0.6027140000000 1.0
C      1  0.5255270000000  0.4071710000000  0.5559830000000 1.0
C      1  0.5275300000000  0.4168950000000  0.4329580000000 1.0
C      1  0.4816310000000  0.5245710000000  0.5036100000000 1.0
C      1  0.4809440000000  0.5039700000000  0.5272310000000 1.0
C      1  0.4782430000000  0.4772650000000  0.5107150000000 1.0
C      1  0.4676450000000  0.4839780000000  0.4842930000000 1.0
C      1  0.4787100000000  0.5095770000000  0.4764800000000 1.0
C      1  0.4986260000000  0.5892610000000  0.4466480000000 1.0
C      1  0.4998560000000  0.5766480000000  0.5690180000000 1.0
C      1  0.5094180000000  0.4627100000000  0.6068210000000 1.0
C      1  0.5055850000000  0.3891890000000  0.4941880000000 1.0
C      1  0.4991000000000  0.4765850000000  0.3997450000000 1.0
C      1  0.5418160000000  0.4806190000000  0.5592550000000 1.0
C      1  0.5374150000000  0.4417150000000  0.5021880000000 1.0
C      1  0.5341670000000  0.4767090000000  0.4415860000000 1.0
C      1  0.5328920000000  0.5471950000000  0.4633140000000 1.0
C      1  0.5383010000000  0.5532070000000  0.5349460000000 1.0
C      1  0.4566980000000  0.5820380000000  0.5640170000000 1.0
C      1  0.4490010000000  0.4667160000000  0.5929670000000 1.0
C      1  0.4474310000000  0.4004460000000  0.4975200000000 1.0
C      1  0.4561460000000  0.4672520000000  0.3993150000000 1.0
C      1  0.4556050000000  0.5872470000000  0.4382140000000 1.0
C      1  0.5813920000000  0.5768050000000  0.4625250000000 1.0
C      1  0.5796290000000  0.5593410000000  0.5605360000000 1.0
C      1  0.5658060000000  0.4707800000000  0.5756190000000 1.0
C      1  0.5816290000000  0.4179500000000  0.4894990000000 1.0
C      1  0.5789730000000  0.4886100000000  0.4218050000000 1.0
C      1  0.5303220000000  0.5633060000000  0.4138040000000 1.0
C      1  0.5307980000000  0.6000020000000  0.5348480000000 1.0
C      1  0.5355900000000  0.4976860000000  0.6112730000000 1.0
C      1  0.5296000000000  0.3900950000000  0.5322300000000 1.0
C      1  0.5317530000000  0.4342480000000  0.4098920000000 1.0
C      1  0.4886440000000  0.5052420000000  0.3891550000000 1.0
C      1  0.4880550000000  0.6086270000000  0.4718870000000 1.0
C      1  0.4895650000000  0.5562080000000  0.5930780000000 1.0
C      1  0.4833120000000  0.4287160000000  0.5770780000000 1.0
C      1  0.4858420000000  0.3993260000000  0.4608410000000 1.0
C      1  0.5957030000000  0.5264360000000  0.4977970000000 1.0
C      1  0.5983530000000  0.5090050000000  0.5215080000000 1.0
C      1  0.5993070000000  0.4811620000000  0.5116360000000 1.0
C      1  0.5985350000000  0.4812180000000  0.4819870000000 1.0
C      1  0.5958470000000  0.5094680000000  0.4735900000000 1.0
C      1  0.5818990000000  0.5755070000000  0.5109880000000 1.0
C      1  0.5770770000000  0.5129160000000  0.5670840000000 1.0
C      1  0.5796210000000  0.4423970000000  0.5345900000000 1.0
C      1  0.5848920000000  0.4410150000000  0.4458740000000 1.0
C      1  0.5800900000000  0.5362660000000  0.4303090000000 1.0
C      1  0.5160380000000  0.4494360000000  0.5225780000000 1.0
C      1  0.5141320000000  0.4611000000000  0.4595430000000 1.0
C      1  0.5143850000000  0.5349250000000  0.4426990000000 1.0
C      1  0.5170620000000  0.5639000000000  0.5149660000000 1.0
C      1  0.5188210000000  0.5042470000000  0.5647190000000 1.0
C      1  0.5097260000000  0.5105690000000  0.4720530000000 1.0
C      1  0.5125140000000  0.5293470000000  0.4979120000000 1.0
C      1  0.5095430000000  0.5075160000000  0.5362970000000 1.0
C      1  0.5075410000000  0.4737730000000  0.5082480000000 1.0
C      1  0.5216360000000  0.4832840000000  0.4823410000000 1.0
C      1  0.4478210000000  0.4387100000000  0.4692130000000 1.0
C      1  0.4519680000000  0.5103540000000  0.4211030000000 1.0
C      1  0.4524550000000  0.5772090000000  0.4850350000000 1.0
C      1  0.4560500000000  0.5319770000000  0.5636870000000 1.0
C      1  0.4485310000000  0.4528030000000  0.5466100000000 1.0
C      1  0.5235360000000  0.4338860000000  0.4773470000000 1.0
C      1  0.5195840000000  0.5012720000000  0.4300170000000 1.0
C      1  0.5199530000000  0.5686890000000  0.4798680000000 1.0
C      1  0.5244390000000  0.5419400000000  0.5589760000000 1.0
C      1  0.5243620000000  0.4556860000000  0.5561660000000 1.0
C      1  0.5299610000000  0.5112050000000  0.5147800000000 1.0
END
