TITL C-3578200-9634-134 9.05231415888899e-07 125000 -395.768801025444 0 0 64 (C1) n - 1
REM
REM in /home/bkarasulu/work/CARBON/AIRSS/Generating-Clusters/EDIP-Nigel-Params/with-SteepDescent/Higher-Symm/SD-CG/HFTN-CG
REM
REM
REM
REM
REM
REM ./C.cell (12c818d87b63d06a65506943cc24bca4)
REM
REM compiler GCC version 9.2.1 20190827 (Red Hat 9.2.1-1)
REM options -cpp -mtune=generic -march=x86-64 -g -O0 -fpre-include=/usr/include/finclude/math-vector-fortran.h
REM seed -567444683 -1550607451 1600118571 -193733333 -549520182 1015098209 619833752 -1976858688 -828065157 1624713133 1404696871 -267913188 697317323 -98228166 1483415797 -209712351 1993117959 728192121 842018931 -1321308779 -446510202 -2141367675 1027733922 -1115259961 1902034989 -1335129402 -2032204569 -1609210814 -1613674648 654247163 1120272109 1571172225 -327425800
REM
CELL 1.54180   50.00000   50.00000   50.00000   90.00000   90.00000   90.00000
LATT -1
SFAC C  
C      1  0.5241380000000  0.4998330000000  0.4283230000000 1.0
C      1  0.4722700000000  0.4982210000000  0.4300750000000 1.0
C      1  0.4396880000000  0.4999860000000  0.4682990000000 1.0
C      1  0.4281030000000  0.5007000000000  0.5170490000000 1.0
C      1  0.4553530000000  0.5030210000000  0.5622950000000 1.0
C      1  0.5040950000000  0.5031760000000  0.5822140000000 1.0
C      1  0.5538970000000  0.5030250000000  0.5602490000000 1.0
C      1  0.5803790000000  0.5011780000000  0.5152530000000 1.0
C      1  0.5677710000000  0.5016650000000  0.4558360000000 1.0
C      1  0.5254110000000  0.5659240000000  0.4649580000000 1.0
C      1  0.4958260000000  0.5621510000000  0.4578920000000 1.0
C      1  0.4653710000000  0.5659250000000  0.4632700000000 1.0
C      1  0.4507870000000  0.5677660000000  0.4891140000000 1.0
C      1  0.4616170000000  0.5674210000000  0.5253210000000 1.0
C      1  0.4868140000000  0.5651380000000  0.5413760000000 1.0
C      1  0.5091270000000  0.5503270000000  0.5279640000000 1.0
C      1  0.5336780000000  0.5636160000000  0.5183490000000 1.0
C      1  0.5348000000000  0.5713180000000  0.4911250000000 1.0
C      1  0.5057690000000  0.5320460000000  0.5729490000000 1.0
C      1  0.5458130000000  0.5314780000000  0.5533050000000 1.0
C      1  0.5685460000000  0.5288890000000  0.5084370000000 1.0
C      1  0.5608100000000  0.5295720000000  0.4648220000000 1.0
C      1  0.5205780000000  0.5269550000000  0.4391000000000 1.0
C      1  0.4732860000000  0.5266910000000  0.4378050000000 1.0
C      1  0.4326610000000  0.5291190000000  0.4648850000000 1.0
C      1  0.4370500000000  0.5284880000000  0.5126770000000 1.0
C      1  0.4630430000000  0.5290850000000  0.5519620000000 1.0
C      1  0.5448520000000  0.4850360000000  0.4450560000000 1.0
C      1  0.4986590000000  0.4830580000000  0.4308200000000 1.0
C      1  0.4535660000000  0.4847650000000  0.4476860000000 1.0
C      1  0.4333890000000  0.4838210000000  0.4923740000000 1.0
C      1  0.4440250000000  0.4866670000000  0.5391130000000 1.0
C      1  0.4801680000000  0.4873050000000  0.5709320000000 1.0
C      1  0.5295310000000  0.4899260000000  0.5725410000000 1.0
C      1  0.5616720000000  0.4873190000000  0.5352330000000 1.0
C      1  0.5743670000000  0.4863730000000  0.4884140000000 1.0
C      1  0.5144600000000  0.4096520000000  0.5245990000000 1.0
C      1  0.5287820000000  0.4028330000000  0.5032150000000 1.0
C      1  0.5301460000000  0.4078910000000  0.4771550000000 1.0
C      1  0.5173300000000  0.4225030000000  0.4589400000000 1.0
C      1  0.4957210000000  0.4395340000000  0.4566620000000 1.0
C      1  0.4726070000000  0.4316890000000  0.4698740000000 1.0
C      1  0.4608080000000  0.4389150000000  0.4939270000000 1.0
C      1  0.4711990000000  0.4257510000000  0.5160910000000 1.0
C      1  0.4930170000000  0.4246490000000  0.5332110000000 1.0
C      1  0.5177200000000  0.5277850000000  0.5464140000000 1.0
C      1  0.5570390000000  0.5469060000000  0.5298670000000 1.0
C      1  0.5466680000000  0.5214870000000  0.4895820000000 1.0
C      1  0.5409190000000  0.5450290000000  0.4488460000000 1.0
C      1  0.4968900000000  0.5419980000000  0.4365970000000 1.0
C      1  0.4517640000000  0.5438170000000  0.4475970000000 1.0
C      1  0.4315660000000  0.5450830000000  0.4898040000000 1.0
C      1  0.4469030000000  0.5439750000000  0.5341090000000 1.0
C      1  0.4809190000000  0.5467620000000  0.5658070000000 1.0
C      1  0.4604060000000  0.4687480000000  0.4969390000000 1.0
C      1  0.4677620000000  0.4767050000000  0.5252220000000 1.0
C      1  0.4906260000000  0.4752910000000  0.5447350000000 1.0
C      1  0.5151450000000  0.4943780000000  0.5378930000000 1.0
C      1  0.5364380000000  0.4821440000000  0.5202710000000 1.0
C      1  0.5435310000000  0.4903720000000  0.4917550000000 1.0
C      1  0.5291920000000  0.4754690000000  0.4685160000000 1.0
C      1  0.5005880000000  0.4690130000000  0.4586390000000 1.0
C      1  0.4787580000000  0.4805020000000  0.4760270000000 1.0
C      1  0.4984030000000  0.4478120000000  0.5474330000000 1.0
END
