TITL C-3578208-4450-484 -3.1179543170193e-06 125000 -464.086553816304 0 0 76 (C1) n - 1
REM
REM in /home/bkarasulu/work/CARBON/AIRSS/Generating-Clusters/EDIP-Nigel-Params/with-SteepDescent/Higher-Symm/SD-CG/HFTN-CG
REM
REM
REM
REM
REM
REM ./C.cell (12c818d87b63d06a65506943cc24bca4)
REM
REM compiler GCC version 9.2.1 20190827 (Red Hat 9.2.1-1)
REM options -cpp -mtune=generic -march=x86-64 -g -O0 -fpre-include=/usr/include/finclude/math-vector-fortran.h
REM seed 980623740 -631553905 2097607956 -275371954 1600247047 1216309363 -1013905178 -891393080 1521684975 976146717 1094156649 -562353247 1929556610 625834600 2083669075 1036555940 550289395 1656209255 1674874709 1018201042 -233456853 -95354958 -1060615467 -1165006612 262791607 856607934 -629507917 -250461926 -621557071 1640965947 -880841830 -183961449 623708116
REM
CELL 1.54180   50.00000   50.00000   50.00000   90.00000   90.00000   90.00000
LATT -1
SFAC C  
C      1  0.4960010000000  0.4790800000000  0.4232810000000 1.0
C      1  0.4225780000000  0.5001670000000  0.4799000000000 1.0
C      1  0.4804750000000  0.4244630000000  0.5008730000000 1.0
C      1  0.4998000000000  0.5200380000000  0.5708670000000 1.0
C      1  0.4944590000000  0.5192840000000  0.4255980000000 1.0
C      1  0.4990890000000  0.4789940000000  0.5705310000000 1.0
C      1  0.4182140000000  0.5010340000000  0.5191150000000 1.0
C      1  0.5751100000000  0.4954540000000  0.4803680000000 1.0
C      1  0.5817040000000  0.4983290000000  0.5205180000000 1.0
C      1  0.4785920000000  0.5758630000000  0.4978420000000 1.0
C      1  0.5190690000000  0.5733430000000  0.5028250000000 1.0
C      1  0.5205320000000  0.4261100000000  0.4968160000000 1.0
C      1  0.4895220000000  0.5222470000000  0.4750680000000 1.0
C      1  0.4625190000000  0.4985940000000  0.5095440000000 1.0
C      1  0.5236250000000  0.4778160000000  0.5038800000000 1.0
C      1  0.4993900000000  0.4723210000000  0.5210000000000 1.0
C      1  0.4920940000000  0.4778680000000  0.4743580000000 1.0
C      1  0.4999240000000  0.5285530000000  0.5218350000000 1.0
C      1  0.4742420000000  0.5002740000000  0.4667990000000 1.0
C      1  0.5373820000000  0.5012020000000  0.5184140000000 1.0
C      1  0.5164270000000  0.5066240000000  0.4800180000000 1.0
C      1  0.5236980000000  0.5238350000000  0.5070110000000 1.0
C      1  0.4765050000000  0.5261300000000  0.5028380000000 1.0
C      1  0.4777660000000  0.4736350000000  0.5026600000000 1.0
C      1  0.4918510000000  0.5394990000000  0.4489690000000 1.0
C      1  0.4439360000000  0.4961250000000  0.5328180000000 1.0
C      1  0.5400670000000  0.4496080000000  0.4956740000000 1.0
C      1  0.4964260000000  0.4589920000000  0.5480230000000 1.0
C      1  0.4998610000000  0.4621150000000  0.4479020000000 1.0
C      1  0.5030680000000  0.5408610000000  0.5491920000000 1.0
C      1  0.4447440000000  0.5034230000000  0.4589280000000 1.0
C      1  0.5583100000000  0.5034450000000  0.5382770000000 1.0
C      1  0.5528960000000  0.4913460000000  0.4614050000000 1.0
C      1  0.5391610000000  0.5502460000000  0.5071350000000 1.0
C      1  0.4601770000000  0.5518660000000  0.4945040000000 1.0
C      1  0.4613670000000  0.4480280000000  0.5047990000000 1.0
C      1  0.5108590000000  0.4211670000000  0.5237980000000 1.0
C      1  0.5212550000000  0.5069260000000  0.4255510000000 1.0
C      1  0.4195670000000  0.5275790000000  0.5067080000000 1.0
C      1  0.5091760000000  0.5757120000000  0.4755680000000 1.0
C      1  0.4886490000000  0.5790660000000  0.5250100000000 1.0
C      1  0.4901630000000  0.4234660000000  0.4735580000000 1.0
C      1  0.5251800000000  0.4916700000000  0.5729380000000 1.0
C      1  0.4692900000000  0.4906640000000  0.4209530000000 1.0
C      1  0.4737150000000  0.5073080000000  0.5707750000000 1.0
C      1  0.4210050000000  0.4737740000000  0.4919160000000 1.0
C      1  0.5805130000000  0.4712640000000  0.5094930000000 1.0
C      1  0.5773070000000  0.5225030000000  0.4912560000000 1.0
C      1  0.5264420000000  0.4501050000000  0.4471910000000 1.0
C      1  0.4412370000000  0.5302960000000  0.4480320000000 1.0
C      1  0.4500860000000  0.4457070000000  0.5322920000000 1.0
C      1  0.5290640000000  0.5549860000000  0.5535830000000 1.0
C      1  0.4686630000000  0.5572190000000  0.4455510000000 1.0
C      1  0.4711780000000  0.4439670000000  0.5517570000000 1.0
C      1  0.4429350000000  0.4698800000000  0.5458380000000 1.0
C      1  0.5511890000000  0.4647490000000  0.4505070000000 1.0
C      1  0.5587350000000  0.5304070000000  0.5501330000000 1.0
C      1  0.4484920000000  0.5527150000000  0.4658020000000 1.0
C      1  0.5509910000000  0.5536200000000  0.5346000000000 1.0
C      1  0.5566470000000  0.4459770000000  0.4712340000000 1.0
C      1  0.5578980000000  0.5438550000000  0.4843530000000 1.0
C      1  0.4801500000000  0.5601510000000  0.5461330000000 1.0
C      1  0.5482110000000  0.4821760000000  0.5571730000000 1.0
C      1  0.5602420000000  0.4511690000000  0.5175360000000 1.0
C      1  0.4400910000000  0.4528880000000  0.4837640000000 1.0
C      1  0.4389690000000  0.5483970000000  0.5150100000000 1.0
C      1  0.4796010000000  0.4412730000000  0.4524790000000 1.0
C      1  0.5188540000000  0.4395330000000  0.5459070000000 1.0
C      1  0.5161310000000  0.5555710000000  0.4556350000000 1.0
C      1  0.5418610000000  0.5131630000000  0.4457010000000 1.0
C      1  0.4524970000000  0.5166860000000  0.5528350000000 1.0
C      1  0.4466780000000  0.4809030000000  0.4381930000000 1.0
C      1  0.4525260000000  0.4550650000000  0.4560200000000 1.0
C      1  0.4541850000000  0.5442060000000  0.5410520000000 1.0
C      1  0.5398100000000  0.5384610000000  0.4608990000000 1.0
C      1  0.5452250000000  0.4552060000000  0.5432880000000 1.0
END
