TITL C-3578209-2550-203 2.2191491193612e-06 125000 -846.155401562114 0 0 137 (C1) n - 1
REM
REM in /home/bkarasulu/work/CARBON/AIRSS/Generating-Clusters/EDIP-Nigel-Params/with-SteepDescent/Higher-Symm/SD-CG/HFTN-CG
REM
REM
REM
REM
REM
REM ./C.cell (12c818d87b63d06a65506943cc24bca4)
REM
REM compiler GCC version 9.2.1 20190827 (Red Hat 9.2.1-1)
REM options -cpp -mtune=generic -march=x86-64 -g -O0 -fpre-include=/usr/include/finclude/math-vector-fortran.h
REM seed -1238564323 1374858934 -699235766 -1089048336 686771289 -2133246808 459471233 453175514 1077766897 1245914826 -1959606123 1979992198 -1532543305 1063418812 624034315 2139913814 1792603517 151665244 -2094090899 -967948055 -1214535669 1902364255 -811173043 217183022 -843361938 -825989570 -1521702875 -678917366 -859750715 1735992757 330158077 1554547076 1048878004
REM
CELL 1.54180   50.00000   50.00000   50.00000   90.00000   90.00000   90.00000
LATT -1
SFAC C  
C      1  0.4605690000000  0.4591560000000  0.5154590000000 1.0
C      1  0.4712190000000  0.5497270000000  0.5062080000000 1.0
C      1  0.5523760000000  0.5241860000000  0.5057000000000 1.0
C      1  0.5288720000000  0.4490970000000  0.5069500000000 1.0
C      1  0.4600100000000  0.5237710000000  0.4952670000000 1.0
C      1  0.4612000000000  0.4579540000000  0.4835760000000 1.0
C      1  0.5462210000000  0.4679650000000  0.4894340000000 1.0
C      1  0.5259610000000  0.5679920000000  0.4974870000000 1.0
C      1  0.5670290000000  0.5516980000000  0.5239370000000 1.0
C      1  0.5568930000000  0.4338070000000  0.5297410000000 1.0
C      1  0.4354350000000  0.4422720000000  0.5277570000000 1.0
C      1  0.4470080000000  0.5650060000000  0.5218150000000 1.0
C      1  0.5619750000000  0.4461410000000  0.4744120000000 1.0
C      1  0.5509760000000  0.5679510000000  0.4800830000000 1.0
C      1  0.4333170000000  0.5414710000000  0.4751480000000 1.0
C      1  0.4438500000000  0.4336770000000  0.4712770000000 1.0
C      1  0.4852730000000  0.5314400000000  0.5514590000000 1.0
C      1  0.5378830000000  0.5266890000000  0.5513360000000 1.0
C      1  0.5210500000000  0.4630110000000  0.5574670000000 1.0
C      1  0.4599770000000  0.4830290000000  0.5591350000000 1.0
C      1  0.4845420000000  0.4577630000000  0.4390020000000 1.0
C      1  0.5370520000000  0.4839170000000  0.4437030000000 1.0
C      1  0.5235700000000  0.5373910000000  0.4588500000000 1.0
C      1  0.4758240000000  0.5191080000000  0.4419010000000 1.0
C      1  0.5649350000000  0.4712450000000  0.5541320000000 1.0
C      1  0.4715500000000  0.4318960000000  0.5524360000000 1.0
C      1  0.4384150000000  0.5251700000000  0.5445690000000 1.0
C      1  0.5320900000000  0.5707680000000  0.5489320000000 1.0
C      1  0.5658370000000  0.5311860000000  0.4492920000000 1.0
C      1  0.4702460000000  0.5700440000000  0.4525820000000 1.0
C      1  0.4344260000000  0.4702640000000  0.4463760000000 1.0
C      1  0.5261750000000  0.4316380000000  0.4515070000000 1.0
C      1  0.5699930000000  0.4555970000000  0.4463540000000 1.0
C      1  0.4553050000000  0.4252810000000  0.4442980000000 1.0
C      1  0.4316630000000  0.5391710000000  0.4469240000000 1.0
C      1  0.5441770000000  0.5757570000000  0.4520370000000 1.0
C      1  0.5766210000000  0.5466620000000  0.5514570000000 1.0
C      1  0.4590030000000  0.5718420000000  0.5496560000000 1.0
C      1  0.4268400000000  0.4547680000000  0.5544990000000 1.0
C      1  0.5445050000000  0.4260010000000  0.5560750000000 1.0
C      1  0.5673800000000  0.4965390000000  0.5960500000000 1.0
C      1  0.4936170000000  0.4286000000000  0.5950030000000 1.0
C      1  0.4401640000000  0.5040150000000  0.5893250000000 1.0
C      1  0.5049790000000  0.5630810000000  0.5896870000000 1.0
C      1  0.5581500000000  0.5062530000000  0.4074190000000 1.0
C      1  0.4957860000000  0.5690040000000  0.4105780000000 1.0
C      1  0.4258140000000  0.4881090000000  0.4017470000000 1.0
C      1  0.5037000000000  0.4383520000000  0.4076180000000 1.0
C      1  0.5474560000000  0.4521200000000  0.5697640000000 1.0
C      1  0.4546600000000  0.4537300000000  0.5662730000000 1.0
C      1  0.4592800000000  0.5421520000000  0.5581520000000 1.0
C      1  0.5541540000000  0.5585430000000  0.5654460000000 1.0
C      1  0.5501300000000  0.5526560000000  0.4362620000000 1.0
C      1  0.4593790000000  0.5443560000000  0.4396000000000 1.0
C      1  0.4553230000000  0.4526840000000  0.4325660000000 1.0
C      1  0.5414040000000  0.4540330000000  0.4362570000000 1.0
C      1  0.5294030000000  0.4894560000000  0.4724500000000 1.0
C      1  0.4891570000000  0.4614360000000  0.4700480000000 1.0
C      1  0.4727180000000  0.5052500000000  0.4709480000000 1.0
C      1  0.5086920000000  0.5540770000000  0.4789550000000 1.0
C      1  0.5378400000000  0.5100670000000  0.5274960000000 1.0
C      1  0.4939770000000  0.5436560000000  0.5262350000000 1.0
C      1  0.4638380000000  0.4857920000000  0.5290470000000 1.0
C      1  0.5095000000000  0.4586920000000  0.5281310000000 1.0
C      1  0.4475870000000  0.5084630000000  0.5193760000000 1.0
C      1  0.5232050000000  0.5512900000000  0.5248810000000 1.0
C      1  0.5454590000000  0.4814710000000  0.5319170000000 1.0
C      1  0.4839240000000  0.4428010000000  0.5258620000000 1.0
C      1  0.4469000000000  0.4828660000000  0.4724090000000 1.0
C      1  0.5112070000000  0.4416000000000  0.4781910000000 1.0
C      1  0.5405120000000  0.5176450000000  0.4761790000000 1.0
C      1  0.4823180000000  0.5658310000000  0.4818770000000 1.0
C      1  0.4634990000000  0.4963930000000  0.6022390000000 1.0
C      1  0.4950110000000  0.5391640000000  0.5979830000000 1.0
C      1  0.5423090000000  0.5063360000000  0.5945310000000 1.0
C      1  0.5005470000000  0.4530500000000  0.6036660000000 1.0
C      1  0.4507190000000  0.4986170000000  0.3997220000000 1.0
C      1  0.4978340000000  0.4629080000000  0.3959150000000 1.0
C      1  0.5324700000000  0.5031920000000  0.4000400000000 1.0
C      1  0.5057570000000  0.5442240000000  0.4144450000000 1.0
C      1  0.5667530000000  0.4798870000000  0.5077420000000 1.0
C      1  0.4856160000000  0.4199230000000  0.5063990000000 1.0
C      1  0.4120010000000  0.5093410000000  0.5029500000000 1.0
C      1  0.5150530000000  0.5957770000000  0.5013120000000 1.0
C      1  0.5767460000000  0.5081280000000  0.5004070000000 1.0
C      1  0.4866770000000  0.5937240000000  0.4929870000000 1.0
C      1  0.4232500000000  0.4845290000000  0.4919010000000 1.0
C      1  0.5122110000000  0.4089200000000  0.4999080000000 1.0
C      1  0.4821800000000  0.4927800000000  0.5801850000000 1.0
C      1  0.4973530000000  0.5196260000000  0.5763860000000 1.0
C      1  0.5255970000000  0.5129010000000  0.5732420000000 1.0
C      1  0.5020620000000  0.4701760000000  0.5815990000000 1.0
C      1  0.4708600000000  0.4995450000000  0.4188740000000 1.0
C      1  0.4932340000000  0.4800940000000  0.4189300000000 1.0
C      1  0.5178710000000  0.4980070000000  0.4244610000000 1.0
C      1  0.5060820000000  0.5250380000000  0.4357520000000 1.0
C      1  0.5761050000000  0.4840740000000  0.4465470000000 1.0
C      1  0.4810170000000  0.4150520000000  0.4421260000000 1.0
C      1  0.4199980000000  0.5156400000000  0.4378920000000 1.0
C      1  0.5176450000000  0.5851540000000  0.4485110000000 1.0
C      1  0.5803450000000  0.5191750000000  0.5570940000000 1.0
C      1  0.4841300000000  0.5840330000000  0.5538260000000 1.0
C      1  0.4180950000000  0.4815760000000  0.5551270000000 1.0
C      1  0.5172630000000  0.4205070000000  0.5562570000000 1.0
C      1  0.5888910000000  0.4589880000000  0.5114400000000 1.0
C      1  0.4589230000000  0.4056160000000  0.5106840000000 1.0
C      1  0.4065430000000  0.5382940000000  0.5099750000000 1.0
C      1  0.5515070000000  0.6021920000000  0.5101510000000 1.0
C      1  0.5926080000000  0.5392550000000  0.4901520000000 1.0
C      1  0.4513550000000  0.5975260000000  0.4831590000000 1.0
C      1  0.4083090000000  0.4583100000000  0.4882570000000 1.0
C      1  0.5400900000000  0.4102580000000  0.4889630000000 1.0
C      1  0.5836240000000  0.4353980000000  0.4926390000000 1.0
C      1  0.4354230000000  0.4139480000000  0.4925410000000 1.0
C      1  0.4162500000000  0.5598080000000  0.4896250000000 1.0
C      1  0.5702710000000  0.5861280000000  0.4928200000000 1.0
C      1  0.5865530000000  0.5641680000000  0.5064970000000 1.0
C      1  0.4328680000000  0.5833980000000  0.5016880000000 1.0
C      1  0.4157020000000  0.4345110000000  0.5064010000000 1.0
C      1  0.5640880000000  0.4158460000000  0.5066950000000 1.0
C      1  0.5058020000000  0.4220150000000  0.4311240000000 1.0
C      1  0.4189250000000  0.4894920000000  0.4289480000000 1.0
C      1  0.4929490000000  0.5809680000000  0.4356590000000 1.0
C      1  0.5715060000000  0.5079700000000  0.4316650000000 1.0
C      1  0.5084460000000  0.5783400000000  0.5665690000000 1.0
C      1  0.4250520000000  0.5069770000000  0.5653800000000 1.0
C      1  0.4925820000000  0.4187280000000  0.5691230000000 1.0
C      1  0.5774200000000  0.4942900000000  0.5700320000000 1.0
C      1  0.5431650000000  0.5935810000000  0.5353610000000 1.0
C      1  0.5814050000000  0.4508710000000  0.5382210000000 1.0
C      1  0.4496150000000  0.4151740000000  0.5374930000000 1.0
C      1  0.4237560000000  0.5470020000000  0.5317770000000 1.0
C      1  0.5430770000000  0.4089790000000  0.4603670000000 1.0
C      1  0.5890890000000  0.5414450000000  0.4625200000000 1.0
C      1  0.4493400000000  0.5901820000000  0.4559580000000 1.0
C      1  0.4178790000000  0.4487790000000  0.4617430000000 1.0
C      1  0.4985730000000  0.4886720000000  0.4761700000000 1.0
END
