TITL C-3578197-9521-743 -1.04391723124384e-06 125000 -322.800351722803 0 0 54 (C1) n - 1
REM
REM in /home/bkarasulu/work/CARBON/AIRSS/Generating-Clusters/EDIP-Nigel-Params/with-SteepDescent/Higher-Symm/SD-CG/HFTN-CG
REM
REM
REM
REM
REM
REM ./C.cell (12c818d87b63d06a65506943cc24bca4)
REM
REM compiler GCC version 9.2.1 20190827 (Red Hat 9.2.1-1)
REM options -cpp -mtune=generic -march=x86-64 -g -O0 -fpre-include=/usr/include/finclude/math-vector-fortran.h
REM seed -394644494 -308655190 -1930016002 1798479042 831252806 -1101856840 -606705698 -162275677 -1913377722 -2091653901 -64295302 -1943348389 1042701850 -548309183 1547877636 437891231 -1763043886 -448331988 -2007814832 -1240131289 181411107 -1212848346 1320961334 -1431302630 -736679487 -153127352 870042931 1223774896 1549226677 -803384650 729954308 350877527 1090763266
REM
CELL 1.54180   50.00000   50.00000   50.00000   90.00000   90.00000   90.00000
LATT -1
SFAC C  
C      1  0.4945530000000  0.4497370000000  0.5475980000000 1.0
C      1  0.4940060000000  0.5481910000000  0.5450180000000 1.0
C      1  0.4743280000000  0.5348820000000  0.4460970000000 1.0
C      1  0.4743910000000  0.4551620000000  0.4507450000000 1.0
C      1  0.4745150000000  0.4352780000000  0.5019480000000 1.0
C      1  0.4736820000000  0.5557870000000  0.5017730000000 1.0
C      1  0.4563760000000  0.4807260000000  0.5493550000000 1.0
C      1  0.4506240000000  0.5067400000000  0.5399220000000 1.0
C      1  0.5607880000000  0.4662280000000  0.5165280000000 1.0
C      1  0.5637610000000  0.5169560000000  0.5237330000000 1.0
C      1  0.5447380000000  0.5233550000000  0.4765050000000 1.0
C      1  0.5345580000000  0.4759200000000  0.4785470000000 1.0
C      1  0.5243050000000  0.4525730000000  0.5462070000000 1.0
C      1  0.5233090000000  0.5470880000000  0.5464880000000 1.0
C      1  0.4996790000000  0.4494760000000  0.4605910000000 1.0
C      1  0.4993720000000  0.5366540000000  0.4644780000000 1.0
C      1  0.4792210000000  0.5038310000000  0.4997360000000 1.0
C      1  0.4856810000000  0.4760170000000  0.5075910000000 1.0
C      1  0.5085840000000  0.5089130000000  0.5710970000000 1.0
C      1  0.5181570000000  0.4845630000000  0.5819590000000 1.0
C      1  0.5249150000000  0.4317630000000  0.5011900000000 1.0
C      1  0.5230260000000  0.5654330000000  0.5017940000000 1.0
C      1  0.5398910000000  0.5478020000000  0.5213530000000 1.0
C      1  0.5333710000000  0.4545540000000  0.5179730000000 1.0
C      1  0.5003140000000  0.4388510000000  0.4879340000000 1.0
C      1  0.4987690000000  0.5570760000000  0.4869880000000 1.0
C      1  0.4310940000000  0.5283720000000  0.5051870000000 1.0
C      1  0.4345460000000  0.4786770000000  0.5067010000000 1.0
C      1  0.4751480000000  0.5196810000000  0.5269620000000 1.0
C      1  0.4831670000000  0.4761470000000  0.5391310000000 1.0
C      1  0.5274820000000  0.5270270000000  0.5017200000000 1.0
C      1  0.5180820000000  0.4768990000000  0.5047680000000 1.0
C      1  0.4498300000000  0.5334410000000  0.4624140000000 1.0
C      1  0.4535950000000  0.4685650000000  0.4631720000000 1.0
C      1  0.5208030000000  0.4694540000000  0.4532770000000 1.0
C      1  0.5272850000000  0.5286730000000  0.4518380000000 1.0
C      1  0.4765880000000  0.5626260000000  0.5287820000000 1.0
C      1  0.4819640000000  0.4317730000000  0.5293040000000 1.0
C      1  0.4528780000000  0.4610410000000  0.4922930000000 1.0
C      1  0.4497130000000  0.5424550000000  0.4897250000000 1.0
C      1  0.5324990000000  0.5241990000000  0.5621130000000 1.0
C      1  0.5356640000000  0.4755930000000  0.5612780000000 1.0
C      1  0.4979110000000  0.4928580000000  0.4507330000000 1.0
C      1  0.5677480000000  0.4926050000000  0.5066660000000 1.0
C      1  0.5565030000000  0.4958840000000  0.4790050000000 1.0
C      1  0.5220200000000  0.5040500000000  0.4366440000000 1.0
C      1  0.4725420000000  0.5052180000000  0.4369570000000 1.0
C      1  0.4963620000000  0.5091270000000  0.4768630000000 1.0
C      1  0.4983230000000  0.5037440000000  0.5420170000000 1.0
C      1  0.5442990000000  0.5025500000000  0.5431700000000 1.0
C      1  0.5219940000000  0.5022670000000  0.5214410000000 1.0
C      1  0.4492380000000  0.4959500000000  0.4533550000000 1.0
C      1  0.4305440000000  0.5040270000000  0.5192380000000 1.0
C      1  0.4700020000000  0.5014910000000  0.4099900000000 1.0
END
