TITL C-3578194-7807-571 -2.5064428956892e-06 125000 -599.356903867488 0 0 98 (C1) n - 1
REM
REM in /home/bkarasulu/work/CARBON/AIRSS/Generating-Clusters/EDIP-Nigel-Params/with-SteepDescent/Higher-Symm/SD-CG/HFTN-CG
REM
REM
REM
REM
REM
REM ./C.cell (12c818d87b63d06a65506943cc24bca4)
REM
REM compiler GCC version 9.2.1 20190827 (Red Hat 9.2.1-1)
REM options -cpp -mtune=generic -march=x86-64 -g -O0 -fpre-include=/usr/include/finclude/math-vector-fortran.h
REM seed -1637896150 2064345413 382122123 -173016710 -614261614 1387235233 645512544 -870156585 159209239 -364913602 -328534224 -109358355 -120689585 1244487518 -827726241 -428259492 1899802462 -1163558248 -1986295368 -1461237236 -632035287 1102956341 1670786677 1640803066 1911269203 1498352312 2107768056 -1013023307 -1243263785 -183064726 480155398 400186240 1520817882
REM
CELL 1.54180   50.00000   50.00000   50.00000   90.00000   90.00000   90.00000
LATT -1
SFAC C  
C      1  0.5346490000000  0.5476720000000  0.5177390000000 1.0
C      1  0.5547150000000  0.4823560000000  0.5176340000000 1.0
C      1  0.5022750000000  0.4427730000000  0.5154930000000 1.0
C      1  0.4379380000000  0.4809070000000  0.5173600000000 1.0
C      1  0.4699140000000  0.5468220000000  0.5158220000000 1.0
C      1  0.5342630000000  0.5479500000000  0.4813280000000 1.0
C      1  0.5552050000000  0.4829120000000  0.4816710000000 1.0
C      1  0.5046510000000  0.4436800000000  0.4831050000000 1.0
C      1  0.4381940000000  0.4799630000000  0.4824600000000 1.0
C      1  0.4697800000000  0.5467040000000  0.4833820000000 1.0
C      1  0.4464670000000  0.5280330000000  0.4402330000000 1.0
C      1  0.5118740000000  0.5608620000000  0.4363590000000 1.0
C      1  0.5612460000000  0.5086110000000  0.4379120000000 1.0
C      1  0.5274350000000  0.4449570000000  0.4372620000000 1.0
C      1  0.4559650000000  0.4580470000000  0.4406550000000 1.0
C      1  0.4467280000000  0.5290360000000  0.5592480000000 1.0
C      1  0.5125970000000  0.5608800000000  0.5626670000000 1.0
C      1  0.5610210000000  0.5075130000000  0.5612030000000 1.0
C      1  0.5259170000000  0.4442990000000  0.5615960000000 1.0
C      1  0.4558350000000  0.4592690000000  0.5591250000000 1.0
C      1  0.4662000000000  0.5412780000000  0.4234830000000 1.0
C      1  0.5287880000000  0.5417840000000  0.4210300000000 1.0
C      1  0.5524320000000  0.4864440000000  0.4206030000000 1.0
C      1  0.5007010000000  0.4492280000000  0.4250590000000 1.0
C      1  0.4522160000000  0.4833670000000  0.4261220000000 1.0
C      1  0.4667240000000  0.5421530000000  0.5757630000000 1.0
C      1  0.5294650000000  0.5414640000000  0.5776810000000 1.0
C      1  0.5518180000000  0.4853870000000  0.5782150000000 1.0
C      1  0.4996550000000  0.4491940000000  0.5744740000000 1.0
C      1  0.4518740000000  0.4844960000000  0.5735710000000 1.0
C      1  0.4908410000000  0.5402060000000  0.5572300000000 1.0
C      1  0.5330970000000  0.5193060000000  0.5572390000000 1.0
C      1  0.5317250000000  0.4740360000000  0.5583280000000 1.0
C      1  0.4859920000000  0.4659270000000  0.5530640000000 1.0
C      1  0.4635250000000  0.5042040000000  0.5532510000000 1.0
C      1  0.4904040000000  0.5398670000000  0.4419770000000 1.0
C      1  0.5329600000000  0.5198770000000  0.4415960000000 1.0
C      1  0.5325720000000  0.4747030000000  0.4405770000000 1.0
C      1  0.4866940000000  0.4656170000000  0.4465590000000 1.0
C      1  0.4635530000000  0.5033930000000  0.4461740000000 1.0
C      1  0.4137050000000  0.5001120000000  0.4853890000000 1.0
C      1  0.4790070000000  0.5771570000000  0.4844760000000 1.0
C      1  0.5652580000000  0.5455680000000  0.4855290000000 1.0
C      1  0.5652520000000  0.4534290000000  0.4854710000000 1.0
C      1  0.4719270000000  0.4245880000000  0.4827700000000 1.0
C      1  0.4129720000000  0.5009060000000  0.5159560000000 1.0
C      1  0.4791450000000  0.5771150000000  0.5145240000000 1.0
C      1  0.5659120000000  0.5454260000000  0.5151340000000 1.0
C      1  0.5644210000000  0.4528370000000  0.5150370000000 1.0
C      1  0.4747230000000  0.4283240000000  0.5116130000000 1.0
C      1  0.4733500000000  0.4903230000000  0.5946270000000 1.0
C      1  0.4829410000000  0.5206920000000  0.5931390000000 1.0
C      1  0.5139030000000  0.5219810000000  0.5958230000000 1.0
C      1  0.5240590000000  0.4923240000000  0.5937630000000 1.0
C      1  0.4991880000000  0.4726590000000  0.5945870000000 1.0
C      1  0.4734490000000  0.4893950000000  0.4048910000000 1.0
C      1  0.4825050000000  0.5199660000000  0.4061350000000 1.0
C      1  0.5133890000000  0.5219390000000  0.4031630000000 1.0
C      1  0.5241500000000  0.4925770000000  0.4052830000000 1.0
C      1  0.4996000000000  0.4723750000000  0.4048800000000 1.0
C      1  0.5855250000000  0.5231090000000  0.5220050000000 1.0
C      1  0.5503590000000  0.4268810000000  0.5217470000000 1.0
C      1  0.4459430000000  0.4309410000000  0.5211280000000 1.0
C      1  0.4145200000000  0.5309610000000  0.5221300000000 1.0
C      1  0.5062810000000  0.5889530000000  0.5217080000000 1.0
C      1  0.5852040000000  0.5238580000000  0.4776520000000 1.0
C      1  0.5520080000000  0.4274030000000  0.4772830000000 1.0
C      1  0.4432310000000  0.4283730000000  0.4769670000000 1.0
C      1  0.4148850000000  0.5298690000000  0.4779010000000 1.0
C      1  0.5060760000000  0.5891240000000  0.4771600000000 1.0
C      1  0.4905160000000  0.5285970000000  0.4707190000000 1.0
C      1  0.5208550000000  0.5225090000000  0.4711490000000 1.0
C      1  0.5273090000000  0.4859010000000  0.4694070000000 1.0
C      1  0.4999670000000  0.4721640000000  0.4754320000000 1.0
C      1  0.4624210000000  0.4948300000000  0.4757550000000 1.0
C      1  0.4908540000000  0.5288470000000  0.5285190000000 1.0
C      1  0.5209780000000  0.5221900000000  0.5277700000000 1.0
C      1  0.5265390000000  0.4853120000000  0.5295270000000 1.0
C      1  0.4986930000000  0.4714520000000  0.5238660000000 1.0
C      1  0.4621580000000  0.4957150000000  0.5236120000000 1.0
C      1  0.5236890000000  0.4300190000000  0.5350920000000 1.0
C      1  0.4380080000000  0.4555530000000  0.5357280000000 1.0
C      1  0.4390040000000  0.5420500000000  0.5345990000000 1.0
C      1  0.5248420000000  0.5707450000000  0.5367220000000 1.0
C      1  0.5736170000000  0.4993690000000  0.5355980000000 1.0
C      1  0.5256540000000  0.4310490000000  0.4638390000000 1.0
C      1  0.4374400000000  0.4544920000000  0.4637290000000 1.0
C      1  0.4388360000000  0.5412190000000  0.4648240000000 1.0
C      1  0.5245030000000  0.5708870000000  0.4620870000000 1.0
C      1  0.5738390000000  0.5002560000000  0.4635780000000 1.0
C      1  0.5504000000000  0.4094200000000  0.4993020000000 1.0
C      1  0.6017660000000  0.5165150000000  0.4995820000000 1.0
C      1  0.4276200000000  0.4244860000000  0.5004020000000 1.0
C      1  0.4053360000000  0.5456490000000  0.4995450000000 1.0
C      1  0.5183190000000  0.6017690000000  0.4994300000000 1.0
C      1  0.4989450000000  0.5003510000000  0.5605870000000 1.0
C      1  0.4990330000000  0.5002950000000  0.4386530000000 1.0
C      1  0.4815180000000  0.4965420000000  0.4997060000000 1.0
END
