TITL C-3578194-7807-247 0.00861359108985751 125000 -30.0794173412179 0 0 6 (Cs) n - 1
REM
REM in /home/bkarasulu/work/CARBON/AIRSS/Generating-Clusters/EDIP-Nigel-Params/with-SteepDescent/Higher-Symm/SD-CG/HFTN-CG
REM
REM
REM
REM
REM
REM ./C.cell (12c818d87b63d06a65506943cc24bca4)
REM
REM compiler GCC version 9.2.1 20190827 (Red Hat 9.2.1-1)
REM options -cpp -mtune=generic -march=x86-64 -g -O0 -fpre-include=/usr/include/finclude/math-vector-fortran.h
REM seed -1263581683 2012771854 2107235114 1352392483 668430900 1502630691 1402078575 -2065920355 960364660 558165232 1852156555 -2031291628 -1421443006 -1290935925 317974470 1568917587 -2078288861 -666925916 1897646408 1106931436 -324639657 -823002992 -161474116 378003804 -1643260861 -1852895232 2140473649 1009493188 -1545278516 1010073296 -32977884 -1082220774 374025832
REM
CELL 1.54180   50.00000   50.00000   50.00000   90.00000   90.00000   90.00000
LATT -1
SFAC C  
C      1  0.5090830000000  0.4943880000000  0.5234240000000 1.0
C      1  0.4824220000000  0.4943880000000  0.5124090000000 1.0
C      1  0.5123380000000  0.4943880000000  0.4798330000000 1.0
C      1  0.5290460000000  0.4943880000000  0.5033510000000 1.0
C      1  0.4908360000000  0.5138520000000  0.4902210000000 1.0
C      1  0.4908360000000  0.4749240000000  0.4902210000000 1.0
END
