TITL C-3577088-510-5 5.98868406078e-07 125000 -548.282333067712 0 0 89 (C1) n - 1
REM
REM in /home/bkarasulu/work/CARBON/AIRSS/Generating-Clusters/EDIP-Nigel-Params/with-SteepDescent/Higher-Symm/SD-CG/HFTN-CG
REM
REM
REM
REM
REM
REM ./C.cell (12c818d87b63d06a65506943cc24bca4)
REM
REM compiler GCC version 9.2.1 20190827 (Red Hat 9.2.1-1)
REM options -cpp -mtune=generic -march=x86-64 -g -O0 -fpre-include=/usr/include/finclude/math-vector-fortran.h
REM seed 1766999072 513362403 -1860834951 1689708042 553754556 351923422 1978183617 -1112694896 -2054714536 509727546 508527650 242608654 -1021902067 724492562 790687032 1197334400 -318769538 -1291380168 465509614 -985947613 832541273 2112772167 640434891 -1914721194 2012187333 1529139942 -27039031 380371013 1067329686 509823225 648397257 1054047429 867478376
REM
CELL 1.54180   50.00000   50.00000   50.00000   90.00000   90.00000   90.00000
LATT -1
SFAC C  
C      1  0.4559420000000  0.5010320000000  0.5589070000000 1.0
C      1  0.4279050000000  0.4919530000000  0.4733710000000 1.0
C      1  0.5087940000000  0.4795890000000  0.4177220000000 1.0
C      1  0.5667290000000  0.4890320000000  0.4848600000000 1.0
C      1  0.5464760000000  0.4832930000000  0.5719370000000 1.0
C      1  0.5245830000000  0.5395730000000  0.4293010000000 1.0
C      1  0.5732870000000  0.5445560000000  0.5122600000000 1.0
C      1  0.5080820000000  0.5441890000000  0.5808350000000 1.0
C      1  0.4276040000000  0.5511790000000  0.5273630000000 1.0
C      1  0.4378520000000  0.5400120000000  0.4524520000000 1.0
C      1  0.4985310000000  0.4900030000000  0.4635570000000 1.0
C      1  0.5180100000000  0.4877350000000  0.4866590000000 1.0
C      1  0.5247410000000  0.4881400000000  0.5332490000000 1.0
C      1  0.4785070000000  0.4871160000000  0.5172020000000 1.0
C      1  0.4720340000000  0.4932620000000  0.4736760000000 1.0
C      1  0.5391870000000  0.5628050000000  0.5492900000000 1.0
C      1  0.4677200000000  0.5552100000000  0.5529850000000 1.0
C      1  0.4661120000000  0.5594370000000  0.4914790000000 1.0
C      1  0.4835170000000  0.5628760000000  0.4348760000000 1.0
C      1  0.5437340000000  0.5604210000000  0.4768950000000 1.0
C      1  0.5183910000000  0.4458110000000  0.4540350000000 1.0
C      1  0.5452130000000  0.4490720000000  0.5069770000000 1.0
C      1  0.5145520000000  0.4434870000000  0.5464120000000 1.0
C      1  0.4616260000000  0.4449880000000  0.5342410000000 1.0
C      1  0.4624650000000  0.4500480000000  0.4773170000000 1.0
C      1  0.4688380000000  0.5771560000000  0.5145050000000 1.0
C      1  0.4654000000000  0.5804840000000  0.4473170000000 1.0
C      1  0.5162720000000  0.5679580000000  0.4729230000000 1.0
C      1  0.5333220000000  0.5720200000000  0.5212490000000 1.0
C      1  0.4918840000000  0.5707650000000  0.5450830000000 1.0
C      1  0.5378820000000  0.5317710000000  0.4707240000000 1.0
C      1  0.5467670000000  0.5333500000000  0.5498360000000 1.0
C      1  0.4733490000000  0.5251450000000  0.5496850000000 1.0
C      1  0.4594470000000  0.5314380000000  0.4994210000000 1.0
C      1  0.4788580000000  0.5332360000000  0.4370170000000 1.0
C      1  0.4352500000000  0.4791180000000  0.4479520000000 1.0
C      1  0.5377420000000  0.4755470000000  0.4218940000000 1.0
C      1  0.5827430000000  0.4807360000000  0.5087240000000 1.0
C      1  0.5202020000000  0.4770140000000  0.5816090000000 1.0
C      1  0.4391710000000  0.4882490000000  0.5375820000000 1.0
C      1  0.4780100000000  0.4678290000000  0.5446200000000 1.0
C      1  0.4570790000000  0.4754650000000  0.4926530000000 1.0
C      1  0.4996290000000  0.4665520000000  0.4430940000000 1.0
C      1  0.5426560000000  0.4687490000000  0.4830600000000 1.0
C      1  0.5368730000000  0.4600010000000  0.5362700000000 1.0
C      1  0.4725890000000  0.4844100000000  0.5794750000000 1.0
C      1  0.4151680000000  0.4834940000000  0.4979560000000 1.0
C      1  0.4702440000000  0.4805250000000  0.4128680000000 1.0
C      1  0.5734460000000  0.4837070000000  0.4561470000000 1.0
C      1  0.5700920000000  0.4799370000000  0.5566320000000 1.0
C      1  0.5137140000000  0.5657840000000  0.5640610000000 1.0
C      1  0.4486520000000  0.5681190000000  0.5353050000000 1.0
C      1  0.4513680000000  0.5640830000000  0.4654010000000 1.0
C      1  0.5114520000000  0.5622500000000  0.4438340000000 1.0
C      1  0.5555890000000  0.5647910000000  0.5032790000000 1.0
C      1  0.4989800000000  0.4975000000000  0.5823790000000 1.0
C      1  0.4213560000000  0.5033720000000  0.5196670000000 1.0
C      1  0.4482000000000  0.4953450000000  0.4260110000000 1.0
C      1  0.5523230000000  0.4958100000000  0.4385390000000 1.0
C      1  0.5737460000000  0.4966450000000  0.5324980000000 1.0
C      1  0.5700040000000  0.5262120000000  0.5332960000000 1.0
C      1  0.5008750000000  0.5213950000000  0.5645150000000 1.0
C      1  0.4307140000000  0.5299910000000  0.5095700000000 1.0
C      1  0.4501460000000  0.5253900000000  0.4297270000000 1.0
C      1  0.5455340000000  0.5245520000000  0.4424140000000 1.0
C      1  0.5242700000000  0.5158530000000  0.4923990000000 1.0
C      1  0.5214430000000  0.5181500000000  0.5414890000000 1.0
C      1  0.4794060000000  0.5186380000000  0.5196660000000 1.0
C      1  0.4643650000000  0.5204910000000  0.4709910000000 1.0
C      1  0.5034800000000  0.5196630000000  0.4540380000000 1.0
C      1  0.4371070000000  0.4603490000000  0.5288650000000 1.0
C      1  0.4513210000000  0.4534530000000  0.4500740000000 1.0
C      1  0.5428710000000  0.4506850000000  0.4385540000000 1.0
C      1  0.5752960000000  0.4521490000000  0.5167790000000 1.0
C      1  0.5064200000000  0.4512210000000  0.5740000000000 1.0
C      1  0.4777380000000  0.4544170000000  0.5794680000000 1.0
C      1  0.4201240000000  0.4565290000000  0.5066630000000 1.0
C      1  0.4732330000000  0.4563190000000  0.4300490000000 1.0
C      1  0.5657950000000  0.4556760000000  0.4551740000000 1.0
C      1  0.5730180000000  0.4530820000000  0.5463000000000 1.0
C      1  0.4735240000000  0.4245800000000  0.4880230000000 1.0
C      1  0.5115240000000  0.4245500000000  0.4756030000000 1.0
C      1  0.5256570000000  0.4254140000000  0.5024670000000 1.0
C      1  0.5066560000000  0.4235160000000  0.5257640000000 1.0
C      1  0.4777290000000  0.4248970000000  0.5178230000000 1.0
C      1  0.5084810000000  0.5295070000000  0.5146320000000 1.0
C      1  0.4890920000000  0.4068360000000  0.4717130000000 1.0
C      1  0.5062400000000  0.5614190000000  0.5099540000000 1.0
C      1  0.5060230000000  0.4797610000000  0.5117230000000 1.0
END
