TITL C-3578199-7832-424 -1.89021945959246e-06 125000 -676.933395464331 0 0 114 (C3) n - 1
REM
REM in /home/bkarasulu/work/CARBON/AIRSS/Generating-Clusters/EDIP-Nigel-Params/with-SteepDescent/Higher-Symm/SD-CG/HFTN-CG
REM
REM
REM
REM
REM
REM ./C.cell (12c818d87b63d06a65506943cc24bca4)
REM
REM compiler GCC version 9.2.1 20190827 (Red Hat 9.2.1-1)
REM options -cpp -mtune=generic -march=x86-64 -g -O0 -fpre-include=/usr/include/finclude/math-vector-fortran.h
REM seed -398061534 1447580877 -1358561994 522790869 1047295216 1486175830 -1875963466 974641155 -969154620 1949228279 124665330 -156866223 -831074296 1504215716 428899827 160912615 306186488 487639884 -987035398 743055217 -701327398 -336355975 -872748817 1027575715 1321657936 -1442031045 -1525602408 -526408686 -461718408 -1639968595 698315134 1127750666 -1157868945
REM
CELL 1.54180   50.00000   50.00000   50.00000   90.00000   90.00000   90.00000
LATT -1
SFAC C  
C      1  0.5766710000000  0.4463450000000  0.5266550000000 1.0
C      1  0.4385800000000  0.4463410000000  0.5530680000000 1.0
C      1  0.4847520000000  0.4463460000000  0.4202720000000 1.0
C      1  0.4243550000000  0.4759250000000  0.4766390000000 1.0
C      1  0.5580540000000  0.4759290000000  0.4461690000000 1.0
C      1  0.5175920000000  0.4759240000000  0.5771910000000 1.0
C      1  0.4820100000000  0.5015670000000  0.5497260000000 1.0
C      1  0.4659310000000  0.5015690000000  0.4595580000000 1.0
C      1  0.5520590000000  0.5015700000000  0.4907160000000 1.0
C      1  0.5178520000000  0.5770940000000  0.4479120000000 1.0
C      1  0.5361830000000  0.5770920000000  0.5415090000000 1.0
C      1  0.4459610000000  0.5770910000000  0.5105850000000 1.0
C      1  0.5256660000000  0.5186370000000  0.5700260000000 1.0
C      1  0.4265230000000  0.5186370000000  0.4872150000000 1.0
C      1  0.5478110000000  0.5186410000000  0.4427600000000 1.0
C      1  0.4864780000000  0.5735780000000  0.4783480000000 1.0
C      1  0.5255120000000  0.5735780000000  0.4991200000000 1.0
C      1  0.4880060000000  0.5735770000000  0.5225380000000 1.0
C      1  0.5458570000000  0.5387390000000  0.5600980000000 1.0
C      1  0.4250250000000  0.5387380000000  0.5096670000000 1.0
C      1  0.5291160000000  0.5387420000000  0.4302380000000 1.0
C      1  0.4286830000000  0.5357900000000  0.4621210000000 1.0
C      1  0.5684630000000  0.5357930000000  0.4571800000000 1.0
C      1  0.5028520000000  0.5357880000000  0.5807030000000 1.0
C      1  0.5053890000000  0.4605250000000  0.5304570000000 1.0
C      1  0.4709290000000  0.4605260000000  0.4894370000000 1.0
C      1  0.5236840000000  0.4605270000000  0.4801040000000 1.0
C      1  0.5063740000000  0.5274120000000  0.4119050000000 1.0
C      1  0.5731050000000  0.5274090000000  0.5495690000000 1.0
C      1  0.4205190000000  0.5274070000000  0.5385280000000 1.0
C      1  0.4274690000000  0.4731730000000  0.5584690000000 1.0
C      1  0.4856300000000  0.4731780000000  0.4079500000000 1.0
C      1  0.5869030000000  0.4731760000000  0.5335790000000 1.0
C      1  0.4422500000000  0.4666290000000  0.4303110000000 1.0
C      1  0.5892270000000  0.4666300000000  0.4848290000000 1.0
C      1  0.4685250000000  0.4666250000000  0.5848570000000 1.0
C      1  0.5360990000000  0.4696830000000  0.5294240000000 1.0
C      1  0.4564680000000  0.4696820000000  0.5165490000000 1.0
C      1  0.5074340000000  0.4696850000000  0.4540240000000 1.0
C      1  0.5536210000000  0.4383120000000  0.5441770000000 1.0
C      1  0.4349310000000  0.4383100000000  0.5243450000000 1.0
C      1  0.5114510000000  0.4383140000000  0.4314730000000 1.0
C      1  0.5991820000000  0.4842390000000  0.5079450000000 1.0
C      1  0.4435290000000  0.4842340000000  0.5819210000000 1.0
C      1  0.4572900000000  0.4842390000000  0.4101330000000 1.0
C      1  0.4447900000000  0.5867680000000  0.4830350000000 1.0
C      1  0.5422970000000  0.5867710000000  0.4606740000000 1.0
C      1  0.5129090000000  0.5867680000000  0.5562980000000 1.0
C      1  0.5202470000000  0.4473900000000  0.5741020000000 1.0
C      1  0.4257030000000  0.4473910000000  0.4804800000000 1.0
C      1  0.5540530000000  0.4473940000000  0.4454140000000 1.0
C      1  0.5346350000000  0.5007780000000  0.4656930000000 1.0
C      1  0.5123930000000  0.5007750000000  0.5471480000000 1.0
C      1  0.4529720000000  0.5007760000000  0.4871590000000 1.0
C      1  0.5812630000000  0.4845040000000  0.4624510000000 1.0
C      1  0.4918870000000  0.4844990000000  0.5891490000000 1.0
C      1  0.4268510000000  0.4845020000000  0.4483980000000 1.0
C      1  0.5669530000000  0.4501700000000  0.4987850000000 1.0
C      1  0.4675760000000  0.4501670000000  0.5585870000000 1.0
C      1  0.4654740000000  0.4501700000000  0.4426230000000 1.0
C      1  0.4819660000000  0.5020170000000  0.5012790000000 1.0
C      1  0.5079100000000  0.5020180000000  0.4837430000000 1.0
C      1  0.5101240000000  0.5020180000000  0.5149790000000 1.0
C      1  0.4673030000000  0.4233570000000  0.4614680000000 1.0
C      1  0.5497180000000  0.4233570000000  0.4909450000000 1.0
C      1  0.4829830000000  0.4233540000000  0.5475800000000 1.0
C      1  0.4551520000000  0.5140010000000  0.4188410000000 1.0
C      1  0.5927100000000  0.5140020000000  0.5017410000000 1.0
C      1  0.4521370000000  0.5139970000000  0.5794190000000 1.0
C      1  0.5244570000000  0.5027750000000  0.4155620000000 1.0
C      1  0.5608960000000  0.5027710000000  0.5634000000000 1.0
C      1  0.4146460000000  0.5027700000000  0.5210380000000 1.0
C      1  0.4631230000000  0.5855710000000  0.5304110000000 1.0
C      1  0.4921010000000  0.5855740000000  0.4528640000000 1.0
C      1  0.5447710000000  0.5855730000000  0.5167330000000 1.0
C      1  0.4366560000000  0.5652470000000  0.4628960000000 1.0
C      1  0.5638050000000  0.5652490000000  0.4636990000000 1.0
C      1  0.4995350000000  0.5652450000000  0.5734110000000 1.0
C      1  0.5301300000000  0.4203260000000  0.5340630000000 1.0
C      1  0.4554360000000  0.4203250000000  0.5090570000000 1.0
C      1  0.5144390000000  0.4203280000000  0.4568730000000 1.0
C      1  0.4779950000000  0.4714170000000  0.5382920000000 1.0
C      1  0.4778410000000  0.4714190000000  0.4617950000000 1.0
C      1  0.5441660000000  0.4714190000000  0.4999100000000 1.0
C      1  0.5840410000000  0.5133520000000  0.4721850000000 1.0
C      1  0.4820680000000  0.5133470000000  0.5866900000000 1.0
C      1  0.4338900000000  0.5133500000000  0.4411260000000 1.0
C      1  0.5093290000000  0.4367810000000  0.5480380000000 1.0
C      1  0.4537340000000  0.4367820000000  0.4840560000000 1.0
C      1  0.5369410000000  0.4367840000000  0.4679010000000 1.0
C      1  0.5040380000000  0.6002390000000  0.5223340000000 1.0
C      1  0.4786390000000  0.6002390000000  0.4923360000000 1.0
C      1  0.5173170000000  0.6002400000000  0.4853390000000 1.0
C      1  0.5725910000000  0.5293330000000  0.5188520000000 1.0
C      1  0.4473780000000  0.5293300000000  0.5534420000000 1.0
C      1  0.4800290000000  0.5293340000000  0.4277090000000 1.0
C      1  0.5377550000000  0.4494400000000  0.4225760000000 1.0
C      1  0.5481740000000  0.4494360000000  0.5714060000000 1.0
C      1  0.4140740000000  0.4494350000000  0.5060140000000 1.0
C      1  0.5296410000000  0.5478820000000  0.5356080000000 1.0
C      1  0.4543420000000  0.5478810000000  0.5078680000000 1.0
C      1  0.5160150000000  0.5478840000000  0.4565270000000 1.0
C      1  0.5221710000000  0.4168870000000  0.5052870000000 1.0
C      1  0.4843360000000  0.4168860000000  0.5165530000000 1.0
C      1  0.4934970000000  0.4168870000000  0.4781540000000 1.0
C      1  0.5608350000000  0.4856660000000  0.5402400000000 1.0
C      1  0.4347340000000  0.4856630000000  0.5325640000000 1.0
C      1  0.5044320000000  0.4856680000000  0.4271950000000 1.0
C      1  0.5437370000000  0.5290250000000  0.5067230000000 1.0
C      1  0.4723100000000  0.5290230000000  0.5345170000000 1.0
C      1  0.4839520000000  0.5290250000000  0.4587630000000 1.0
C      1  0.4968720000000  0.5494330000000  0.5390790000000 1.0
C      1  0.4677210000000  0.5494350000000  0.4777540000000 1.0
C      1  0.5354050000000  0.5494360000000  0.4831710000000 1.0
END
