TITL C-3577081-279-189 -6.60328187638278e-08 125000 -844.192119403453 0 0 136 (C1) n - 1
REM
REM in /home/bkarasulu/work/CARBON/AIRSS/Generating-Clusters/EDIP-Nigel-Params/with-SteepDescent/Higher-Symm/SD-CG/HFTN-CG
REM
REM
REM
REM
REM
REM ./C.cell (12c818d87b63d06a65506943cc24bca4)
REM
REM compiler GCC version 9.2.1 20190827 (Red Hat 9.2.1-1)
REM options -cpp -mtune=generic -march=x86-64 -g -O0 -fpre-include=/usr/include/finclude/math-vector-fortran.h
REM seed -1576476033 -785153506 -1770156425 386340229 86933662 2004315384 1850617103 -1830009784 1068667917 -506792509 661389708 -126936551 1739018827 -41311475 -1710521056 -1568688144 2046382376 827423177 -1108061319 -255035310 146798516 -950058329 981326477 199145531 118015310 -644313289 -948865023 1733170044 -818540028 -2019915479 1410479314 306223417 1840915749
REM
CELL 1.54180   50.00000   50.00000   50.00000   90.00000   90.00000   90.00000
LATT -1
SFAC C  
C      1  0.4850170000000  0.4451630000000  0.4268070000000 1.0
C      1  0.4848300000000  0.4611770000000  0.5873610000000 1.0
C      1  0.4853560000000  0.5970380000000  0.4893390000000 1.0
C      1  0.4510510000000  0.5536490000000  0.5692870000000 1.0
C      1  0.4523440000000  0.5340120000000  0.4188260000000 1.0
C      1  0.4515100000000  0.4135520000000  0.5110930000000 1.0
C      1  0.4400450000000  0.4792790000000  0.4960060000000 1.0
C      1  0.4404050000000  0.5080630000000  0.5218540000000 1.0
C      1  0.4386960000000  0.5162770000000  0.4843070000000 1.0
C      1  0.3999670000000  0.5358610000000  0.4764380000000 1.0
C      1  0.3996010000000  0.4667650000000  0.4842260000000 1.0
C      1  0.3983810000000  0.5020500000000  0.5452240000000 1.0
C      1  0.4532370000000  0.4792390000000  0.4182730000000 1.0
C      1  0.4532970000000  0.4402560000000  0.5586730000000 1.0
C      1  0.4528840000000  0.5829380000000  0.5218580000000 1.0
C      1  0.3845320000000  0.5140700000000  0.4853370000000 1.0
C      1  0.3977680000000  0.4921610000000  0.4972880000000 1.0
C      1  0.3838080000000  0.4990320000000  0.5210910000000 1.0
C      1  0.5739750000000  0.4314840000000  0.4749330000000 1.0
C      1  0.5728930000000  0.5111700000000  0.5704930000000 1.0
C      1  0.5742990000000  0.5561670000000  0.4534450000000 1.0
C      1  0.5144730000000  0.4724880000000  0.4585840000000 1.0
C      1  0.5164320000000  0.4784240000000  0.5446750000000 1.0
C      1  0.5158600000000  0.5501990000000  0.4971690000000 1.0
C      1  0.4882570000000  0.4872710000000  0.5521480000000 1.0
C      1  0.4872290000000  0.5506640000000  0.4867770000000 1.0
C      1  0.4856070000000  0.4632780000000  0.4614590000000 1.0
C      1  0.5000650000000  0.5880690000000  0.5137070000000 1.0
C      1  0.5010600000000  0.4692090000000  0.4170040000000 1.0
C      1  0.5000850000000  0.4447810000000  0.5675400000000 1.0
C      1  0.5835310000000  0.5419440000000  0.4786980000000 1.0
C      1  0.5829350000000  0.4604900000000  0.4748370000000 1.0
C      1  0.5830770000000  0.4960170000000  0.5453850000000 1.0
C      1  0.4554660000000  0.4595180000000  0.5822820000000 1.0
C      1  0.4551650000000  0.5936590000000  0.4932140000000 1.0
C      1  0.4554870000000  0.4493650000000  0.4245130000000 1.0
C      1  0.4888700000000  0.5207900000000  0.4194770000000 1.0
C      1  0.4881470000000  0.4211380000000  0.5217670000000 1.0
C      1  0.4867020000000  0.5585060000000  0.5550350000000 1.0
C      1  0.5621760000000  0.5578780000000  0.5478340000000 1.0
C      1  0.5638830000000  0.5125680000000  0.4249420000000 1.0
C      1  0.5632630000000  0.4276120000000  0.5264330000000 1.0
C      1  0.5794170000000  0.5634790000000  0.5007940000000 1.0
C      1  0.5799200000000  0.4693120000000  0.4452180000000 1.0
C      1  0.5796280000000  0.4659490000000  0.5528430000000 1.0
C      1  0.5736070000000  0.4547250000000  0.5263580000000 1.0
C      1  0.5731910000000  0.5459380000000  0.5237150000000 1.0
C      1  0.5745150000000  0.4982360000000  0.4480430000000 1.0
C      1  0.5612790000000  0.4173610000000  0.4986440000000 1.0
C      1  0.5573270000000  0.5364980000000  0.5677610000000 1.0
C      1  0.5611910000000  0.5418530000000  0.4303010000000 1.0
C      1  0.5448530000000  0.4963140000000  0.6102170000000 1.0
C      1  0.5431980000000  0.5942740000000  0.4429210000000 1.0
C      1  0.5446990000000  0.4027170000000  0.4468460000000 1.0
C      1  0.5574680000000  0.4999050000000  0.5294950000000 1.0
C      1  0.5575690000000  0.5265510000000  0.4831350000000 1.0
C      1  0.5567110000000  0.4722040000000  0.4842460000000 1.0
C      1  0.5372260000000  0.5027210000000  0.4176490000000 1.0
C      1  0.5365980000000  0.4265390000000  0.5385930000000 1.0
C      1  0.5369550000000  0.5723260000000  0.5429190000000 1.0
C      1  0.4152400000000  0.5338690000000  0.4532360000000 1.0
C      1  0.4143670000000  0.4456480000000  0.4952470000000 1.0
C      1  0.4138120000000  0.5246610000000  0.5507890000000 1.0
C      1  0.4907820000000  0.4231290000000  0.4463050000000 1.0
C      1  0.4884300000000  0.4910600000000  0.5906200000000 1.0
C      1  0.4888590000000  0.5756260000000  0.4688650000000 1.0
C      1  0.5349560000000  0.4044340000000  0.4956820000000 1.0
C      1  0.5314510000000  0.5408990000000  0.5812870000000 1.0
C      1  0.5347190000000  0.5507440000000  0.4210030000000 1.0
C      1  0.4649750000000  0.5076110000000  0.4726830000000 1.0
C      1  0.4665260000000  0.4715190000000  0.5082720000000 1.0
C      1  0.4666370000000  0.5224260000000  0.5223410000000 1.0
C      1  0.4843800000000  0.5284190000000  0.4674690000000 1.0
C      1  0.4830360000000  0.4532970000000  0.4919400000000 1.0
C      1  0.4861120000000  0.5160600000000  0.5436200000000 1.0
C      1  0.5342800000000  0.5022790000000  0.5510500000000 1.0
C      1  0.5295350000000  0.5453970000000  0.4695800000000 1.0
C      1  0.5279470000000  0.4508500000000  0.4746920000000 1.0
C      1  0.5229030000000  0.5264870000000  0.5139140000000 1.0
C      1  0.5218300000000  0.4988420000000  0.4710630000000 1.0
C      1  0.5214510000000  0.4750680000000  0.5150860000000 1.0
C      1  0.4443760000000  0.5741960000000  0.4714310000000 1.0
C      1  0.4455050000000  0.4403820000000  0.4516190000000 1.0
C      1  0.4445560000000  0.4878280000000  0.5771850000000 1.0
C      1  0.4637380000000  0.4837200000000  0.4554630000000 1.0
C      1  0.4658970000000  0.4707800000000  0.5383260000000 1.0
C      1  0.4652390000000  0.5487720000000  0.5079190000000 1.0
C      1  0.4696390000000  0.5531540000000  0.4293420000000 1.0
C      1  0.4693160000000  0.4113850000000  0.4896700000000 1.0
C      1  0.4684950000000  0.5345360000000  0.5796280000000 1.0
C      1  0.5578740000000  0.4290280000000  0.4502720000000 1.0
C      1  0.5542270000000  0.4905070000000  0.5828510000000 1.0
C      1  0.5581810000000  0.5789410000000  0.4632730000000 1.0
C      1  0.5141440000000  0.5268580000000  0.5435940000000 1.0
C      1  0.5113990000000  0.5228860000000  0.4574570000000 1.0
C      1  0.5113990000000  0.4509930000000  0.5004030000000 1.0
C      1  0.5164170000000  0.4241070000000  0.4612110000000 1.0
C      1  0.5139030000000  0.5069900000000  0.5890020000000 1.0
C      1  0.5160780000000  0.5703460000000  0.4558110000000 1.0
C      1  0.4317780000000  0.5213970000000  0.4342570000000 1.0
C      1  0.4312120000000  0.4335500000000  0.5145290000000 1.0
C      1  0.4307290000000  0.5472800000000  0.5502100000000 1.0
C      1  0.5538690000000  0.5251540000000  0.5130710000000 1.0
C      1  0.5534950000000  0.4994170000000  0.4702360000000 1.0
C      1  0.5528620000000  0.4739610000000  0.5139650000000 1.0
C      1  0.4658620000000  0.5736610000000  0.4498670000000 1.0
C      1  0.4672060000000  0.4234700000000  0.4635080000000 1.0
C      1  0.4638420000000  0.5073450000000  0.5890400000000 1.0
C      1  0.6043520000000  0.5007540000000  0.5213010000000 1.0
C      1  0.6049460000000  0.5137300000000  0.4933410000000 1.0
C      1  0.6042570000000  0.4839020000000  0.4953220000000 1.0
C      1  0.4165810000000  0.4688190000000  0.5431910000000 1.0
C      1  0.4155830000000  0.5548910000000  0.5052190000000 1.0
C      1  0.4149870000000  0.4785620000000  0.4512580000000 1.0
C      1  0.5278150000000  0.5193020000000  0.6125270000000 1.0
C      1  0.5304670000000  0.5797090000000  0.4213930000000 1.0
C      1  0.5322910000000  0.3903560000000  0.4700150000000 1.0
C      1  0.4810160000000  0.4315090000000  0.5494310000000 1.0
C      1  0.4804970000000  0.5795660000000  0.5342480000000 1.0
C      1  0.4815450000000  0.4915040000000  0.4164250000000 1.0
C      1  0.5568250000000  0.4544070000000  0.4330100000000 1.0
C      1  0.5565960000000  0.4620060000000  0.5720380000000 1.0
C      1  0.5567800000000  0.5816470000000  0.4935130000000 1.0
C      1  0.5185980000000  0.5258700000000  0.4141650000000 1.0
C      1  0.5178970000000  0.4123010000000  0.5202010000000 1.0
C      1  0.5169370000000  0.5611070000000  0.5628630000000 1.0
C      1  0.5307200000000  0.5813020000000  0.5148130000000 1.0
C      1  0.5308300000000  0.4738020000000  0.4233440000000 1.0
C      1  0.5307340000000  0.4460520000000  0.5608600000000 1.0
C      1  0.4280900000000  0.5661950000000  0.5286840000000 1.0
C      1  0.4286080000000  0.4932130000000  0.4298710000000 1.0
C      1  0.4282040000000  0.4425140000000  0.5415660000000 1.0
C      1  0.4393300000000  0.4676560000000  0.4646320000000 1.0
C      1  0.4403550000000  0.4863210000000  0.5463720000000 1.0
C      1  0.4403390000000  0.5486870000000  0.4896180000000 1.0
C      1  0.5146300000000  0.5003780000000  0.5003210000000 1.0
END
