TITL C-3578208-4450-545 9.40745423932684e-07 125000 -696.335388933439 0 0 112 (C1) n - 1
REM
REM in /home/bkarasulu/work/CARBON/AIRSS/Generating-Clusters/EDIP-Nigel-Params/with-SteepDescent/Higher-Symm/SD-CG/HFTN-CG
REM
REM
REM
REM
REM
REM ./C.cell (12c818d87b63d06a65506943cc24bca4)
REM
REM compiler GCC version 9.2.1 20190827 (Red Hat 9.2.1-1)
REM options -cpp -mtune=generic -march=x86-64 -g -O0 -fpre-include=/usr/include/finclude/math-vector-fortran.h
REM seed -176221498 -518810755 1883667714 -71564808 1551871048 -1091434803 -89465675 570205262 -1811163106 -1137690041 -1057535286 -673292806 -287841579 976431390 -592947348 1544423998 1130730061 593827623 1724726895 -634851381 1406229248 -1178013392 -2077793225 -870907380 578256118 2068711934 1428549898 547906089 -899568541 -707964828 408711731 628431227 -1816235026
REM
CELL 1.54180   50.00000   50.00000   50.00000   90.00000   90.00000   90.00000
LATT -1
SFAC C  
C      1  0.5034480000000  0.4960800000000  0.4432410000000 1.0
C      1  0.5307410000000  0.4979250000000  0.4527540000000 1.0
C      1  0.5308610000000  0.4859170000000  0.4777090000000 1.0
C      1  0.5269810000000  0.4972560000000  0.5020020000000 1.0
C      1  0.5290650000000  0.4806470000000  0.5234560000000 1.0
C      1  0.5157510000000  0.4882100000000  0.5462040000000 1.0
C      1  0.4897130000000  0.4783360000000  0.5466890000000 1.0
C      1  0.4701880000000  0.4861040000000  0.5285680000000 1.0
C      1  0.4732490000000  0.4755930000000  0.5035580000000 1.0
C      1  0.4720840000000  0.4869210000000  0.4788870000000 1.0
C      1  0.4895480000000  0.4779740000000  0.4598320000000 1.0
C      1  0.5053700000000  0.5217910000000  0.4079510000000 1.0
C      1  0.5567890000000  0.5166970000000  0.4222730000000 1.0
C      1  0.5809340000000  0.5196260000000  0.4696050000000 1.0
C      1  0.5833960000000  0.5181460000000  0.5190420000000 1.0
C      1  0.5691170000000  0.5180290000000  0.5677680000000 1.0
C      1  0.5234870000000  0.5197930000000  0.5913260000000 1.0
C      1  0.4740310000000  0.5242360000000  0.5785170000000 1.0
C      1  0.4416770000000  0.5226630000000  0.5462750000000 1.0
C      1  0.4220820000000  0.5230270000000  0.5030170000000 1.0
C      1  0.4187080000000  0.5181180000000  0.4525760000000 1.0
C      1  0.4523470000000  0.5174950000000  0.4136800000000 1.0
C      1  0.4942590000000  0.5306400000000  0.5360650000000 1.0
C      1  0.4661690000000  0.5153330000000  0.5284320000000 1.0
C      1  0.4540070000000  0.5268550000000  0.5014920000000 1.0
C      1  0.4645140000000  0.5142740000000  0.4769570000000 1.0
C      1  0.4636270000000  0.5279500000000  0.4491410000000 1.0
C      1  0.4929780000000  0.5250390000000  0.4445700000000 1.0
C      1  0.5388660000000  0.5282170000000  0.4530940000000 1.0
C      1  0.5543690000000  0.5315320000000  0.4777370000000 1.0
C      1  0.5318270000000  0.5261550000000  0.5052600000000 1.0
C      1  0.5431600000000  0.5269530000000  0.5343320000000 1.0
C      1  0.5184980000000  0.5174770000000  0.5520690000000 1.0
C      1  0.4363260000000  0.4742150000000  0.4358050000000 1.0
C      1  0.4801740000000  0.4754050000000  0.4117370000000 1.0
C      1  0.5300200000000  0.4751780000000  0.4147940000000 1.0
C      1  0.5681060000000  0.4746920000000  0.4472600000000 1.0
C      1  0.5845820000000  0.4749430000000  0.4940620000000 1.0
C      1  0.5772020000000  0.4741650000000  0.5433700000000 1.0
C      1  0.5457260000000  0.4746920000000  0.5820300000000 1.0
C      1  0.4957120000000  0.4778320000000  0.5905760000000 1.0
C      1  0.4513900000000  0.4803530000000  0.5685300000000 1.0
C      1  0.4200160000000  0.4800950000000  0.5299730000000 1.0
C      1  0.4150420000000  0.4772840000000  0.4805740000000 1.0
C      1  0.5052220000000  0.4601440000000  0.4093480000000 1.0
C      1  0.5521190000000  0.4599510000000  0.4275080000000 1.0
C      1  0.5802710000000  0.4601610000000  0.4695410000000 1.0
C      1  0.5839150000000  0.4600240000000  0.5188430000000 1.0
C      1  0.5638960000000  0.4592200000000  0.5648340000000 1.0
C      1  0.5206960000000  0.4612730000000  0.5904920000000 1.0
C      1  0.4701630000000  0.4643750000000  0.5843160000000 1.0
C      1  0.4306710000000  0.4659410000000  0.5535220000000 1.0
C      1  0.4131750000000  0.4642450000000  0.5062860000000 1.0
C      1  0.4218520000000  0.4609810000000  0.4574530000000 1.0
C      1  0.4565670000000  0.4599250000000  0.4205670000000 1.0
C      1  0.4739110000000  0.4259070000000  0.4544610000000 1.0
C      1  0.5023190000000  0.4257600000000  0.4470840000000 1.0
C      1  0.5292050000000  0.4263480000000  0.4584890000000 1.0
C      1  0.5461040000000  0.4255060000000  0.4826010000000 1.0
C      1  0.5480620000000  0.4258230000000  0.5122140000000 1.0
C      1  0.5359400000000  0.4250360000000  0.5392100000000 1.0
C      1  0.5107760000000  0.4268040000000  0.5541750000000 1.0
C      1  0.4813800000000  0.4273000000000  0.5513960000000 1.0
C      1  0.4581610000000  0.4283640000000  0.5329550000000 1.0
C      1  0.4477390000000  0.4273110000000  0.5051710000000 1.0
C      1  0.4537550000000  0.4264640000000  0.4760960000000 1.0
C      1  0.5689140000000  0.5566350000000  0.4752910000000 1.0
C      1  0.5771360000000  0.5457010000000  0.5173220000000 1.0
C      1  0.5659040000000  0.5465150000000  0.5635320000000 1.0
C      1  0.5230480000000  0.5465300000000  0.5833360000000 1.0
C      1  0.4713590000000  0.5526740000000  0.5658040000000 1.0
C      1  0.4481260000000  0.5532080000000  0.5462770000000 1.0
C      1  0.4107020000000  0.5501380000000  0.5037210000000 1.0
C      1  0.4222780000000  0.5460680000000  0.4540850000000 1.0
C      1  0.4551910000000  0.5531280000000  0.4279610000000 1.0
C      1  0.5042640000000  0.5519430000000  0.4340270000000 1.0
C      1  0.5302620000000  0.5555900000000  0.4460090000000 1.0
C      1  0.5749670000000  0.4333870000000  0.5166330000000 1.0
C      1  0.5551510000000  0.4329740000000  0.5584440000000 1.0
C      1  0.5179330000000  0.4348910000000  0.5803220000000 1.0
C      1  0.4714920000000  0.4372360000000  0.5760200000000 1.0
C      1  0.4374380000000  0.4387140000000  0.5492910000000 1.0
C      1  0.4211720000000  0.4371120000000  0.5061730000000 1.0
C      1  0.4296170000000  0.4346180000000  0.4638870000000 1.0
C      1  0.4618990000000  0.4339110000000  0.4301790000000 1.0
C      1  0.5042790000000  0.4338330000000  0.4200370000000 1.0
C      1  0.5447880000000  0.4341300000000  0.4362970000000 1.0
C      1  0.5716730000000  0.4335630000000  0.4736000000000 1.0
C      1  0.4792550000000  0.5048910000000  0.4073340000000 1.0
C      1  0.5320270000000  0.5049770000000  0.4090940000000 1.0
C      1  0.5738370000000  0.5032990000000  0.4434000000000 1.0
C      1  0.5872440000000  0.5037490000000  0.4940600000000 1.0
C      1  0.5781800000000  0.5033760000000  0.5437260000000 1.0
C      1  0.5475320000000  0.5040510000000  0.5826000000000 1.0
C      1  0.4967630000000  0.5074900000000  0.5888730000000 1.0
C      1  0.4495160000000  0.5094590000000  0.5717940000000 1.0
C      1  0.4189410000000  0.5096990000000  0.5299700000000 1.0
C      1  0.4131110000000  0.5061860000000  0.4788260000000 1.0
C      1  0.4331300000000  0.5026250000000  0.4317240000000 1.0
C      1  0.5469460000000  0.5632690000000  0.5480990000000 1.0
C      1  0.5207600000000  0.5651550000000  0.5631700000000 1.0
C      1  0.4941880000000  0.5651580000000  0.5524050000000 1.0
C      1  0.4558930000000  0.5643870000000  0.5169600000000 1.0
C      1  0.4334680000000  0.5655410000000  0.4969130000000 1.0
C      1  0.4414140000000  0.5601580000000  0.4693170000000 1.0
C      1  0.4614850000000  0.5715660000000  0.4504350000000 1.0
C      1  0.4905090000000  0.5725730000000  0.4525410000000 1.0
C      1  0.5252350000000  0.5728280000000  0.4689960000000 1.0
C      1  0.5486600000000  0.5742280000000  0.4874520000000 1.0
C      1  0.5539220000000  0.5630620000000  0.5163700000000 1.0
C      1  0.4815630000000  0.5578150000000  0.5037310000000 1.0
C      1  0.5037260000000  0.5399040000000  0.5092470000000 1.0
END
