TITL C-3578206-1180-499 -2.52683435881231e-05 125000 -659.295714640966 0 0 105 (C1) n - 1
REM
REM in /home/bkarasulu/work/CARBON/AIRSS/Generating-Clusters/EDIP-Nigel-Params/with-SteepDescent/Higher-Symm/SD-CG/HFTN-CG
REM
REM
REM
REM
REM
REM ./C.cell (12c818d87b63d06a65506943cc24bca4)
REM
REM compiler GCC version 9.2.1 20190827 (Red Hat 9.2.1-1)
REM options -cpp -mtune=generic -march=x86-64 -g -O0 -fpre-include=/usr/include/finclude/math-vector-fortran.h
REM seed -1807317876 852457756 -840778144 -306233541 383394930 1884716082 359165227 538989707 1916965411 2115078125 1718851423 286456521 1113217237 1977647759 -1368282351 -505535676 -1934680097 -1727518809 842509019 1007661607 -1116152447 330750538 -757237591 -1359283244 1576206990 -2108895788 -1265895089 -562655802 346440108 1364195868 -1676222861 -1501046591 665204443
REM
CELL 1.54180   50.00000   50.00000   50.00000   90.00000   90.00000   90.00000
LATT -1
SFAC C  
C      1  0.4785630000000  0.5501050000000  0.4381360000000 1.0
C      1  0.4670870000000  0.4556030000000  0.4388960000000 1.0
C      1  0.5542350000000  0.4929480000000  0.4364520000000 1.0
C      1  0.4791240000000  0.5503310000000  0.5659080000000 1.0
C      1  0.4671920000000  0.4561940000000  0.5622460000000 1.0
C      1  0.5541140000000  0.4923290000000  0.5568510000000 1.0
C      1  0.4824710000000  0.4776770000000  0.4271010000000 1.0
C      1  0.5274430000000  0.4950180000000  0.4263230000000 1.0
C      1  0.4902050000000  0.5255090000000  0.4267820000000 1.0
C      1  0.4828180000000  0.4782240000000  0.5737890000000 1.0
C      1  0.5285760000000  0.4941860000000  0.5728010000000 1.0
C      1  0.4909780000000  0.5260420000000  0.5760990000000 1.0
C      1  0.4147010000000  0.4805190000000  0.4865860000000 1.0
C      1  0.5601170000000  0.4366910000000  0.4860240000000 1.0
C      1  0.5249370000000  0.5866790000000  0.4851520000000 1.0
C      1  0.4147940000000  0.4805570000000  0.5156880000000 1.0
C      1  0.5612040000000  0.4335800000000  0.5150200000000 1.0
C      1  0.5232870000000  0.5856160000000  0.5145420000000 1.0
C      1  0.5635730000000  0.5234060000000  0.5616320000000 1.0
C      1  0.4488140000000  0.5448010000000  0.5664090000000 1.0
C      1  0.4871680000000  0.4314580000000  0.5657990000000 1.0
C      1  0.5644100000000  0.5221710000000  0.4365350000000 1.0
C      1  0.4473940000000  0.5450210000000  0.4345610000000 1.0
C      1  0.4875560000000  0.4314250000000  0.4346690000000 1.0
C      1  0.5689020000000  0.5617530000000  0.4859750000000 1.0
C      1  0.4131110000000  0.5306300000000  0.4866590000000 1.0
C      1  0.5183960000000  0.4087640000000  0.4851720000000 1.0
C      1  0.5688020000000  0.5634590000000  0.5152270000000 1.0
C      1  0.4134040000000  0.5307520000000  0.5160000000000 1.0
C      1  0.5179280000000  0.4085520000000  0.5144660000000 1.0
C      1  0.5143940000000  0.4792440000000  0.4684600000000 1.0
C      1  0.5107320000000  0.5205560000000  0.4676590000000 1.0
C      1  0.4765030000000  0.4968580000000  0.4677910000000 1.0
C      1  0.5149260000000  0.4780270000000  0.5336160000000 1.0
C      1  0.5084080000000  0.5219870000000  0.5333780000000 1.0
C      1  0.4765360000000  0.4997030000000  0.5334320000000 1.0
C      1  0.5150290000000  0.4382950000000  0.5736930000000 1.0
C      1  0.5393140000000  0.5392530000000  0.5685340000000 1.0
C      1  0.4399110000000  0.5177140000000  0.5744100000000 1.0
C      1  0.5152040000000  0.4390380000000  0.4270530000000 1.0
C      1  0.5453760000000  0.5432490000000  0.4281120000000 1.0
C      1  0.4399030000000  0.5172330000000  0.4277440000000 1.0
C      1  0.4147220000000  0.5563840000000  0.5297930000000 1.0
C      1  0.4950780000000  0.3968550000000  0.5279880000000 1.0
C      1  0.5907640000000  0.5512100000000  0.5296930000000 1.0
C      1  0.4141830000000  0.5560620000000  0.4728050000000 1.0
C      1  0.4962640000000  0.3961900000000  0.4712190000000 1.0
C      1  0.5907000000000  0.5475410000000  0.4727920000000 1.0
C      1  0.4289060000000  0.5591770000000  0.5534030000000 1.0
C      1  0.4858910000000  0.4076750000000  0.5516190000000 1.0
C      1  0.5856470000000  0.5380650000000  0.5534280000000 1.0
C      1  0.4275800000000  0.5581640000000  0.4488140000000 1.0
C      1  0.4866800000000  0.4070410000000  0.4477740000000 1.0
C      1  0.5864810000000  0.5326790000000  0.4497790000000 1.0
C      1  0.4306710000000  0.4973800000000  0.4472770000000 1.0
C      1  0.5377300000000  0.4409830000000  0.4460290000000 1.0
C      1  0.5317800000000  0.5611620000000  0.4470650000000 1.0
C      1  0.4309830000000  0.4975210000000  0.5549820000000 1.0
C      1  0.5377620000000  0.4395220000000  0.5546340000000 1.0
C      1  0.5314510000000  0.5642550000000  0.5550430000000 1.0
C      1  0.4781130000000  0.3808240000000  0.5130900000000 1.0
C      1  0.6131880000000  0.5442230000000  0.5149770000000 1.0
C      1  0.4098370000000  0.5789680000000  0.5145480000000 1.0
C      1  0.4792980000000  0.3803960000000  0.4863330000000 1.0
C      1  0.6129560000000  0.5419210000000  0.4882720000000 1.0
C      1  0.4096150000000  0.5789100000000  0.4877520000000 1.0
C      1  0.4999180000000  0.5860710000000  0.4700070000000 1.0
C      1  0.4269330000000  0.4584920000000  0.4721360000000 1.0
C      1  0.5719140000000  0.4603920000000  0.4726550000000 1.0
C      1  0.4968790000000  0.5828210000000  0.5282490000000 1.0
C      1  0.4270070000000  0.4585150000000  0.5300220000000 1.0
C      1  0.5748720000000  0.4541870000000  0.5304370000000 1.0
C      1  0.4731910000000  0.5030740000000  0.4371920000000 1.0
C      1  0.5104290000000  0.4743670000000  0.4373450000000 1.0
C      1  0.5169800000000  0.5208240000000  0.4369410000000 1.0
C      1  0.4734320000000  0.5042240000000  0.5646970000000 1.0
C      1  0.5106130000000  0.4735370000000  0.5633660000000 1.0
C      1  0.5169130000000  0.5206060000000  0.5640270000000 1.0
C      1  0.5029230000000  0.5701950000000  0.4457230000000 1.0
C      1  0.4375550000000  0.4677360000000  0.4467500000000 1.0
C      1  0.5587630000000  0.4634820000000  0.4459340000000 1.0
C      1  0.5011480000000  0.5702000000000  0.5551550000000 1.0
C      1  0.4376890000000  0.4678150000000  0.5553440000000 1.0
C      1  0.5610130000000  0.4595520000000  0.5557080000000 1.0
C      1  0.4702700000000  0.4667050000000  0.4759730000000 1.0
C      1  0.5442510000000  0.4879260000000  0.4787330000000 1.0
C      1  0.4874940000000  0.5403500000000  0.4743790000000 1.0
C      1  0.4699720000000  0.4688440000000  0.5256940000000 1.0
C      1  0.5412380000000  0.4905520000000  0.5273410000000 1.0
C      1  0.4867250000000  0.5446760000000  0.5232580000000 1.0
C      1  0.5381720000000  0.4254670000000  0.4712040000000 1.0
C      1  0.5450900000000  0.5707840000000  0.4714790000000 1.0
C      1  0.4170050000000  0.5053090000000  0.4722370000000 1.0
C      1  0.5378430000000  0.4241650000000  0.5291820000000 1.0
C      1  0.5439510000000  0.5714290000000  0.5288710000000 1.0
C      1  0.4171360000000  0.5053110000000  0.5301680000000 1.0
C      1  0.4975060000000  0.4628160000000  0.4862460000000 1.0
C      1  0.5332410000000  0.5146490000000  0.4866320000000 1.0
C      1  0.4699630000000  0.5199470000000  0.4854280000000 1.0
C      1  0.4969140000000  0.4649080000000  0.5154150000000 1.0
C      1  0.5316120000000  0.5156280000000  0.5159220000000 1.0
C      1  0.4685580000000  0.5220910000000  0.5148600000000 1.0
C      1  0.5568450000000  0.4761100000000  0.5054390000000 1.0
C      1  0.4923200000000  0.5598550000000  0.4968040000000 1.0
C      1  0.4519040000000  0.4621260000000  0.5010000000000 1.0
END
