TITL C-3578204-4308-216 3.88154096620235e-07 125000 -61.5942586285145 0 0 11 (C3v) n - 1
REM
REM in /home/bkarasulu/work/CARBON/AIRSS/Generating-Clusters/EDIP-Nigel-Params/with-SteepDescent/Higher-Symm/SD-CG/HFTN-CG
REM
REM
REM
REM
REM
REM ./C.cell (12c818d87b63d06a65506943cc24bca4)
REM
REM compiler GCC version 9.2.1 20190827 (Red Hat 9.2.1-1)
REM options -cpp -mtune=generic -march=x86-64 -g -O0 -fpre-include=/usr/include/finclude/math-vector-fortran.h
REM seed -2004286898 60455653 2140486027 1417767376 -797726770 -1014333206 -714630858 -1570367098 -1141132426 576656955 378889906 -1368673800 -1060858066 -1279529102 -71627793 -2108290482 196760921 1492465129 -1152767175 32005092 1923932800 418596570 1681236499 -1807153921 1099543237 1976383659 443640424 530745354 -1573958039 -1787325622 1325644856 -1307515005 -1395855052
REM
CELL 1.54180   50.00000   50.00000   50.00000   90.00000   90.00000   90.00000
LATT -1
SFAC C  
C      1  0.5292650000000  0.4975020000000  0.4971820000000 1.0
C      1  0.4622540000000  0.4922100000000  0.4918890000000 1.0
C      1  0.4953970000000  0.4606510000000  0.4926960000000 1.0
C      1  0.4953980000000  0.4930170000000  0.4603300000000 1.0
C      1  0.4972880000000  0.5279500000000  0.4964030000000 1.0
C      1  0.4972870000000  0.4967230000000  0.5276290000000 1.0
C      1  0.4791840000000  0.4763920000000  0.4760710000000 1.0
C      1  0.5123430000000  0.5111730000000  0.4743840000000 1.0
C      1  0.5123420000000  0.4747040000000  0.5108520000000 1.0
C      1  0.4749980000000  0.5102630000000  0.5099420000000 1.0
C      1  0.5179690000000  0.5181930000000  0.5178730000000 1.0
END
