TITL C-3577084-3642-94 -1.02417248047675e-06 125000 -110.608015013225 0 0 20 (Cs) n - 1
REM
REM in /home/bkarasulu/work/CARBON/AIRSS/Generating-Clusters/EDIP-Nigel-Params/with-SteepDescent/Higher-Symm/SD-CG/HFTN-CG
REM
REM
REM
REM
REM
REM ./C.cell (12c818d87b63d06a65506943cc24bca4)
REM
REM compiler GCC version 9.2.1 20190827 (Red Hat 9.2.1-1)
REM options -cpp -mtune=generic -march=x86-64 -g -O0 -fpre-include=/usr/include/finclude/math-vector-fortran.h
REM seed -524739152 -2078054358 -1864099795 -1408851544 -702571384 724973228 164808370 1412826508 711422224 1195281332 2139219827 479136917 -651070086 -1116500183 -2113553590 -27634259 -480851687 -648823239 -122360780 -1178632816 1982216160 1620673665 1828375777 -1026265651 1773541373 1714762760 1960742564 -2130356789 -430899877 1808418170 -1395733629 339320517 -191744906
REM
CELL 1.54180   50.00000   50.00000   50.00000   90.00000   90.00000   90.00000
LATT -1
SFAC C  
C      1  0.5151880000000  0.4779070000000  0.4836870000000 1.0
C      1  0.5452000000000  0.5151550000000  0.4830690000000 1.0
C      1  0.5035780000000  0.5496080000000  0.4842600000000 1.0
C      1  0.4633630000000  0.5197680000000  0.4853140000000 1.0
C      1  0.4722330000000  0.4532880000000  0.4861020000000 1.0
C      1  0.5154820000000  0.5221290000000  0.4840150000000 1.0
C      1  0.5449960000000  0.4844970000000  0.4828420000000 1.0
C      1  0.5029180000000  0.4505880000000  0.4835260000000 1.0
C      1  0.4631040000000  0.4809410000000  0.4850270000000 1.0
C      1  0.4728590000000  0.5472790000000  0.4867990000000 1.0
C      1  0.5041060000000  0.4503060000000  0.5164390000000 1.0
C      1  0.5460740000000  0.4842730000000  0.5146970000000 1.0
C      1  0.5166440000000  0.5219490000000  0.5161630000000 1.0
C      1  0.4746610000000  0.5489160000000  0.5171550000000 1.0
C      1  0.4589990000000  0.4858220000000  0.5131650000000 1.0
C      1  0.5047660000000  0.5493860000000  0.5171740000000 1.0
C      1  0.5462780000000  0.5148920000000  0.5149240000000 1.0
C      1  0.5163490000000  0.4775940000000  0.5158340000000 1.0
C      1  0.4740100000000  0.4511770000000  0.5164300000000 1.0
C      1  0.4591910000000  0.5145260000000  0.5133770000000 1.0
END
