TITL C-3578202-4305-463 -1.57147384828124e-06 125000 -1028.11022498701 0 0 164 (C1) n - 1
REM
REM in /home/bkarasulu/work/CARBON/AIRSS/Generating-Clusters/EDIP-Nigel-Params/with-SteepDescent/Higher-Symm/SD-CG/HFTN-CG
REM
REM
REM
REM
REM
REM ./C.cell (12c818d87b63d06a65506943cc24bca4)
REM
REM compiler GCC version 9.2.1 20190827 (Red Hat 9.2.1-1)
REM options -cpp -mtune=generic -march=x86-64 -g -O0 -fpre-include=/usr/include/finclude/math-vector-fortran.h
REM seed -1311936733 1759024417 1203210958 1157746467 41786668 117524226 1554857026 -416664830 -466548015 -340430845 -678830429 -1435675599 1907341464 711861020 1921029258 1911818018 965131143 -652333463 -1329938572 -1776636436 -1750410361 -1861953877 -239984586 1587188033 -1616418354 547447078 -1848918993 -1606412789 299695127 478116816 -684475669 678182253 373427721
REM
CELL 1.54180   50.00000   50.00000   50.00000   90.00000   90.00000   90.00000
LATT -1
SFAC C  
C      1  0.5985970000000  0.5265650000000  0.4556430000000 1.0
C      1  0.4880660000000  0.5267840000000  0.6099020000000 1.0
C      1  0.4185540000000  0.5251540000000  0.4373390000000 1.0
C      1  0.4054830000000  0.4708550000000  0.4601490000000 1.0
C      1  0.5093140000000  0.4707380000000  0.6047140000000 1.0
C      1  0.5834810000000  0.4706070000000  0.4350600000000 1.0
C      1  0.4137830000000  0.5188020000000  0.4666530000000 1.0
C      1  0.5780520000000  0.5204520000000  0.4331430000000 1.0
C      1  0.5163700000000  0.5203750000000  0.6013290000000 1.0
C      1  0.5917950000000  0.4771910000000  0.4640000000000 1.0
C      1  0.4273490000000  0.4768350000000  0.4391990000000 1.0
C      1  0.4806970000000  0.4767980000000  0.5978640000000 1.0
C      1  0.5173120000000  0.5475260000000  0.3971250000000 1.0
C      1  0.5756040000000  0.5477990000000  0.5665980000000 1.0
C      1  0.4129130000000  0.5555740000000  0.5304590000000 1.0
C      1  0.4800580000000  0.4367390000000  0.4031920000000 1.0
C      1  0.4272490000000  0.4482570000000  0.5666220000000 1.0
C      1  0.5888250000000  0.4391160000000  0.5294270000000 1.0
C      1  0.5307520000000  0.4982940000000  0.5289550000000 1.0
C      1  0.4599320000000  0.4840500000000  0.5125040000000 1.0
C      1  0.5106050000000  0.4881500000000  0.4523270000000 1.0
C      1  0.4551190000000  0.5061930000000  0.5369940000000 1.0
C      1  0.5449130000000  0.5169480000000  0.5103610000000 1.0
C      1  0.4911280000000  0.5108280000000  0.4517810000000 1.0
C      1  0.4367320000000  0.5480230000000  0.4323430000000 1.0
C      1  0.5881000000000  0.5453700000000  0.4764650000000 1.0
C      1  0.4799710000000  0.5540890000000  0.5977610000000 1.0
C      1  0.5624150000000  0.4495220000000  0.4318350000000 1.0
C      1  0.4102350000000  0.4477900000000  0.4784200000000 1.0
C      1  0.5189920000000  0.4549690000000  0.5819910000000 1.0
C      1  0.5668220000000  0.4904940000000  0.4742700000000 1.0
C      1  0.4870690000000  0.4897740000000  0.5711480000000 1.0
C      1  0.4509070000000  0.4863640000000  0.4560660000000 1.0
C      1  0.4400350000000  0.5070260000000  0.4763460000000 1.0
C      1  0.5097840000000  0.5106210000000  0.5731800000000 1.0
C      1  0.5564850000000  0.5077650000000  0.4507530000000 1.0
C      1  0.5495770000000  0.4243780000000  0.5005570000000 1.0
C      1  0.4719930000000  0.4211950000000  0.5409330000000 1.0
C      1  0.4753010000000  0.4178410000000  0.4532470000000 1.0
C      1  0.4525050000000  0.5776680000000  0.5006540000000 1.0
C      1  0.5292860000000  0.5804110000000  0.5475190000000 1.0
C      1  0.5231960000000  0.5754890000000  0.4512430000000 1.0
C      1  0.4734620000000  0.4488260000000  0.5562350000000 1.0
C      1  0.4521490000000  0.4384280000000  0.4530500000000 1.0
C      1  0.5608790000000  0.4446890000000  0.4812630000000 1.0
C      1  0.5218590000000  0.5541680000000  0.5656300000000 1.0
C      1  0.5377970000000  0.5489630000000  0.4443010000000 1.0
C      1  0.4414250000000  0.5551330000000  0.4824100000000 1.0
C      1  0.4219820000000  0.4359420000000  0.5376220000000 1.0
C      1  0.5017290000000  0.4484790000000  0.4195510000000 1.0
C      1  0.5634410000000  0.4515130000000  0.5382040000000 1.0
C      1  0.5777570000000  0.5604110000000  0.5400310000000 1.0
C      1  0.4937940000000  0.5594540000000  0.4102030000000 1.0
C      1  0.4360300000000  0.5587920000000  0.5453360000000 1.0
C      1  0.5796360000000  0.4823020000000  0.5211660000000 1.0
C      1  0.4475430000000  0.4630870000000  0.5496510000000 1.0
C      1  0.4793140000000  0.4795520000000  0.4161650000000 1.0
C      1  0.4208890000000  0.5112280000000  0.5195020000000 1.0
C      1  0.5423800000000  0.5364800000000  0.5520530000000 1.0
C      1  0.5174910000000  0.5296150000000  0.4312880000000 1.0
C      1  0.4662690000000  0.5176800000000  0.3927810000000 1.0
C      1  0.6041310000000  0.5191840000000  0.5216660000000 1.0
C      1  0.4263370000000  0.5204510000000  0.5847260000000 1.0
C      1  0.5355240000000  0.4822250000000  0.3945790000000 1.0
C      1  0.3927940000000  0.4783180000000  0.5251630000000 1.0
C      1  0.5650710000000  0.4822320000000  0.5799250000000 1.0
C      1  0.4436090000000  0.5577170000000  0.4069830000000 1.0
C      1  0.6024180000000  0.5597510000000  0.4970330000000 1.0
C      1  0.4524160000000  0.5592810000000  0.5909640000000 1.0
C      1  0.5515530000000  0.4402430000000  0.4076960000000 1.0
C      1  0.3919480000000  0.4393090000000  0.4976610000000 1.0
C      1  0.5511680000000  0.4334580000000  0.5833500000000 1.0
C      1  0.5747720000000  0.5036420000000  0.5638310000000 1.0
C      1  0.4001680000000  0.4959710000000  0.5478740000000 1.0
C      1  0.5166210000000  0.5037110000000  0.3976990000000 1.0
C      1  0.4206910000000  0.4964440000000  0.5689280000000 1.0
C      1  0.5925930000000  0.4986980000000  0.5418130000000 1.0
C      1  0.4884200000000  0.4974950000000  0.3945590000000 1.0
C      1  0.4396700000000  0.4509580000000  0.4272540000000 1.0
C      1  0.5909390000000  0.4524460000000  0.4828270000000 1.0
C      1  0.4679540000000  0.4494270000000  0.5865880000000 1.0
C      1  0.5607620000000  0.5466320000000  0.4235310000000 1.0
C      1  0.4126770000000  0.5442740000000  0.4837700000000 1.0
C      1  0.5324820000000  0.5476840000000  0.5940110000000 1.0
C      1  0.5098390000000  0.6134900000000  0.5173190000000 1.0
C      1  0.4858970000000  0.6124210000000  0.4868350000000 1.0
C      1  0.5147650000000  0.6113710000000  0.4884770000000 1.0
C      1  0.4993440000000  0.3842980000000  0.5156080000000 1.0
C      1  0.5208370000000  0.3849270000000  0.4952610000000 1.0
C      1  0.4824520000000  0.3823850000000  0.4912970000000 1.0
C      1  0.4075370000000  0.5365100000000  0.5113530000000 1.0
C      1  0.5450060000000  0.5480740000000  0.4004420000000 1.0
C      1  0.5601130000000  0.5497640000000  0.5899710000000 1.0
C      1  0.5969120000000  0.4592130000000  0.5109400000000 1.0
C      1  0.4604930000000  0.4570760000000  0.4070930000000 1.0
C      1  0.4413720000000  0.4407800000000  0.5899530000000 1.0
C      1  0.4406920000000  0.5063460000000  0.3990500000000 1.0
C      1  0.6147270000000  0.5089220000000  0.4963090000000 1.0
C      1  0.4420170000000  0.5119870000000  0.6067530000000 1.0
C      1  0.5626280000000  0.4893420000000  0.3967420000000 1.0
C      1  0.3868680000000  0.4912710000000  0.5003230000000 1.0
C      1  0.5533170000000  0.4881240000000  0.6044080000000 1.0
C      1  0.4308620000000  0.4284790000000  0.4714320000000 1.0
C      1  0.5538730000000  0.4341350000000  0.4548080000000 1.0
C      1  0.5237080000000  0.4260350000000  0.5763910000000 1.0
C      1  0.5726730000000  0.5699440000000  0.4743670000000 1.0
C      1  0.4477620000000  0.5623410000000  0.4547190000000 1.0
C      1  0.4836100000000  0.5748610000000  0.5744860000000 1.0
C      1  0.5475820000000  0.5309910000000  0.4657330000000 1.0
C      1  0.4965660000000  0.5346330000000  0.5616110000000 1.0
C      1  0.4576990000000  0.5293490000000  0.4879040000000 1.0
C      1  0.4634870000000  0.4618240000000  0.4675770000000 1.0
C      1  0.4945910000000  0.4710370000000  0.5488740000000 1.0
C      1  0.5463350000000  0.4712910000000  0.4826390000000 1.0
C      1  0.4977460000000  0.4086210000000  0.5335330000000 1.0
C      1  0.4708580000000  0.4063960000000  0.4809330000000 1.0
C      1  0.5277610000000  0.4114310000000  0.4860860000000 1.0
C      1  0.5058920000000  0.5895520000000  0.5329850000000 1.0
C      1  0.5274130000000  0.5860920000000  0.4793940000000 1.0
C      1  0.4739080000000  0.5871740000000  0.4823070000000 1.0
C      1  0.4494720000000  0.4908420000000  0.5609970000000 1.0
C      1  0.4697230000000  0.4979560000000  0.4378730000000 1.0
C      1  0.5725640000000  0.5048560000000  0.5009640000000 1.0
C      1  0.5370930000000  0.5067190000000  0.5564530000000 1.0
C      1  0.5305850000000  0.5007370000000  0.4337420000000 1.0
C      1  0.4347570000000  0.4931030000000  0.5000810000000 1.0
C      1  0.4493240000000  0.4284120000000  0.5202710000000 1.0
C      1  0.5011880000000  0.4347950000000  0.4491610000000 1.0
C      1  0.5391930000000  0.4373270000000  0.5251660000000 1.0
C      1  0.5527460000000  0.5717280000000  0.5250220000000 1.0
C      1  0.4959910000000  0.5722360000000  0.4379740000000 1.0
C      1  0.4605120000000  0.5677480000000  0.5290590000000 1.0
C      1  0.5372290000000  0.5442920000000  0.5227530000000 1.0
C      1  0.4773710000000  0.5431830000000  0.5185930000000 1.0
C      1  0.5072520000000  0.5361850000000  0.4874510000000 1.0
C      1  0.4659570000000  0.4534390000000  0.5110010000000 1.0
C      1  0.5171610000000  0.4540750000000  0.5156040000000 1.0
C      1  0.4930930000000  0.4579760000000  0.4702470000000 1.0
C      1  0.4716170000000  0.5789200000000  0.4542070000000 1.0
C      1  0.5532370000000  0.5806940000000  0.4932210000000 1.0
C      1  0.4799320000000  0.5846200000000  0.5466480000000 1.0
C      1  0.5277780000000  0.4196350000000  0.4573950000000 1.0
C      1  0.4447260000000  0.4129370000000  0.4929620000000 1.0
C      1  0.5215520000000  0.4142070000000  0.5497500000000 1.0
C      1  0.4397600000000  0.5435100000000  0.5708440000000 1.0
C      1  0.4686460000000  0.5460420000000  0.4016650000000 1.0
C      1  0.5996020000000  0.5490280000000  0.5234940000000 1.0
C      1  0.5611070000000  0.4558640000000  0.5678430000000 1.0
C      1  0.5281830000000  0.4554860000000  0.4044470000000 1.0
C      1  0.4007180000000  0.4502320000000  0.5218130000000 1.0
C      1  0.5007780000000  0.4957270000000  0.5280730000000 1.0
C      1  0.4883340000000  0.4919280000000  0.4991080000000 1.0
C      1  0.5216980000000  0.4889540000000  0.4799040000000 1.0
C      1  0.4822830000000  0.5214560000000  0.5380380000000 1.0
C      1  0.5300540000000  0.5186450000000  0.4853510000000 1.0
C      1  0.4852310000000  0.5180760000000  0.4812490000000 1.0
C      1  0.4223790000000  0.5011930000000  0.4203760000000 1.0
C      1  0.6103150000000  0.5023440000000  0.4687920000000 1.0
C      1  0.4686830000000  0.5038260000000  0.6114970000000 1.0
C      1  0.5817960000000  0.4940360000000  0.4167870000000 1.0
C      1  0.3943810000000  0.4953630000000  0.4729130000000 1.0
C      1  0.5270550000000  0.4936920000000  0.6121240000000 1.0
C      1  0.4940310000000  0.4483230000000  0.4992800000000 1.0
C      1  0.5068190000000  0.5502900000000  0.5124960000000 1.0
END
