TITL C-3577086-586-258 -1.88295532223134e-06 125000 -540.104108377064 0 0 90 (C1) n - 1
REM
REM in /home/bkarasulu/work/CARBON/AIRSS/Generating-Clusters/EDIP-Nigel-Params/with-SteepDescent/Higher-Symm/SD-CG/HFTN-CG
REM
REM
REM
REM
REM
REM ./C.cell (12c818d87b63d06a65506943cc24bca4)
REM
REM compiler GCC version 9.2.1 20190827 (Red Hat 9.2.1-1)
REM options -cpp -mtune=generic -march=x86-64 -g -O0 -fpre-include=/usr/include/finclude/math-vector-fortran.h
REM seed -1755429859 -1584856954 1158589644 1737193933 820753473 -549738931 1589384388 -237700782 -258702872 967840634 730142560 1863675437 566415300 -1297920435 1332899541 1326562510 1930879361 -809623316 -1498615679 2043415037 1314866037 -356196724 -1601959584 -761275333 -1312018671 439502745 753621956 -2037536512 -1091228281 -1516037448 -93649160 -1782723538 -927021090
REM
CELL 1.54180   50.00000   50.00000   50.00000   90.00000   90.00000   90.00000
LATT -1
SFAC C  
C      1  0.4545930000000  0.4176460000000  0.5308180000000 1.0
C      1  0.4594030000000  0.5091770000000  0.5872940000000 1.0
C      1  0.4545580000000  0.5843400000000  0.5199450000000 1.0
C      1  0.4578920000000  0.5457060000000  0.4290370000000 1.0
C      1  0.4549360000000  0.4466330000000  0.4324820000000 1.0
C      1  0.5661090000000  0.4456960000000  0.5439220000000 1.0
C      1  0.5672250000000  0.5252150000000  0.5647580000000 1.0
C      1  0.5649770000000  0.5686410000000  0.4976570000000 1.0
C      1  0.5643430000000  0.5163880000000  0.4317840000000 1.0
C      1  0.5629890000000  0.4403090000000  0.4628370000000 1.0
C      1  0.5663530000000  0.5479020000000  0.4785070000000 1.0
C      1  0.5647320000000  0.4929700000000  0.4472370000000 1.0
C      1  0.5647310000000  0.4476340000000  0.4899250000000 1.0
C      1  0.5672540000000  0.4738950000000  0.5459410000000 1.0
C      1  0.5645910000000  0.5341110000000  0.5378250000000 1.0
C      1  0.4690200000000  0.4987920000000  0.4295400000000 1.0
C      1  0.4671970000000  0.4350070000000  0.4783050000000 1.0
C      1  0.4721280000000  0.4584430000000  0.5524760000000 1.0
C      1  0.4760420000000  0.5372750000000  0.5509880000000 1.0
C      1  0.4695270000000  0.5609480000000  0.4796240000000 1.0
C      1  0.5388960000000  0.4435030000000  0.5041060000000 1.0
C      1  0.5422400000000  0.4857210000000  0.5573060000000 1.0
C      1  0.5368450000000  0.5449830000000  0.5296390000000 1.0
C      1  0.5409140000000  0.5451040000000  0.4637180000000 1.0
C      1  0.5382320000000  0.4799150000000  0.4482290000000 1.0
C      1  0.5759750000000  0.4962000000000  0.4743940000000 1.0
C      1  0.5758490000000  0.4745190000000  0.4947030000000 1.0
C      1  0.5752490000000  0.4872540000000  0.5211460000000 1.0
C      1  0.5763090000000  0.5162870000000  0.5177510000000 1.0
C      1  0.5748570000000  0.5218720000000  0.4890730000000 1.0
C      1  0.5202080000000  0.5203710000000  0.4859790000000 1.0
C      1  0.5194100000000  0.4903760000000  0.4805320000000 1.0
C      1  0.5178360000000  0.4757330000000  0.5069920000000 1.0
C      1  0.5171480000000  0.4958760000000  0.5296100000000 1.0
C      1  0.5156140000000  0.5246430000000  0.5171150000000 1.0
C      1  0.5022040000000  0.4108210000000  0.4964450000000 1.0
C      1  0.5012820000000  0.4663380000000  0.5888800000000 1.0
C      1  0.5023750000000  0.5732450000000  0.5564220000000 1.0
C      1  0.4988220000000  0.5812930000000  0.4500610000000 1.0
C      1  0.5049910000000  0.4778440000000  0.4106140000000 1.0
C      1  0.4516610000000  0.5199750000000  0.4369230000000 1.0
C      1  0.4493120000000  0.4466280000000  0.4595140000000 1.0
C      1  0.4552440000000  0.4454510000000  0.5332670000000 1.0
C      1  0.4583350000000  0.5159020000000  0.5602590000000 1.0
C      1  0.4540600000000  0.5618970000000  0.5032520000000 1.0
C      1  0.4280250000000  0.4624920000000  0.4705610000000 1.0
C      1  0.4337840000000  0.4617080000000  0.5234550000000 1.0
C      1  0.4340990000000  0.5107500000000  0.5448630000000 1.0
C      1  0.4311340000000  0.5445580000000  0.5021050000000 1.0
C      1  0.4312360000000  0.5145430000000  0.4564190000000 1.0
C      1  0.5213810000000  0.5307730000000  0.5620830000000 1.0
C      1  0.5180670000000  0.5642870000000  0.4879120000000 1.0
C      1  0.5154010000000  0.5108560000000  0.4416470000000 1.0
C      1  0.5148300000000  0.4468470000000  0.4738840000000 1.0
C      1  0.5200850000000  0.4556570000000  0.5481530000000 1.0
C      1  0.5004900000000  0.4614960000000  0.4344400000000 1.0
C      1  0.5000990000000  0.4290520000000  0.5193450000000 1.0
C      1  0.5033120000000  0.4930930000000  0.5766920000000 1.0
C      1  0.4992160000000  0.5705790000000  0.5272440000000 1.0
C      1  0.5036780000000  0.5536180000000  0.4414420000000 1.0
C      1  0.5402920000000  0.4405650000000  0.5338830000000 1.0
C      1  0.5425900000000  0.5127800000000  0.5699320000000 1.0
C      1  0.5389380000000  0.5666260000000  0.5083100000000 1.0
C      1  0.5400580000000  0.5288450000000  0.4382690000000 1.0
C      1  0.5380680000000  0.4504130000000  0.4546010000000 1.0
C      1  0.4972410000000  0.4507250000000  0.5648500000000 1.0
C      1  0.4981010000000  0.5468650000000  0.5680060000000 1.0
C      1  0.4938090000000  0.5765830000000  0.4779360000000 1.0
C      1  0.4960160000000  0.5032470000000  0.4198520000000 1.0
C      1  0.4940380000000  0.4254850000000  0.4735290000000 1.0
C      1  0.4870300000000  0.5389210000000  0.5224090000000 1.0
C      1  0.4986830000000  0.5309040000000  0.4659210000000 1.0
C      1  0.4956810000000  0.4780260000000  0.4625470000000 1.0
C      1  0.4909680000000  0.4624730000000  0.5133590000000 1.0
C      1  0.4912940000000  0.4903950000000  0.5461460000000 1.0
C      1  0.4833430000000  0.4997030000000  0.5968310000000 1.0
C      1  0.4787260000000  0.5906440000000  0.5313770000000 1.0
C      1  0.4811740000000  0.5590260000000  0.4238310000000 1.0
C      1  0.4782740000000  0.4509010000000  0.4190230000000 1.0
C      1  0.4806510000000  0.4093970000000  0.5284730000000 1.0
C      1  0.4679120000000  0.5199960000000  0.5075200000000 1.0
C      1  0.4694290000000  0.5223380000000  0.4772260000000 1.0
C      1  0.4672950000000  0.4914670000000  0.4672970000000 1.0
C      1  0.4652040000000  0.4704730000000  0.4932650000000 1.0
C      1  0.4660000000000  0.4918410000000  0.5207250000000 1.0
C      1  0.4272500000000  0.5326610000000  0.4770600000000 1.0
C      1  0.4244600000000  0.4878870000000  0.4600960000000 1.0
C      1  0.4238680000000  0.4589000000000  0.4977530000000 1.0
C      1  0.4282790000000  0.4844650000000  0.5383640000000 1.0
C      1  0.4280190000000  0.5286600000000  0.5245330000000 1.0
END
