TITL C-3577088-510-705 -5.77825473641367e-06 125000 -734.412280179884 0 0 118 (C1) n - 1
REM
REM in /home/bkarasulu/work/CARBON/AIRSS/Generating-Clusters/EDIP-Nigel-Params/with-SteepDescent/Higher-Symm/SD-CG/HFTN-CG
REM
REM
REM
REM
REM
REM ./C.cell (12c818d87b63d06a65506943cc24bca4)
REM
REM compiler GCC version 9.2.1 20190827 (Red Hat 9.2.1-1)
REM options -cpp -mtune=generic -march=x86-64 -g -O0 -fpre-include=/usr/include/finclude/math-vector-fortran.h
REM seed 697216939 -959505500 663840896 1388525654 -237789924 171920296 1460475545 -1035099391 -554244937 -53658614 -777115438 -307966778 -1650874793 -220688644 1657657063 783894322 -858023234 -1834940571 -671120315 1047010484 -1408965446 -457292838 136969972 645073156 955426215 -940914901 646249007 1109553619 -1674283913 587832062 -393023763 -1417468931 -2050997543
REM
CELL 1.54180   50.00000   50.00000   50.00000   90.00000   90.00000   90.00000
LATT -1
SFAC C  
C      1  0.4524400000000  0.4345880000000  0.5649450000000 1.0
C      1  0.5519510000000  0.4470130000000  0.4492580000000 1.0
C      1  0.5042410000000  0.5308030000000  0.5560320000000 1.0
C      1  0.5026260000000  0.5537100000000  0.5773170000000 1.0
C      1  0.5208400000000  0.5295960000000  0.4576130000000 1.0
C      1  0.4474930000000  0.4935990000000  0.4286370000000 1.0
C      1  0.4849970000000  0.5080790000000  0.4774890000000 1.0
C      1  0.4717670000000  0.4844070000000  0.4130010000000 1.0
C      1  0.5082850000000  0.4676800000000  0.4253610000000 1.0
C      1  0.4430920000000  0.4239160000000  0.4680410000000 1.0
C      1  0.4489770000000  0.5915150000000  0.4847110000000 1.0
C      1  0.4715850000000  0.5859550000000  0.4679300000000 1.0
C      1  0.5380540000000  0.5182300000000  0.5307520000000 1.0
C      1  0.5535030000000  0.5527090000000  0.4838610000000 1.0
C      1  0.5531360000000  0.4783380000000  0.5538670000000 1.0
C      1  0.4776300000000  0.5363080000000  0.4881040000000 1.0
C      1  0.4984880000000  0.5965600000000  0.5141960000000 1.0
C      1  0.4160370000000  0.4635940000000  0.4684820000000 1.0
C      1  0.4802590000000  0.4277390000000  0.5015130000000 1.0
C      1  0.6016770000000  0.5230480000000  0.5001450000000 1.0
C      1  0.4857450000000  0.4106810000000  0.4527590000000 1.0
C      1  0.4215760000000  0.5647540000000  0.4913720000000 1.0
C      1  0.3969610000000  0.4847840000000  0.5089250000000 1.0
C      1  0.5327300000000  0.4651940000000  0.4848440000000 1.0
C      1  0.5803970000000  0.4962640000000  0.4642170000000 1.0
C      1  0.4683890000000  0.5363240000000  0.5710480000000 1.0
C      1  0.4680780000000  0.4120960000000  0.5242000000000 1.0
C      1  0.5441230000000  0.4559610000000  0.5726070000000 1.0
C      1  0.5070810000000  0.4211930000000  0.4380570000000 1.0
C      1  0.5374670000000  0.4910240000000  0.4682380000000 1.0
C      1  0.5557840000000  0.4688660000000  0.4287960000000 1.0
C      1  0.5496310000000  0.5520390000000  0.5664040000000 1.0
C      1  0.4368230000000  0.4703340000000  0.4459240000000 1.0
C      1  0.5757660000000  0.4749880000000  0.4831080000000 1.0
C      1  0.5010920000000  0.4476000000000  0.5803700000000 1.0
C      1  0.5189390000000  0.4736070000000  0.5136510000000 1.0
C      1  0.5240670000000  0.4595300000000  0.5913430000000 1.0
C      1  0.4882410000000  0.4928140000000  0.5804850000000 1.0
C      1  0.5670840000000  0.5031130000000  0.5653670000000 1.0
C      1  0.5330780000000  0.4742680000000  0.4105070000000 1.0
C      1  0.4446310000000  0.4840410000000  0.4945630000000 1.0
C      1  0.4636590000000  0.5079440000000  0.5797120000000 1.0
C      1  0.5934690000000  0.5039360000000  0.5190110000000 1.0
C      1  0.4289800000000  0.4567590000000  0.5348990000000 1.0
C      1  0.5210380000000  0.4445670000000  0.5229730000000 1.0
C      1  0.5597380000000  0.5283060000000  0.5485930000000 1.0
C      1  0.5085790000000  0.4729310000000  0.4565080000000 1.0
C      1  0.4144570000000  0.4863780000000  0.4867200000000 1.0
C      1  0.4603430000000  0.4616910000000  0.5379610000000 1.0
C      1  0.5665770000000  0.4498150000000  0.4739620000000 1.0
C      1  0.4867590000000  0.5350590000000  0.4106090000000 1.0
C      1  0.4696900000000  0.4165890000000  0.4747720000000 1.0
C      1  0.4760030000000  0.5326600000000  0.4385370000000 1.0
C      1  0.4616650000000  0.4887270000000  0.4698300000000 1.0
C      1  0.5272200000000  0.5032980000000  0.4073650000000 1.0
C      1  0.4609760000000  0.4507640000000  0.4481020000000 1.0
C      1  0.5656850000000  0.5532340000000  0.4574960000000 1.0
C      1  0.5800100000000  0.5390240000000  0.5273430000000 1.0
C      1  0.5270910000000  0.4330620000000  0.4551410000000 1.0
C      1  0.4774060000000  0.5007780000000  0.5261620000000 1.0
C      1  0.4844710000000  0.5297220000000  0.5331920000000 1.0
C      1  0.4302030000000  0.4432900000000  0.4849070000000 1.0
C      1  0.5675630000000  0.4638390000000  0.5320000000000 1.0
C      1  0.5918090000000  0.5432120000000  0.4563450000000 1.0
C      1  0.4807690000000  0.5568220000000  0.4622820000000 1.0
C      1  0.4960930000000  0.5065360000000  0.4080390000000 1.0
C      1  0.5421790000000  0.5730090000000  0.5219720000000 1.0
C      1  0.4966400000000  0.5142730000000  0.4513470000000 1.0
C      1  0.5201910000000  0.5802550000000  0.5049240000000 1.0
C      1  0.5116100000000  0.5607460000000  0.4584520000000 1.0
C      1  0.4944710000000  0.6015400000000  0.4761620000000 1.0
C      1  0.4305110000000  0.5295410000000  0.4586220000000 1.0
C      1  0.4502900000000  0.5473670000000  0.5494730000000 1.0
C      1  0.4995260000000  0.4395120000000  0.4166040000000 1.0
C      1  0.5641410000000  0.5585630000000  0.5100350000000 1.0
C      1  0.5473930000000  0.5463620000000  0.4342920000000 1.0
C      1  0.5225280000000  0.5641900000000  0.4300130000000 1.0
C      1  0.5917690000000  0.5210680000000  0.4734230000000 1.0
C      1  0.5322970000000  0.5149030000000  0.5904650000000 1.0
C      1  0.4618450000000  0.5660090000000  0.5296380000000 1.0
C      1  0.4493640000000  0.5336470000000  0.5036990000000 1.0
C      1  0.5064340000000  0.5547130000000  0.4094690000000 1.0
C      1  0.4904730000000  0.4822710000000  0.5061650000000 1.0
C      1  0.4421280000000  0.5769890000000  0.5091570000000 1.0
C      1  0.4267380000000  0.5375700000000  0.4848590000000 1.0
C      1  0.4493670000000  0.5197520000000  0.4407880000000 1.0
C      1  0.5512380000000  0.4391370000000  0.5273450000000 1.0
C      1  0.4249690000000  0.4356010000000  0.5133630000000 1.0
C      1  0.4706990000000  0.4585220000000  0.5085530000000 1.0
C      1  0.4983620000000  0.5420290000000  0.5093970000000 1.0
C      1  0.5285610000000  0.4917280000000  0.5408430000000 1.0
C      1  0.5048390000000  0.4281980000000  0.5594580000000 1.0
C      1  0.5589990000000  0.5059090000000  0.5917820000000 1.0
C      1  0.4858130000000  0.5834180000000  0.5369660000000 1.0
C      1  0.4805740000000  0.4655200000000  0.4663630000000 1.0
C      1  0.5306720000000  0.5445610000000  0.5886030000000 1.0
C      1  0.5188020000000  0.5846400000000  0.4762670000000 1.0
C      1  0.4501100000000  0.5047030000000  0.5158920000000 1.0
C      1  0.5130000000000  0.5050380000000  0.5684940000000 1.0
C      1  0.5800860000000  0.4800330000000  0.5110760000000 1.0
C      1  0.4438510000000  0.4899850000000  0.5674730000000 1.0
C      1  0.5070950000000  0.5753730000000  0.5576110000000 1.0
C      1  0.4434750000000  0.4607430000000  0.5767940000000 1.0
C      1  0.4149350000000  0.4822010000000  0.5307210000000 1.0
C      1  0.5285030000000  0.5342500000000  0.5065380000000 1.0
C      1  0.4717960000000  0.4526310000000  0.4188140000000 1.0
C      1  0.5256260000000  0.4234490000000  0.4809660000000 1.0
C      1  0.4236090000000  0.5025480000000  0.5499820000000 1.0
C      1  0.5633520000000  0.4955580000000  0.4393270000000 1.0
C      1  0.5285970000000  0.5161960000000  0.4823210000000 1.0
C      1  0.5473040000000  0.5171010000000  0.4251700000000 1.0
C      1  0.5360120000000  0.5729150000000  0.5503430000000 1.0
C      1  0.4812070000000  0.4665900000000  0.5706450000000 1.0
C      1  0.4400960000000  0.4128050000000  0.5208700000000 1.0
C      1  0.4297380000000  0.5295380000000  0.5377910000000 1.0
C      1  0.4759690000000  0.4231000000000  0.5504740000000 1.0
C      1  0.5373040000000  0.4320820000000  0.5560870000000 1.0
C      1  0.5099020000000  0.4258090000000  0.5036090000000 1.0
END
