TITL C-3577090-796-71 -1.31287675059413e-06 125000 -1218.44889547254 0 0 192 (C1) n - 1
REM
REM in /home/bkarasulu/work/CARBON/AIRSS/Generating-Clusters/EDIP-Nigel-Params/with-SteepDescent/Higher-Symm/SD-CG/HFTN-CG
REM
REM
REM
REM
REM
REM ./C.cell (12c818d87b63d06a65506943cc24bca4)
REM
REM compiler GCC version 9.2.1 20190827 (Red Hat 9.2.1-1)
REM options -cpp -mtune=generic -march=x86-64 -g -O0 -fpre-include=/usr/include/finclude/math-vector-fortran.h
REM seed -1625944146 1690036568 -278528286 -374164888 -309470683 -645331622 -1240747897 703309592 -1133843001 -475707694 490047207 1741252614 839129933 1234354904 824203058 -370202690 -2010533120 -2005687901 -790565063 -637149309 1838962323 -21219161 599321063 -2082127406 827605648 -1745592632 428372698 228947743 608030141 1604700781 1964209720 -1889885603 1262467778
REM
CELL 1.54180   50.00000   50.00000   50.00000   90.00000   90.00000   90.00000
LATT -1
SFAC C  
C      1  0.5215720000000  0.5978780000000  0.5012880000000 1.0
C      1  0.5247300000000  0.5306180000000  0.5981190000000 1.0
C      1  0.5249020000000  0.4077710000000  0.5650680000000 1.0
C      1  0.5247050000000  0.4108630000000  0.4352250000000 1.0
C      1  0.5204370000000  0.5307550000000  0.4080100000000 1.0
C      1  0.4728420000000  0.3890820000000  0.5026500000000 1.0
C      1  0.4793100000000  0.4701450000000  0.5941940000000 1.0
C      1  0.4774840000000  0.5804380000000  0.5574130000000 1.0
C      1  0.4751250000000  0.5792020000000  0.4394620000000 1.0
C      1  0.4773050000000  0.4669390000000  0.4041440000000 1.0
C      1  0.5139160000000  0.5687170000000  0.5041710000000 1.0
C      1  0.5180030000000  0.5220870000000  0.5700750000000 1.0
C      1  0.5155170000000  0.4514110000000  0.5281170000000 1.0
C      1  0.5180720000000  0.4489450000000  0.4552980000000 1.0
C      1  0.5110990000000  0.5258680000000  0.4374900000000 1.0
C      1  0.4828900000000  0.4312420000000  0.5069650000000 1.0
C      1  0.4884170000000  0.4838230000000  0.5665200000000 1.0
C      1  0.4866830000000  0.5584090000000  0.5376050000000 1.0
C      1  0.4807770000000  0.5531130000000  0.4557680000000 1.0
C      1  0.4835680000000  0.4753980000000  0.4343400000000 1.0
C      1  0.5549490000000  0.5008240000000  0.4462600000000 1.0
C      1  0.5586550000000  0.5548920000000  0.4827070000000 1.0
C      1  0.5693220000000  0.5390520000000  0.5526980000000 1.0
C      1  0.5600790000000  0.4626520000000  0.5488670000000 1.0
C      1  0.5642860000000  0.4387310000000  0.4826240000000 1.0
C      1  0.4381890000000  0.4990270000000  0.4363980000000 1.0
C      1  0.4421260000000  0.4429840000000  0.4816060000000 1.0
C      1  0.4446190000000  0.4665710000000  0.5459190000000 1.0
C      1  0.4436610000000  0.5332020000000  0.5460250000000 1.0
C      1  0.4329870000000  0.5603750000000  0.4796080000000 1.0
C      1  0.5771720000000  0.5185050000000  0.5737570000000 1.0
C      1  0.5661410000000  0.4337010000000  0.5386580000000 1.0
C      1  0.5733840000000  0.4405740000000  0.4545500000000 1.0
C      1  0.5666530000000  0.5263370000000  0.4349360000000 1.0
C      1  0.5706850000000  0.5709650000000  0.5062650000000 1.0
C      1  0.4326060000000  0.4821870000000  0.5688170000000 1.0
C      1  0.4346970000000  0.5598300000000  0.5346590000000 1.0
C      1  0.4250360000000  0.5581580000000  0.4499370000000 1.0
C      1  0.4298270000000  0.4702700000000  0.4309050000000 1.0
C      1  0.4312060000000  0.4263060000000  0.5035430000000 1.0
C      1  0.4301200000000  0.5190230000000  0.5023820000000 1.0
C      1  0.4286600000000  0.5090760000000  0.5300230000000 1.0
C      1  0.4291780000000  0.4776380000000  0.5223800000000 1.0
C      1  0.4243830000000  0.4676650000000  0.4849350000000 1.0
C      1  0.4216320000000  0.5114770000000  0.4571600000000 1.0
C      1  0.5641500000000  0.4827050000000  0.4979400000000 1.0
C      1  0.5435930000000  0.5020430000000  0.5407210000000 1.0
C      1  0.5759330000000  0.5242290000000  0.5122210000000 1.0
C      1  0.5751310000000  0.5280260000000  0.4830870000000 1.0
C      1  0.5718880000000  0.4984520000000  0.4719870000000 1.0
C      1  0.5360790000000  0.3959410000000  0.5395810000000 1.0
C      1  0.5378570000000  0.4322790000000  0.4196200000000 1.0
C      1  0.5362110000000  0.5570380000000  0.4106920000000 1.0
C      1  0.5375880000000  0.6010990000000  0.5270420000000 1.0
C      1  0.5400230000000  0.5048790000000  0.6047210000000 1.0
C      1  0.4623470000000  0.6002400000000  0.5387180000000 1.0
C      1  0.4603930000000  0.5674630000000  0.4151280000000 1.0
C      1  0.4626590000000  0.4400730000000  0.4088890000000 1.0
C      1  0.4599550000000  0.3942440000000  0.5293590000000 1.0
C      1  0.4632210000000  0.4933840000000  0.6064470000000 1.0
C      1  0.3803400000000  0.4805820000000  0.5112980000000 1.0
C      1  0.3824220000000  0.4843330000000  0.4815310000000 1.0
C      1  0.3783720000000  0.5147830000000  0.4726420000000 1.0
C      1  0.3844930000000  0.5286780000000  0.4983170000000 1.0
C      1  0.3809910000000  0.5087480000000  0.5219070000000 1.0
C      1  0.6201450000000  0.5203460000000  0.5142050000000 1.0
C      1  0.6226050000000  0.5198660000000  0.4833950000000 1.0
C      1  0.6207680000000  0.4905310000000  0.4752820000000 1.0
C      1  0.6143500000000  0.4736800000000  0.4986120000000 1.0
C      1  0.6179930000000  0.4910710000000  0.5225230000000 1.0
C      1  0.4657090000000  0.5685300000000  0.5838790000000 1.0
C      1  0.4665490000000  0.4412730000000  0.5903740000000 1.0
C      1  0.4635200000000  0.3974910000000  0.4746520000000 1.0
C      1  0.4649730000000  0.4911960000000  0.3877650000000 1.0
C      1  0.4637770000000  0.6016840000000  0.4584390000000 1.0
C      1  0.5355350000000  0.4275460000000  0.5868890000000 1.0
C      1  0.5357800000000  0.5601020000000  0.5961630000000 1.0
C      1  0.5332540000000  0.6042150000000  0.4731300000000 1.0
C      1  0.5332790000000  0.5053250000000  0.3944520000000 1.0
C      1  0.5333530000000  0.4015620000000  0.4624620000000 1.0
C      1  0.5691150000000  0.5684970000000  0.5574470000000 1.0
C      1  0.5676300000000  0.4686540000000  0.5776980000000 1.0
C      1  0.5650310000000  0.4110860000000  0.4947990000000 1.0
C      1  0.5608090000000  0.4788380000000  0.4270840000000 1.0
C      1  0.5635830000000  0.5691930000000  0.4567880000000 1.0
C      1  0.4415750000000  0.4375840000000  0.5485040000000 1.0
C      1  0.4373360000000  0.5299620000000  0.5750920000000 1.0
C      1  0.4330430000000  0.5873050000000  0.4931690000000 1.0
C      1  0.4347990000000  0.5198640000000  0.4154810000000 1.0
C      1  0.4374510000000  0.4284290000000  0.4559940000000 1.0
C      1  0.5571650000000  0.5708850000000  0.5820770000000 1.0
C      1  0.5564660000000  0.4462750000000  0.5909830000000 1.0
C      1  0.5573540000000  0.3937550000000  0.4744070000000 1.0
C      1  0.5536660000000  0.4878930000000  0.4019710000000 1.0
C      1  0.5558360000000  0.5954010000000  0.4596520000000 1.0
C      1  0.4460830000000  0.4306500000000  0.5747800000000 1.0
C      1  0.4433670000000  0.5529680000000  0.5887800000000 1.0
C      1  0.4408460000000  0.6049840000000  0.4737390000000 1.0
C      1  0.4439140000000  0.5086980000000  0.3921710000000 1.0
C      1  0.4403350000000  0.4006630000000  0.4592510000000 1.0
C      1  0.5098190000000  0.3915650000000  0.4752950000000 1.0
C      1  0.5116500000000  0.4904460000000  0.3816550000000 1.0
C      1  0.5102060000000  0.6072160000000  0.4556380000000 1.0
C      1  0.5114290000000  0.5757200000000  0.5914050000000 1.0
C      1  0.5119360000000  0.4359040000000  0.6021530000000 1.0
C      1  0.4869200000000  0.6128310000000  0.4722810000000 1.0
C      1  0.4879940000000  0.5077620000000  0.3807720000000 1.0
C      1  0.4873490000000  0.3967600000000  0.4586600000000 1.0
C      1  0.4886000000000  0.4223480000000  0.5913230000000 1.0
C      1  0.4881780000000  0.5609560000000  0.6010260000000 1.0
C      1  0.4774120000000  0.3919080000000  0.5516660000000 1.0
C      1  0.4792990000000  0.4181420000000  0.4129580000000 1.0
C      1  0.4767970000000  0.5555450000000  0.3961150000000 1.0
C      1  0.4787760000000  0.6163350000000  0.5230830000000 1.0
C      1  0.4789300000000  0.5135000000000  0.6173090000000 1.0
C      1  0.5222960000000  0.6020910000000  0.5497090000000 1.0
C      1  0.5204500000000  0.5795840000000  0.4140080000000 1.0
C      1  0.5229410000000  0.4440360000000  0.3989630000000 1.0
C      1  0.5173670000000  0.3821920000000  0.5241540000000 1.0
C      1  0.5246700000000  0.4834330000000  0.6137860000000 1.0
C      1  0.4020380000000  0.5108290000000  0.5434060000000 1.0
C      1  0.4023730000000  0.4634310000000  0.5227530000000 1.0
C      1  0.3991020000000  0.4622590000000  0.4681640000000 1.0
C      1  0.3964790000000  0.5240680000000  0.4504260000000 1.0
C      1  0.4120920000000  0.5433370000000  0.4996970000000 1.0
C      1  0.5943460000000  0.4886470000000  0.5400990000000 1.0
C      1  0.5968010000000  0.5388600000000  0.5256800000000 1.0
C      1  0.6006080000000  0.5353720000000  0.4694890000000 1.0
C      1  0.5970380000000  0.4854030000000  0.4594850000000 1.0
C      1  0.5835270000000  0.4585900000000  0.4988740000000 1.0
C      1  0.4056210000000  0.4909820000000  0.5639140000000 1.0
C      1  0.4067400000000  0.4374690000000  0.5122830000000 1.0
C      1  0.4044880000000  0.4641750000000  0.4409280000000 1.0
C      1  0.3979350000000  0.5516570000000  0.4456890000000 1.0
C      1  0.4094740000000  0.5580360000000  0.5243470000000 1.0
C      1  0.5983260000000  0.5035660000000  0.5637090000000 1.0
C      1  0.5972660000000  0.5646590000000  0.5130280000000 1.0
C      1  0.5941180000000  0.5304820000000  0.4420250000000 1.0
C      1  0.5947750000000  0.4580970000000  0.4536280000000 1.0
C      1  0.5871870000000  0.4474170000000  0.5255480000000 1.0
C      1  0.5482440000000  0.4165380000000  0.5206870000000 1.0
C      1  0.5523240000000  0.4515970000000  0.4372700000000 1.0
C      1  0.5499260000000  0.5508350000000  0.4369190000000 1.0
C      1  0.5553430000000  0.5773320000000  0.5310300000000 1.0
C      1  0.5576320000000  0.4976250000000  0.5821790000000 1.0
C      1  0.4500680000000  0.5806300000000  0.5188310000000 1.0
C      1  0.4451590000000  0.5458920000000  0.4295940000000 1.0
C      1  0.4494470000000  0.4473030000000  0.4350700000000 1.0
C      1  0.4523850000000  0.4226630000000  0.5239190000000 1.0
C      1  0.4506550000000  0.5031760000000  0.5807280000000 1.0
C      1  0.5271360000000  0.5501460000000  0.4834970000000 1.0
C      1  0.5376290000000  0.5334120000000  0.5465900000000 1.0
C      1  0.5306630000000  0.4609330000000  0.5504080000000 1.0
C      1  0.5331630000000  0.4484080000000  0.4848540000000 1.0
C      1  0.5241350000000  0.5000850000000  0.4504330000000 1.0
C      1  0.4731300000000  0.4504800000000  0.4836660000000 1.0
C      1  0.4744110000000  0.4712410000000  0.5413480000000 1.0
C      1  0.4737090000000  0.5306560000000  0.5436440000000 1.0
C      1  0.4635310000000  0.5508390000000  0.4831620000000 1.0
C      1  0.4673020000000  0.5002120000000  0.4457800000000 1.0
C      1  0.5160110000000  0.4957410000000  0.4790910000000 1.0
C      1  0.5179620000000  0.5231740000000  0.4895890000000 1.0
C      1  0.5089360000000  0.5198960000000  0.5157100000000 1.0
C      1  0.5218040000000  0.4944710000000  0.5230510000000 1.0
C      1  0.5337490000000  0.4774070000000  0.4970020000000 1.0
C      1  0.4601820000000  0.5226560000000  0.4937280000000 1.0
C      1  0.4665020000000  0.4999460000000  0.4749960000000 1.0
C      1  0.4819780000000  0.4801160000000  0.4896870000000 1.0
C      1  0.4758490000000  0.4880790000000  0.5177790000000 1.0
C      1  0.4797180000000  0.5166950000000  0.5181910000000 1.0
C      1  0.5029660000000  0.5889340000000  0.4336880000000 1.0
C      1  0.5047040000000  0.5884900000000  0.5658320000000 1.0
C      1  0.5050430000000  0.4640330000000  0.6089410000000 1.0
C      1  0.5018250000000  0.3920070000000  0.5031020000000 1.0
C      1  0.5039640000000  0.4629840000000  0.3905150000000 1.0
C      1  0.4955300000000  0.4098850000000  0.4341670000000 1.0
C      1  0.4960440000000  0.4038410000000  0.5694470000000 1.0
C      1  0.4960440000000  0.5331670000000  0.6072380000000 1.0
C      1  0.4934810000000  0.6081350000000  0.5007220000000 1.0
C      1  0.4935600000000  0.5331400000000  0.3950050000000 1.0
C      1  0.5130050000000  0.4754340000000  0.4398250000000 1.0
C      1  0.5157750000000  0.5527440000000  0.4554630000000 1.0
C      1  0.5201710000000  0.5611330000000  0.5346980000000 1.0
C      1  0.5192870000000  0.4834990000000  0.5653860000000 1.0
C      1  0.5216830000000  0.4309580000000  0.5079380000000 1.0
C      1  0.4787890000000  0.5269610000000  0.4363150000000 1.0
C      1  0.4833380000000  0.4469620000000  0.4544260000000 1.0
C      1  0.4883930000000  0.4468270000000  0.5327300000000 1.0
C      1  0.4857540000000  0.5153220000000  0.5679380000000 1.0
C      1  0.4757800000000  0.5679320000000  0.5066740000000 1.0
C      1  0.4178000000000  0.4992610000000  0.4829430000000 1.0
C      1  0.5697700000000  0.4982740000000  0.5238010000000 1.0
END
