TITL C-3578209-2550-600 -2.59339254164533e-06 125000 -487.443953324541 0 0 80 (C3) n - 1
REM
REM in /home/bkarasulu/work/CARBON/AIRSS/Generating-Clusters/EDIP-Nigel-Params/with-SteepDescent/Higher-Symm/SD-CG/HFTN-CG
REM
REM
REM
REM
REM
REM ./C.cell (12c818d87b63d06a65506943cc24bca4)
REM
REM compiler GCC version 9.2.1 20190827 (Red Hat 9.2.1-1)
REM options -cpp -mtune=generic -march=x86-64 -g -O0 -fpre-include=/usr/include/finclude/math-vector-fortran.h
REM seed -1610473406 152453419 1196465768 -128592138 2942671 433903477 -2090507189 623902288 1300718883 -1821698777 -18337923 792474408 -2010522636 738998455 -1333882559 750364459 1451049950 -1854693973 -783196068 2118090840 -1679986373 2073710326 -575165609 180617314 -757109120 1103013767 1396928103 -520046749 553807170 1708608220 1656718351 1418789800 1216609210
REM
CELL 1.54180   50.00000   50.00000   50.00000   90.00000   90.00000   90.00000
LATT -1
SFAC C  
C      1  0.5112130000000  0.5735540000000  0.5490460000000 1.0
C      1  0.5359820000000  0.5736070000000  0.4658900000000 1.0
C      1  0.4515830000000  0.5734570000000  0.4860170000000 1.0
C      1  0.5248300000000  0.4281890000000  0.4671240000000 1.0
C      1  0.4586220000000  0.4280710000000  0.4952530000000 1.0
C      1  0.5160860000000  0.4281660000000  0.5385260000000 1.0
C      1  0.4936530000000  0.4540540000000  0.4381780000000 1.0
C      1  0.4490720000000  0.4539650000000  0.5366910000000 1.0
C      1  0.5566780000000  0.4541540000000  0.5260430000000 1.0
C      1  0.5760970000000  0.4776810000000  0.5494570000000 1.0
C      1  0.5041570000000  0.4775720000000  0.4096210000000 1.0
C      1  0.4190260000000  0.4774090000000  0.5418410000000 1.0
C      1  0.5227830000000  0.5269890000000  0.5710420000000 1.0
C      1  0.5493730000000  0.5270490000000  0.4449340000000 1.0
C      1  0.4268660000000  0.5268310000000  0.4849610000000 1.0
C      1  0.4473670000000  0.4725820000000  0.5083910000000 1.0
C      1  0.5329710000000  0.4727270000000  0.5416450000000 1.0
C      1  0.5189680000000  0.4727130000000  0.4508830000000 1.0
C      1  0.4370180000000  0.5522020000000  0.4644930000000 1.0
C      1  0.4999130000000  0.5522990000000  0.5724500000000 1.0
C      1  0.5619580000000  0.5524200000000  0.4640020000000 1.0
C      1  0.5791570000000  0.4912690000000  0.5031900000000 1.0
C      1  0.4625210000000  0.4910740000000  0.4300870000000 1.0
C      1  0.4575310000000  0.4910500000000  0.5676480000000 1.0
C      1  0.4913770000000  0.4153230000000  0.5271620000000 1.0
C      1  0.5273770000000  0.4153890000000  0.4942230000000 1.0
C      1  0.4808510000000  0.4153100000000  0.4795150000000 1.0
C      1  0.5699290000000  0.5372670000000  0.4896000000000 1.0
C      1  0.4552420000000  0.5370720000000  0.4448120000000 1.0
C      1  0.4737980000000  0.5370910000000  0.5665280000000 1.0
C      1  0.4566940000000  0.5449820000000  0.5435190000000 1.0
C      1  0.5585320000000  0.5451630000000  0.5159060000000 1.0
C      1  0.4837000000000  0.5450410000000  0.4415180000000 1.0
C      1  0.4971390000000  0.4295060000000  0.4577620000000 1.0
C      1  0.4643560000000  0.4294410000000  0.5239130000000 1.0
C      1  0.5380360000000  0.4295700000000  0.5192290000000 1.0
C      1  0.5369660000000  0.5638490000000  0.5090280000000 1.0
C      1  0.4884760000000  0.5637700000000  0.4636090000000 1.0
C      1  0.4733870000000  0.5637360000000  0.5283130000000 1.0
C      1  0.4210690000000  0.5159130000000  0.5120360000000 1.0
C      1  0.5491590000000  0.5161300000000  0.5625390000000 1.0
C      1  0.5288510000000  0.5161100000000  0.4263580000000 1.0
C      1  0.4526730000000  0.5421770000000  0.4960700000000 1.0
C      1  0.5194590000000  0.5422880000000  0.5431170000000 1.0
C      1  0.5268100000000  0.5423100000000  0.4617550000000 1.0
C      1  0.5284560000000  0.5010050000000  0.4938250000000 1.0
C      1  0.4797350000000  0.5009220000000  0.4786650000000 1.0
C      1  0.4909670000000  0.5009360000000  0.5284390000000 1.0
C      1  0.5004090000000  0.5215110000000  0.4327710000000 1.0
C      1  0.4408290000000  0.5213960000000  0.5334530000000 1.0
C      1  0.5578120000000  0.5215990000000  0.5347100000000 1.0
C      1  0.4461600000000  0.4522300000000  0.4859510000000 1.0
C      1  0.5141960000000  0.4523410000000  0.5539370000000 1.0
C      1  0.5390560000000  0.4523950000000  0.4610230000000 1.0
C      1  0.4871020000000  0.5000590000000  0.4174010000000 1.0
C      1  0.4342300000000  0.4999520000000  0.5526910000000 1.0
C      1  0.5778300000000  0.5002050000000  0.5308350000000 1.0
C      1  0.4473330000000  0.4566850000000  0.4588250000000 1.0
C      1  0.4901050000000  0.4567480000000  0.5664790000000 1.0
C      1  0.5619500000000  0.4568830000000  0.4756100000000 1.0
C      1  0.4780730000000  0.5321310000000  0.4826620000000 1.0
C      1  0.4951750000000  0.5321550000000  0.5278380000000 1.0
C      1  0.5257470000000  0.5322130000000  0.4904390000000 1.0
C      1  0.5130010000000  0.5786920000000  0.5187190000000 1.0
C      1  0.5088110000000  0.5786890000000  0.4794980000000 1.0
C      1  0.4769400000000  0.5786310000000  0.5027370000000 1.0
C      1  0.5088560000000  0.4914250000000  0.4731110000000 1.0
C      1  0.4716230000000  0.4913560000000  0.5060090000000 1.0
C      1  0.5187290000000  0.4914370000000  0.5218050000000 1.0
C      1  0.4651670000000  0.4637120000000  0.4389530000000 1.0
C      1  0.4639600000000  0.4636960000000  0.5609610000000 1.0
C      1  0.5702250000000  0.4638880000000  0.5010020000000 1.0
C      1  0.5644700000000  0.5089000000000  0.4860540000000 1.0
C      1  0.4549770000000  0.5087130000000  0.4513500000000 1.0
C      1  0.4796690000000  0.5087430000000  0.5635270000000 1.0
C      1  0.4186100000000  0.4862190000000  0.5134450000000 1.0
C      1  0.5516900000000  0.4864450000000  0.5640040000000 1.0
C      1  0.5289340000000  0.4864220000000  0.4234740000000 1.0
C      1  0.4998880000000  0.4042510000000  0.5002980000000 1.0
C      1  0.4996490000000  0.5410540000000  0.5003140000000 1.0
END
