TITL C-3578207-9274-443 -4.31862901496151e-06 125000 -892.945100379404 0 0 147 (C1) n - 1
REM
REM in /home/bkarasulu/work/CARBON/AIRSS/Generating-Clusters/EDIP-Nigel-Params/with-SteepDescent/Higher-Symm/SD-CG/HFTN-CG
REM
REM
REM
REM
REM
REM ./C.cell (12c818d87b63d06a65506943cc24bca4)
REM
REM compiler GCC version 9.2.1 20190827 (Red Hat 9.2.1-1)
REM options -cpp -mtune=generic -march=x86-64 -g -O0 -fpre-include=/usr/include/finclude/math-vector-fortran.h
REM seed -432977253 1923348844 126254149 -1160994908 -1776114059 1678065160 -2068210523 821976501 132596653 -1832986450 1980106572 1809206495 1587801512 -220901480 -527842777 -1989360852 -2135416369 1909143816 907404325 1074584693 -834770381 -1810534710 -814462277 -1123315383 985336143 -1209481972 1744278448 -365313937 1597188326 112824573 -451035240 1504933506 -1825185439
REM
CELL 1.54180   50.00000   50.00000   50.00000   90.00000   90.00000   90.00000
LATT -1
SFAC C  
C      1  0.5745830000000  0.4793140000000  0.4741410000000 1.0
C      1  0.5793200000000  0.5308300000000  0.4726880000000 1.0
C      1  0.5532000000000  0.5663670000000  0.4740990000000 1.0
C      1  0.5056910000000  0.5880420000000  0.4724230000000 1.0
C      1  0.4626300000000  0.5727710000000  0.4733060000000 1.0
C      1  0.4272970000000  0.5401770000000  0.4656780000000 1.0
C      1  0.4194810000000  0.4978070000000  0.4734240000000 1.0
C      1  0.4326280000000  0.4467410000000  0.4719480000000 1.0
C      1  0.4726610000000  0.4214100000000  0.4728310000000 1.0
C      1  0.5181660000000  0.4158970000000  0.4735170000000 1.0
C      1  0.5558960000000  0.4403890000000  0.4662080000000 1.0
C      1  0.5348310000000  0.4641740000000  0.4641030000000 1.0
C      1  0.5469950000000  0.4956590000000  0.4801610000000 1.0
C      1  0.5481600000000  0.5225650000000  0.4654500000000 1.0
C      1  0.5285560000000  0.5462410000000  0.4778030000000 1.0
C      1  0.5029480000000  0.5570280000000  0.4641180000000 1.0
C      1  0.4730470000000  0.5420860000000  0.4779750000000 1.0
C      1  0.4541610000000  0.5230740000000  0.4628630000000 1.0
C      1  0.4511730000000  0.4907600000000  0.4775910000000 1.0
C      1  0.4573160000000  0.4647230000000  0.4623890000000 1.0
C      1  0.4826390000000  0.4500590000000  0.4719780000000 1.0
C      1  0.5126180000000  0.4486310000000  0.4798320000000 1.0
C      1  0.4935480000000  0.6089400000000  0.4557980000000 1.0
C      1  0.4419550000000  0.5795970000000  0.4534440000000 1.0
C      1  0.4013500000000  0.5331760000000  0.4532320000000 1.0
C      1  0.4035350000000  0.4846030000000  0.4524860000000 1.0
C      1  0.4230860000000  0.4255510000000  0.4543770000000 1.0
C      1  0.4817420000000  0.4016530000000  0.4529350000000 1.0
C      1  0.5379130000000  0.4017050000000  0.4566110000000 1.0
C      1  0.5821060000000  0.4409680000000  0.4528150000000 1.0
C      1  0.5923320000000  0.4871120000000  0.4518470000000 1.0
C      1  0.5941280000000  0.5495490000000  0.4555520000000 1.0
C      1  0.5533120000000  0.5871360000000  0.4533060000000 1.0
C      1  0.4218660000000  0.4780470000000  0.5129910000000 1.0
C      1  0.4437070000000  0.4354010000000  0.5128040000000 1.0
C      1  0.4848910000000  0.4130430000000  0.5133190000000 1.0
C      1  0.5319640000000  0.4257180000000  0.5139260000000 1.0
C      1  0.5649670000000  0.4535700000000  0.5178410000000 1.0
C      1  0.5817950000000  0.4988630000000  0.5131740000000 1.0
C      1  0.5725840000000  0.5422610000000  0.5151170000000 1.0
C      1  0.5350840000000  0.5762760000000  0.5131230000000 1.0
C      1  0.4910980000000  0.5835780000000  0.5138010000000 1.0
C      1  0.4468830000000  0.5597200000000  0.5125810000000 1.0
C      1  0.4219870000000  0.5224190000000  0.5168580000000 1.0
C      1  0.5809010000000  0.4718620000000  0.5565740000000 1.0
C      1  0.5808990000000  0.5201620000000  0.5591620000000 1.0
C      1  0.5574870000000  0.5641740000000  0.5561830000000 1.0
C      1  0.5145040000000  0.5900470000000  0.5557500000000 1.0
C      1  0.4659140000000  0.5831990000000  0.5543240000000 1.0
C      1  0.4398060000000  0.5427820000000  0.5583670000000 1.0
C      1  0.4257800000000  0.4936200000000  0.5589420000000 1.0
C      1  0.4247160000000  0.4449680000000  0.5544260000000 1.0
C      1  0.4565040000000  0.4071540000000  0.5486630000000 1.0
C      1  0.5051000000000  0.4128990000000  0.5542710000000 1.0
C      1  0.5511810000000  0.4333420000000  0.5588480000000 1.0
C      1  0.4950260000000  0.4557910000000  0.5894370000000 1.0
C      1  0.5230040000000  0.4632320000000  0.5913660000000 1.0
C      1  0.5307380000000  0.4874520000000  0.6028910000000 1.0
C      1  0.5455090000000  0.5098650000000  0.5959770000000 1.0
C      1  0.5360210000000  0.5340100000000  0.6051670000000 1.0
C      1  0.5159400000000  0.5502080000000  0.5954730000000 1.0
C      1  0.4909470000000  0.5459770000000  0.6059840000000 1.0
C      1  0.4700660000000  0.5324410000000  0.5944470000000 1.0
C      1  0.4586260000000  0.5108590000000  0.6069750000000 1.0
C      1  0.4585080000000  0.4861490000000  0.5948840000000 1.0
C      1  0.4759120000000  0.4676120000000  0.6055300000000 1.0
C      1  0.4825630000000  0.4009490000000  0.5399240000000 1.0
C      1  0.5327490000000  0.4152080000000  0.5425480000000 1.0
C      1  0.5764880000000  0.4443610000000  0.5438570000000 1.0
C      1  0.5927340000000  0.4969490000000  0.5423170000000 1.0
C      1  0.5783340000000  0.5468900000000  0.5443110000000 1.0
C      1  0.5393860000000  0.5828370000000  0.5423140000000 1.0
C      1  0.4894250000000  0.5952860000000  0.5411920000000 1.0
C      1  0.4429100000000  0.5679740000000  0.5422190000000 1.0
C      1  0.4227020000000  0.5210280000000  0.5460970000000 1.0
C      1  0.4154280000000  0.4709960000000  0.5425990000000 1.0
C      1  0.4357510000000  0.4236410000000  0.5384670000000 1.0
C      1  0.4603870000000  0.4579270000000  0.5521420000000 1.0
C      1  0.4862240000000  0.4443460000000  0.5635320000000 1.0
C      1  0.5360200000000  0.4582180000000  0.5661280000000 1.0
C      1  0.5517020000000  0.4806040000000  0.5550980000000 1.0
C      1  0.5528070000000  0.5102910000000  0.5671040000000 1.0
C      1  0.5373570000000  0.5317740000000  0.5518710000000 1.0
C      1  0.5165020000000  0.5533660000000  0.5660130000000 1.0
C      1  0.4887040000000  0.5526150000000  0.5524040000000 1.0
C      1  0.4676490000000  0.5336160000000  0.5649950000000 1.0
C      1  0.4707190000000  0.5072130000000  0.5506570000000 1.0
C      1  0.4543460000000  0.4859730000000  0.5651240000000 1.0
C      1  0.5468900000000  0.6049210000000  0.4733170000000 1.0
C      1  0.4777730000000  0.6148460000000  0.4778230000000 1.0
C      1  0.4246810000000  0.5825140000000  0.4748470000000 1.0
C      1  0.3908710000000  0.5333200000000  0.4790710000000 1.0
C      1  0.3937150000000  0.4684120000000  0.4725620000000 1.0
C      1  0.4289100000000  0.4080470000000  0.4749400000000 1.0
C      1  0.4876940000000  0.3849490000000  0.4741580000000 1.0
C      1  0.5528990000000  0.3985860000000  0.4795320000000 1.0
C      1  0.5940610000000  0.4384210000000  0.4777760000000 1.0
C      1  0.6089110000000  0.4979170000000  0.4710970000000 1.0
C      1  0.5970410000000  0.5652100000000  0.4783190000000 1.0
C      1  0.5123540000000  0.4489890000000  0.4216650000000 1.0
C      1  0.5280240000000  0.4687580000000  0.4356240000000 1.0
C      1  0.5352740000000  0.4936220000000  0.4224270000000 1.0
C      1  0.5418640000000  0.5191180000000  0.4359060000000 1.0
C      1  0.5294190000000  0.5425360000000  0.4216950000000 1.0
C      1  0.5035920000000  0.5525400000000  0.4342970000000 1.0
C      1  0.4795170000000  0.5406140000000  0.4207280000000 1.0
C      1  0.4626060000000  0.5204890000000  0.4343470000000 1.0
C      1  0.4604930000000  0.4952720000000  0.4198480000000 1.0
C      1  0.4595310000000  0.4688630000000  0.4325500000000 1.0
C      1  0.4738850000000  0.4477800000000  0.4190560000000 1.0
C      1  0.5748400000000  0.5664300000000  0.4968800000000 1.0
C      1  0.5269730000000  0.5973580000000  0.4923420000000 1.0
C      1  0.4693120000000  0.5933780000000  0.4951190000000 1.0
C      1  0.4244370000000  0.5591470000000  0.4920690000000 1.0
C      1  0.4053080000000  0.5143830000000  0.4944640000000 1.0
C      1  0.4120900000000  0.4579770000000  0.4918430000000 1.0
C      1  0.4510660000000  0.4134630000000  0.4934600000000 1.0
C      1  0.5034980000000  0.3984450000000  0.4941130000000 1.0
C      1  0.5564770000000  0.4235570000000  0.4946880000000 1.0
C      1  0.5841610000000  0.4589070000000  0.4947680000000 1.0
C      1  0.5967350000000  0.5138600000000  0.4914690000000 1.0
C      1  0.4640030000000  0.4571200000000  0.5210040000000 1.0
C      1  0.4914960000000  0.4417260000000  0.5243950000000 1.0
C      1  0.5169840000000  0.4517120000000  0.5107520000000 1.0
C      1  0.5432490000000  0.4759180000000  0.5251370000000 1.0
C      1  0.5512550000000  0.5008010000000  0.5101250000000 1.0
C      1  0.5438650000000  0.5302030000000  0.5214930000000 1.0
C      1  0.5234610000000  0.5481440000000  0.5080530000000 1.0
C      1  0.4925450000000  0.5530500000000  0.5211610000000 1.0
C      1  0.4687800000000  0.5391220000000  0.5082610000000 1.0
C      1  0.4585910000000  0.5117890000000  0.5223760000000 1.0
C      1  0.4518480000000  0.4851150000000  0.5080870000000 1.0
C      1  0.4651440000000  0.5205980000000  0.3779180000000 1.0
C      1  0.4645340000000  0.4962440000000  0.3913490000000 1.0
C      1  0.4690580000000  0.4722760000000  0.3781610000000 1.0
C      1  0.4802610000000  0.4496490000000  0.3906730000000 1.0
C      1  0.5096530000000  0.4502100000000  0.3928020000000 1.0
C      1  0.5223760000000  0.4722940000000  0.3809960000000 1.0
C      1  0.5324650000000  0.4946270000000  0.3938980000000 1.0
C      1  0.5406430000000  0.5174280000000  0.3801480000000 1.0
C      1  0.5269100000000  0.5387050000000  0.3922710000000 1.0
C      1  0.5042470000000  0.5499410000000  0.3796480000000 1.0
C      1  0.4826490000000  0.5369910000000  0.3920530000000 1.0
C      1  0.5068950000000  0.5006920000000  0.5229670000000 1.0
C      1  0.5060360000000  0.5011640000000  0.4965260000000 1.0
C      1  0.4980730000000  0.5000630000000  0.5480320000000 1.0
C      1  0.4937460000000  0.5028090000000  0.4741690000000 1.0
END
