TITL C-3577084-3642-89 -2.33791552162178e-06 125000 -1029.55901516554 0 0 164 (C1) n - 1
REM
REM in /home/bkarasulu/work/CARBON/AIRSS/Generating-Clusters/EDIP-Nigel-Params/with-SteepDescent/Higher-Symm/SD-CG/HFTN-CG
REM
REM
REM
REM
REM
REM ./C.cell (12c818d87b63d06a65506943cc24bca4)
REM
REM compiler GCC version 9.2.1 20190827 (Red Hat 9.2.1-1)
REM options -cpp -mtune=generic -march=x86-64 -g -O0 -fpre-include=/usr/include/finclude/math-vector-fortran.h
REM seed 433296726 1534846353 -1536738586 1298732806 -652654727 326917104 -1671535869 -282185553 418166606 -1492364180 -333426241 -844765764 -199015868 1690183616 -679552701 739355595 493847037 -492092757 1701021010 -124095140 1836368712 -387812177 528529334 812698932 -182279418 1349473798 -1606722013 577426918 1079492436 2132570411 -1022791213 -78526984 -1593957804
REM
CELL 1.54180   50.00000   50.00000   50.00000   90.00000   90.00000   90.00000
LATT -1
SFAC C  
C      1  0.5613380000000  0.4879500000000  0.4748630000000 1.0
C      1  0.5522000000000  0.5382740000000  0.4720600000000 1.0
C      1  0.5027020000000  0.5621430000000  0.4701220000000 1.0
C      1  0.4519420000000  0.5356420000000  0.4733060000000 1.0
C      1  0.4372730000000  0.4845920000000  0.4749970000000 1.0
C      1  0.4724720000000  0.4454640000000  0.4746210000000 1.0
C      1  0.5260210000000  0.4476580000000  0.4735170000000 1.0
C      1  0.5433660000000  0.5329820000000  0.4994290000000 1.0
C      1  0.5035550000000  0.5528610000000  0.4981050000000 1.0
C      1  0.4611850000000  0.5325940000000  0.5013100000000 1.0
C      1  0.4442760000000  0.4874540000000  0.5042980000000 1.0
C      1  0.4762660000000  0.4513300000000  0.5029770000000 1.0
C      1  0.5213070000000  0.4577850000000  0.5002170000000 1.0
C      1  0.5574490000000  0.4900140000000  0.5043220000000 1.0
C      1  0.5346260000000  0.5238380000000  0.4504830000000 1.0
C      1  0.5047760000000  0.5362500000000  0.4511320000000 1.0
C      1  0.4691200000000  0.5192080000000  0.4528450000000 1.0
C      1  0.4594040000000  0.4890510000000  0.4527170000000 1.0
C      1  0.4830200000000  0.4689870000000  0.4571460000000 1.0
C      1  0.5152080000000  0.4685630000000  0.4525560000000 1.0
C      1  0.5354670000000  0.4933950000000  0.4574720000000 1.0
C      1  0.4491570000000  0.5134660000000  0.5191440000000 1.0
C      1  0.4550850000000  0.4637470000000  0.5190810000000 1.0
C      1  0.5013660000000  0.4452900000000  0.5167910000000 1.0
C      1  0.5392380000000  0.4714210000000  0.5180250000000 1.0
C      1  0.5587080000000  0.5164460000000  0.5173670000000 1.0
C      1  0.5280040000000  0.5531290000000  0.5135090000000 1.0
C      1  0.4793670000000  0.5524900000000  0.5147520000000 1.0
C      1  0.5154330000000  0.5328440000000  0.5841960000000 1.0
C      1  0.4855200000000  0.5303300000000  0.5706610000000 1.0
C      1  0.4627210000000  0.4994840000000  0.5772240000000 1.0
C      1  0.4684730000000  0.4685500000000  0.5849980000000 1.0
C      1  0.5093540000000  0.4605570000000  0.5701870000000 1.0
C      1  0.5324210000000  0.4782290000000  0.5834790000000 1.0
C      1  0.5394140000000  0.5093380000000  0.5736830000000 1.0
C      1  0.3914940000000  0.5070000000000  0.5176570000000 1.0
C      1  0.4347550000000  0.4306180000000  0.5197830000000 1.0
C      1  0.5089430000000  0.4144020000000  0.5188820000000 1.0
C      1  0.5954980000000  0.4436330000000  0.5168370000000 1.0
C      1  0.5878770000000  0.5302900000000  0.5174870000000 1.0
C      1  0.5301190000000  0.5918240000000  0.5159270000000 1.0
C      1  0.4424280000000  0.5762590000000  0.5182740000000 1.0
C      1  0.5919040000000  0.5495450000000  0.4939000000000 1.0
C      1  0.5118400000000  0.6033240000000  0.4923040000000 1.0
C      1  0.4286460000000  0.5724260000000  0.4919390000000 1.0
C      1  0.3929440000000  0.4904280000000  0.4921270000000 1.0
C      1  0.4403870000000  0.4149430000000  0.4944030000000 1.0
C      1  0.5280560000000  0.4059320000000  0.4957540000000 1.0
C      1  0.5983890000000  0.4614840000000  0.4915140000000 1.0
C      1  0.4708860000000  0.4760090000000  0.5422090000000 1.0
C      1  0.4995130000000  0.4654120000000  0.5427160000000 1.0
C      1  0.5190780000000  0.4889140000000  0.5339040000000 1.0
C      1  0.5359330000000  0.5136440000000  0.5434200000000 1.0
C      1  0.5209530000000  0.5401220000000  0.5394680000000 1.0
C      1  0.4911330000000  0.5405750000000  0.5419480000000 1.0
C      1  0.4730730000000  0.5061620000000  0.5362020000000 1.0
C      1  0.5582650000000  0.4645300000000  0.5806610000000 1.0
C      1  0.5679030000000  0.5145550000000  0.5771800000000 1.0
C      1  0.5270780000000  0.5594110000000  0.5784930000000 1.0
C      1  0.4680030000000  0.5511810000000  0.5831510000000 1.0
C      1  0.4347320000000  0.5065000000000  0.5852490000000 1.0
C      1  0.4450020000000  0.4516900000000  0.5806770000000 1.0
C      1  0.4984440000000  0.4366150000000  0.5830730000000 1.0
C      1  0.5534260000000  0.4477300000000  0.5357870000000 1.0
C      1  0.6048280000000  0.4975220000000  0.5440920000000 1.0
C      1  0.5626860000000  0.5723670000000  0.5441190000000 1.0
C      1  0.4814760000000  0.5834060000000  0.5453510000000 1.0
C      1  0.4241070000000  0.5313160000000  0.5343370000000 1.0
C      1  0.4068150000000  0.4549900000000  0.5471680000000 1.0
C      1  0.4738730000000  0.4052290000000  0.5469800000000 1.0
C      1  0.4014020000000  0.5352150000000  0.5150050000000 1.0
C      1  0.4128630000000  0.4501840000000  0.5190050000000 1.0
C      1  0.4828470000000  0.3998660000000  0.5191890000000 1.0
C      1  0.5694130000000  0.4287440000000  0.5179240000000 1.0
C      1  0.6069190000000  0.5074210000000  0.5163520000000 1.0
C      1  0.5593630000000  0.5833500000000  0.5168070000000 1.0
C      1  0.4687890000000  0.5896890000000  0.5185470000000 1.0
C      1  0.4612550000000  0.5737180000000  0.5643980000000 1.0
C      1  0.4125820000000  0.5151960000000  0.5666640000000 1.0
C      1  0.4239910000000  0.4395410000000  0.5657550000000 1.0
C      1  0.4962090000000  0.4124960000000  0.5651250000000 1.0
C      1  0.5709210000000  0.4596240000000  0.5557180000000 1.0
C      1  0.5926060000000  0.5174410000000  0.5631620000000 1.0
C      1  0.5401660000000  0.5789050000000  0.5619100000000 1.0
C      1  0.4396730000000  0.4833540000000  0.4000350000000 1.0
C      1  0.4727220000000  0.4431560000000  0.3998310000000 1.0
C      1  0.5254620000000  0.4485800000000  0.4010290000000 1.0
C      1  0.5602430000000  0.4879510000000  0.3987150000000 1.0
C      1  0.5482610000000  0.5391520000000  0.3985600000000 1.0
C      1  0.4994280000000  0.5595410000000  0.4001370000000 1.0
C      1  0.4523830000000  0.5346760000000  0.4001080000000 1.0
C      1  0.4586040000000  0.5081230000000  0.6147010000000 1.0
C      1  0.4694730000000  0.4783830000000  0.6154880000000 1.0
C      1  0.4962990000000  0.4617770000000  0.6117880000000 1.0
C      1  0.5208940000000  0.4789270000000  0.6114440000000 1.0
C      1  0.5164520000000  0.5041370000000  0.6221270000000 1.0
C      1  0.5066000000000  0.5282140000000  0.6124640000000 1.0
C      1  0.4773990000000  0.5316900000000  0.6140070000000 1.0
C      1  0.4015940000000  0.4608390000000  0.4936040000000 1.0
C      1  0.4676800000000  0.4014250000000  0.4930210000000 1.0
C      1  0.5570410000000  0.4169580000000  0.4926860000000 1.0
C      1  0.6068360000000  0.4912880000000  0.4908210000000 1.0
C      1  0.5735680000000  0.5744740000000  0.4914360000000 1.0
C      1  0.4820090000000  0.5996870000000  0.4925650000000 1.0
C      1  0.4078480000000  0.5497140000000  0.4890420000000 1.0
C      1  0.4380830000000  0.4325420000000  0.4338330000000 1.0
C      1  0.5120770000000  0.4155990000000  0.4329220000000 1.0
C      1  0.5769920000000  0.4564650000000  0.4331050000000 1.0
C      1  0.5846120000000  0.5323520000000  0.4309260000000 1.0
C      1  0.5245850000000  0.5833450000000  0.4388110000000 1.0
C      1  0.4492940000000  0.5709490000000  0.4318320000000 1.0
C      1  0.4103710000000  0.5041170000000  0.4337380000000 1.0
C      1  0.4208350000000  0.4558510000000  0.4395440000000 1.0
C      1  0.4838190000000  0.4141520000000  0.4401000000000 1.0
C      1  0.5565790000000  0.4358940000000  0.4393770000000 1.0
C      1  0.5895940000000  0.5040800000000  0.4377040000000 1.0
C      1  0.5523200000000  0.5710350000000  0.4393800000000 1.0
C      1  0.4754200000000  0.5834720000000  0.4380890000000 1.0
C      1  0.4188400000000  0.5325760000000  0.4390260000000 1.0
C      1  0.4316500000000  0.4179750000000  0.5470300000000 1.0
C      1  0.5190050000000  0.4114810000000  0.5465520000000 1.0
C      1  0.5981350000000  0.4540720000000  0.5455290000000 1.0
C      1  0.5934800000000  0.5405650000000  0.5451410000000 1.0
C      1  0.5236970000000  0.5963100000000  0.5449410000000 1.0
C      1  0.4372520000000  0.5712810000000  0.5472910000000 1.0
C      1  0.3976470000000  0.4980810000000  0.5460710000000 1.0
C      1  0.4845220000000  0.4176560000000  0.4701740000000 1.0
C      1  0.5551530000000  0.4384640000000  0.4699190000000 1.0
C      1  0.5873650000000  0.5042300000000  0.4683710000000 1.0
C      1  0.5523310000000  0.5676620000000  0.4696510000000 1.0
C      1  0.4772340000000  0.5803860000000  0.4685890000000 1.0
C      1  0.4215050000000  0.5306860000000  0.4695170000000 1.0
C      1  0.4229460000000  0.4578540000000  0.4704190000000 1.0
C      1  0.5871980000000  0.5658490000000  0.5550940000000 1.0
C      1  0.4986830000000  0.6030240000000  0.5546620000000 1.0
C      1  0.4190750000000  0.5518020000000  0.5561330000000 1.0
C      1  0.3878820000000  0.4737260000000  0.5555430000000 1.0
C      1  0.4489130000000  0.3979430000000  0.5566430000000 1.0
C      1  0.5367770000000  0.4313900000000  0.5514780000000 1.0
C      1  0.6179620000000  0.4734890000000  0.5511180000000 1.0
C      1  0.5550340000000  0.5137520000000  0.3901220000000 1.0
C      1  0.5236040000000  0.5494090000000  0.3915200000000 1.0
C      1  0.4759720000000  0.5469590000000  0.3919340000000 1.0
C      1  0.4469380000000  0.5087840000000  0.3921070000000 1.0
C      1  0.4548420000000  0.4621540000000  0.3908610000000 1.0
C      1  0.4992950000000  0.4461780000000  0.3923440000000 1.0
C      1  0.5422820000000  0.4682850000000  0.3913430000000 1.0
C      1  0.4659090000000  0.4326860000000  0.4259220000000 1.0
C      1  0.5280820000000  0.4402390000000  0.4290520000000 1.0
C      1  0.5727980000000  0.4837000000000  0.4244410000000 1.0
C      1  0.5575530000000  0.5436090000000  0.4260710000000 1.0
C      1  0.4999770000000  0.5720260000000  0.4261820000000 1.0
C      1  0.4435060000000  0.5431610000000  0.4261640000000 1.0
C      1  0.4300780000000  0.4824560000000  0.4279870000000 1.0
C      1  0.5146870000000  0.4190650000000  0.4718070000000 1.0
C      1  0.5750440000000  0.4609910000000  0.4709450000000 1.0
C      1  0.5818550000000  0.5340770000000  0.4694640000000 1.0
C      1  0.5197250000000  0.5967380000000  0.4646710000000 1.0
C      1  0.4498280000000  0.5659560000000  0.4697220000000 1.0
C      1  0.4126970000000  0.5016900000000  0.4704300000000 1.0
C      1  0.4432660000000  0.4353870000000  0.4717970000000 1.0
C      1  0.4976700000000  0.5033400000000  0.5194730000000 1.0
C      1  0.4978470000000  0.5092380000000  0.4925100000000 1.0
C      1  0.4954550000000  0.5107830000000  0.4649750000000 1.0
END
