TITL C-3577086-586-94 4.1205306957482e-06 125000 -1189.9502677093 0 0 194 (C1) n - 1
REM
REM in /home/bkarasulu/work/CARBON/AIRSS/Generating-Clusters/EDIP-Nigel-Params/with-SteepDescent/Higher-Symm/SD-CG/HFTN-CG
REM
REM
REM
REM
REM
REM ./C.cell (12c818d87b63d06a65506943cc24bca4)
REM
REM compiler GCC version 9.2.1 20190827 (Red Hat 9.2.1-1)
REM options -cpp -mtune=generic -march=x86-64 -g -O0 -fpre-include=/usr/include/finclude/math-vector-fortran.h
REM seed -28124059 66355572 -2107585175 -1867060461 172170158 1882152376 1379502139 -1042217810 995267923 2075820440 1268065436 -2037881748 -414069174 1610580737 1037072572 878888435 1200666812 712786089 348019512 -107797022 1578022606 -2133866475 -784849614 466128133 -2023301967 87382873 -1761635872 -1721443950 -2082231480 835586228 1197916835 -1876602934 -825625967
REM
CELL 1.54180   50.00000   50.00000   50.00000   90.00000   90.00000   90.00000
LATT -1
SFAC C  
C      1  0.5493070000000  0.4965140000000  0.5724070000000 1.0
C      1  0.5419320000000  0.4689410000000  0.5599690000000 1.0
C      1  0.5154570000000  0.4572270000000  0.5730740000000 1.0
C      1  0.4882050000000  0.4538780000000  0.5595420000000 1.0
C      1  0.4614180000000  0.4660550000000  0.5719340000000 1.0
C      1  0.4537380000000  0.4902950000000  0.5554200000000 1.0
C      1  0.4510930000000  0.5158720000000  0.5685000000000 1.0
C      1  0.4540200000000  0.5438820000000  0.5567990000000 1.0
C      1  0.5069420000000  0.5466400000000  0.5626700000000 1.0
C      1  0.5341190000000  0.5445800000000  0.5739520000000 1.0
C      1  0.5525180000000  0.5251660000000  0.5601180000000 1.0
C      1  0.4550300000000  0.5651120000000  0.5110700000000 1.0
C      1  0.4952610000000  0.5783110000000  0.5274410000000 1.0
C      1  0.5425280000000  0.5809430000000  0.5207690000000 1.0
C      1  0.5797820000000  0.5413080000000  0.5175850000000 1.0
C      1  0.5796870000000  0.4948900000000  0.5102010000000 1.0
C      1  0.5624290000000  0.4463540000000  0.5184030000000 1.0
C      1  0.5237020000000  0.4300270000000  0.4987500000000 1.0
C      1  0.4806410000000  0.4171130000000  0.5168250000000 1.0
C      1  0.4487190000000  0.4502130000000  0.4958190000000 1.0
C      1  0.4157620000000  0.4796500000000  0.5179510000000 1.0
C      1  0.4184620000000  0.5258440000000  0.5165280000000 1.0
C      1  0.5679060000000  0.4545000000000  0.3958260000000 1.0
C      1  0.5310210000000  0.4281480000000  0.4031200000000 1.0
C      1  0.4877040000000  0.4204610000000  0.4098470000000 1.0
C      1  0.4443580000000  0.4415680000000  0.4103580000000 1.0
C      1  0.4230880000000  0.4818370000000  0.4150870000000 1.0
C      1  0.4250610000000  0.5279780000000  0.4153380000000 1.0
C      1  0.4520980000000  0.5648980000000  0.4078410000000 1.0
C      1  0.4947140000000  0.5812750000000  0.4099120000000 1.0
C      1  0.5378240000000  0.5691660000000  0.4210970000000 1.0
C      1  0.5718940000000  0.5405470000000  0.4151400000000 1.0
C      1  0.5782380000000  0.4962410000000  0.4162930000000 1.0
C      1  0.4699680000000  0.6126940000000  0.4532920000000 1.0
C      1  0.5349470000000  0.5989230000000  0.4746380000000 1.0
C      1  0.5882670000000  0.5614890000000  0.4720990000000 1.0
C      1  0.6177080000000  0.5003380000000  0.4555910000000 1.0
C      1  0.5791880000000  0.4418000000000  0.4559430000000 1.0
C      1  0.5610130000000  0.3931820000000  0.4362250000000 1.0
C      1  0.4968680000000  0.3935710000000  0.4739490000000 1.0
C      1  0.4293500000000  0.3987840000000  0.4504290000000 1.0
C      1  0.4034920000000  0.4632490000000  0.4714420000000 1.0
C      1  0.3811400000000  0.5317080000000  0.4486460000000 1.0
C      1  0.4327380000000  0.5764300000000  0.4662990000000 1.0
C      1  0.4293090000000  0.4258450000000  0.4590560000000 1.0
C      1  0.4042040000000  0.4931480000000  0.4663480000000 1.0
C      1  0.4061520000000  0.5424600000000  0.4565240000000 1.0
C      1  0.4563530000000  0.5764380000000  0.4498800000000 1.0
C      1  0.4921190000000  0.5969970000000  0.4634880000000 1.0
C      1  0.5465060000000  0.5725510000000  0.4683580000000 1.0
C      1  0.5849050000000  0.5327000000000  0.4660770000000 1.0
C      1  0.5948100000000  0.4832820000000  0.4593560000000 1.0
C      1  0.5560430000000  0.4456420000000  0.4372300000000 1.0
C      1  0.5405550000000  0.4015710000000  0.4533120000000 1.0
C      1  0.4722080000000  0.4075710000000  0.4663510000000 1.0
C      1  0.4977100000000  0.5673250000000  0.4515640000000 1.0
C      1  0.5305650000000  0.5563400000000  0.4469230000000 1.0
C      1  0.5555750000000  0.5266990000000  0.4535130000000 1.0
C      1  0.5684190000000  0.4956690000000  0.4449440000000 1.0
C      1  0.5472370000000  0.4749250000000  0.4450560000000 1.0
C      1  0.5322280000000  0.4294390000000  0.4473750000000 1.0
C      1  0.4796350000000  0.4318300000000  0.4516290000000 1.0
C      1  0.4520110000000  0.4441830000000  0.4478550000000 1.0
C      1  0.4300650000000  0.5004630000000  0.4544200000000 1.0
C      1  0.4325030000000  0.5290550000000  0.4453140000000 1.0
C      1  0.4644080000000  0.5456770000000  0.4456930000000 1.0
C      1  0.5556750000000  0.4231050000000  0.5554400000000 1.0
C      1  0.5052440000000  0.4106490000000  0.5531280000000 1.0
C      1  0.4562920000000  0.4237610000000  0.5531620000000 1.0
C      1  0.4161880000000  0.4521270000000  0.5521940000000 1.0
C      1  0.4030200000000  0.5049010000000  0.5521520000000 1.0
C      1  0.4149160000000  0.5609960000000  0.5471770000000 1.0
C      1  0.4543260000000  0.5959050000000  0.5513130000000 1.0
C      1  0.5387600000000  0.5908660000000  0.5483110000000 1.0
C      1  0.5822570000000  0.5648990000000  0.5552890000000 1.0
C      1  0.6013630000000  0.5163660000000  0.5539810000000 1.0
C      1  0.5905370000000  0.4615280000000  0.5488320000000 1.0
C      1  0.5938320000000  0.4506300000000  0.5208120000000 1.0
C      1  0.5714190000000  0.4027900000000  0.5435810000000 1.0
C      1  0.5168760000000  0.3866720000000  0.5442190000000 1.0
C      1  0.4489260000000  0.3995540000000  0.5412580000000 1.0
C      1  0.4012360000000  0.4321530000000  0.5395270000000 1.0
C      1  0.3775180000000  0.4986630000000  0.5409360000000 1.0
C      1  0.4043330000000  0.5705400000000  0.5230040000000 1.0
C      1  0.4496510000000  0.6063830000000  0.5258140000000 1.0
C      1  0.5151630000000  0.6085320000000  0.5506940000000 1.0
C      1  0.5900270000000  0.5884190000000  0.5391490000000 1.0
C      1  0.6215850000000  0.5260020000000  0.5373960000000 1.0
C      1  0.4656150000000  0.5419650000000  0.5284750000000 1.0
C      1  0.5035290000000  0.5494700000000  0.5329660000000 1.0
C      1  0.5309930000000  0.5505600000000  0.5186830000000 1.0
C      1  0.5513270000000  0.5280710000000  0.5283780000000 1.0
C      1  0.5491730000000  0.4963660000000  0.5151830000000 1.0
C      1  0.5402440000000  0.4678210000000  0.5287130000000 1.0
C      1  0.5153440000000  0.4525590000000  0.5176880000000 1.0
C      1  0.4871830000000  0.4480090000000  0.5287230000000 1.0
C      1  0.4645430000000  0.4650670000000  0.5159960000000 1.0
C      1  0.4469830000000  0.4879470000000  0.5264150000000 1.0
C      1  0.4495000000000  0.5189360000000  0.5142910000000 1.0
C      1  0.5213120000000  0.4453090000000  0.4718340000000 1.0
C      1  0.4931230000000  0.4529930000000  0.4665060000000 1.0
C      1  0.4594770000000  0.4650170000000  0.4719290000000 1.0
C      1  0.4502090000000  0.4941180000000  0.4719560000000 1.0
C      1  0.4538340000000  0.5220720000000  0.4837350000000 1.0
C      1  0.4778470000000  0.5335600000000  0.4705240000000 1.0
C      1  0.4954760000000  0.5561190000000  0.4807060000000 1.0
C      1  0.5251930000000  0.5476960000000  0.4890630000000 1.0
C      1  0.5353900000000  0.5225100000000  0.4751880000000 1.0
C      1  0.5365490000000  0.4959880000000  0.4887590000000 1.0
C      1  0.5415760000000  0.4697300000000  0.4732310000000 1.0
C      1  0.5261580000000  0.5984950000000  0.5033920000000 1.0
C      1  0.5767970000000  0.5647010000000  0.4992450000000 1.0
C      1  0.5906980000000  0.5205180000000  0.4982730000000 1.0
C      1  0.5680570000000  0.4555870000000  0.4813490000000 1.0
C      1  0.5521980000000  0.4221950000000  0.5047390000000 1.0
C      1  0.5052270000000  0.4049790000000  0.5011940000000 1.0
C      1  0.4579990000000  0.4192110000000  0.4945530000000 1.0
C      1  0.4174680000000  0.4556330000000  0.4987310000000 1.0
C      1  0.4038550000000  0.5028990000000  0.5008820000000 1.0
C      1  0.4361100000000  0.5557920000000  0.4889050000000 1.0
C      1  0.4791110000000  0.5789520000000  0.5018180000000 1.0
C      1  0.4045300000000  0.4344320000000  0.5128770000000 1.0
C      1  0.3794640000000  0.4946790000000  0.5135990000000 1.0
C      1  0.4111360000000  0.5513990000000  0.5039190000000 1.0
C      1  0.4640160000000  0.6039460000000  0.5026230000000 1.0
C      1  0.5108240000000  0.6138480000000  0.5224250000000 1.0
C      1  0.5785900000000  0.5896730000000  0.5131670000000 1.0
C      1  0.6160450000000  0.5279390000000  0.5105480000000 1.0
C      1  0.5906400000000  0.4709350000000  0.4962610000000 1.0
C      1  0.5609800000000  0.3993560000000  0.5184630000000 1.0
C      1  0.5173820000000  0.3839850000000  0.5168650000000 1.0
C      1  0.4459280000000  0.3994120000000  0.5132120000000 1.0
C      1  0.4038410000000  0.5041560000000  0.4177800000000 1.0
C      1  0.4233100000000  0.5607570000000  0.4155110000000 1.0
C      1  0.4667110000000  0.5901230000000  0.4093440000000 1.0
C      1  0.5194990000000  0.5935570000000  0.4227130000000 1.0
C      1  0.5689390000000  0.5692380000000  0.4235380000000 1.0
C      1  0.5949570000000  0.5223860000000  0.4189700000000 1.0
C      1  0.5901260000000  0.4681150000000  0.4126890000000 1.0
C      1  0.5602280000000  0.4258740000000  0.3995510000000 1.0
C      1  0.5136240000000  0.4094530000000  0.4191990000000 1.0
C      1  0.4618810000000  0.4090400000000  0.4182030000000 1.0
C      1  0.4182200000000  0.4537490000000  0.4211040000000 1.0
C      1  0.3871830000000  0.5047140000000  0.4432890000000 1.0
C      1  0.4127530000000  0.5688530000000  0.4450350000000 1.0
C      1  0.4571760000000  0.6089650000000  0.4285340000000 1.0
C      1  0.5169450000000  0.6072600000000  0.4516910000000 1.0
C      1  0.5735250000000  0.5782760000000  0.4525990000000 1.0
C      1  0.6061550000000  0.5240330000000  0.4465410000000 1.0
C      1  0.5988560000000  0.4589170000000  0.4415410000000 1.0
C      1  0.5732180000000  0.4137650000000  0.4222650000000 1.0
C      1  0.5151410000000  0.3889820000000  0.4518770000000 1.0
C      1  0.4563820000000  0.3947620000000  0.4435300000000 1.0
C      1  0.4080600000000  0.4439600000000  0.4490330000000 1.0
C      1  0.5804070000000  0.5355020000000  0.5612190000000 1.0
C      1  0.5902570000000  0.4907440000000  0.5467940000000 1.0
C      1  0.5653530000000  0.4500870000000  0.5622290000000 1.0
C      1  0.5299990000000  0.4157060000000  0.5666210000000 1.0
C      1  0.4788190000000  0.4106760000000  0.5638780000000 1.0
C      1  0.4408930000000  0.4447290000000  0.5657290000000 1.0
C      1  0.4028570000000  0.4764350000000  0.5597680000000 1.0
C      1  0.4126320000000  0.5326700000000  0.5543910000000 1.0
C      1  0.4348120000000  0.5767170000000  0.5613810000000 1.0
C      1  0.4835830000000  0.5881490000000  0.5556120000000 1.0
C      1  0.5614020000000  0.5840790000000  0.5648250000000 1.0
C      1  0.5493420000000  0.5290310000000  0.3996450000000 1.0
C      1  0.5523990000000  0.4995110000000  0.4005200000000 1.0
C      1  0.5438240000000  0.4720980000000  0.3905940000000 1.0
C      1  0.5193370000000  0.4540200000000  0.3955830000000 1.0
C      1  0.4898650000000  0.4482920000000  0.3996920000000 1.0
C      1  0.4633500000000  0.4618930000000  0.3995320000000 1.0
C      1  0.4491310000000  0.4880620000000  0.4029330000000 1.0
C      1  0.4506360000000  0.5179790000000  0.4018690000000 1.0
C      1  0.4691600000000  0.5416490000000  0.4021070000000 1.0
C      1  0.4973500000000  0.5535500000000  0.3996660000000 1.0
C      1  0.5263540000000  0.5471620000000  0.4037780000000 1.0
C      1  0.4686300000000  0.5496410000000  0.5916520000000 1.0
C      1  0.4879110000000  0.5647610000000  0.5756530000000 1.0
C      1  0.5366060000000  0.5436480000000  0.6018030000000 1.0
C      1  0.5462630000000  0.5213770000000  0.6133950000000 1.0
C      1  0.5484390000000  0.4963620000000  0.6015750000000 1.0
C      1  0.5349080000000  0.4749690000000  0.6130960000000 1.0
C      1  0.5137900000000  0.4606770000000  0.6019700000000 1.0
C      1  0.4880000000000  0.4624750000000  0.6121800000000 1.0
C      1  0.4646070000000  0.4732600000000  0.6017030000000 1.0
C      1  0.4590040000000  0.4997700000000  0.6106570000000 1.0
C      1  0.4692450000000  0.5188150000000  0.5910480000000 1.0
C      1  0.5071190000000  0.5054290000000  0.5324580000000 1.0
C      1  0.5020800000000  0.4990200000000  0.4576180000000 1.0
C      1  0.4929700000000  0.4940250000000  0.4829900000000 1.0
C      1  0.4950560000000  0.5093950000000  0.5825940000000 1.0
C      1  0.4992930000000  0.4989310000000  0.4318470000000 1.0
C      1  0.5073940000000  0.5026250000000  0.5591550000000 1.0
C      1  0.4974110000000  0.5044850000000  0.5076300000000 1.0
END
