TITL C-3577086-586-381 -3.58098503189698e-06 125000 -999.639738767622 0 0 162 (C1) n - 1
REM
REM in /home/bkarasulu/work/CARBON/AIRSS/Generating-Clusters/EDIP-Nigel-Params/with-SteepDescent/Higher-Symm/SD-CG/HFTN-CG
REM
REM
REM
REM
REM
REM ./C.cell (12c818d87b63d06a65506943cc24bca4)
REM
REM compiler GCC version 9.2.1 20190827 (Red Hat 9.2.1-1)
REM options -cpp -mtune=generic -march=x86-64 -g -O0 -fpre-include=/usr/include/finclude/math-vector-fortran.h
REM seed 1699699814 1516406864 1004414865 1812668642 -1032983485 1445341054 -240488302 1398171723 -293077390 -477002585 1586244224 -1736082988 -377099759 1249049973 -1113216419 -167858813 514592890 1752057079 506161722 1734019966 -2098819185 711896369 753011963 347213681 46873478 2096301552 -672918296 195825051 -23437663 -1442699458 -628381916 1683283480 612793239
REM
CELL 1.54180   50.00000   50.00000   50.00000   90.00000   90.00000   90.00000
LATT -1
SFAC C  
C      1  0.4440270000000  0.5142770000000  0.4587090000000 1.0
C      1  0.4571060000000  0.5377010000000  0.4439960000000 1.0
C      1  0.4830070000000  0.5458020000000  0.4571880000000 1.0
C      1  0.5068230000000  0.5499930000000  0.4381400000000 1.0
C      1  0.5305770000000  0.5320040000000  0.4464260000000 1.0
C      1  0.5398720000000  0.4836480000000  0.4535430000000 1.0
C      1  0.5352710000000  0.4539130000000  0.4576790000000 1.0
C      1  0.5095990000000  0.4488560000000  0.4417550000000 1.0
C      1  0.4805760000000  0.4524170000000  0.4510170000000 1.0
C      1  0.4736400000000  0.4772680000000  0.4711840000000 1.0
C      1  0.4555120000000  0.4888900000000  0.4482720000000 1.0
C      1  0.4271210000000  0.5110610000000  0.5784440000000 1.0
C      1  0.4391540000000  0.5400260000000  0.5753350000000 1.0
C      1  0.4771670000000  0.5798850000000  0.5813890000000 1.0
C      1  0.5090900000000  0.5824370000000  0.5767200000000 1.0
C      1  0.5597380000000  0.5639170000000  0.5831160000000 1.0
C      1  0.5705070000000  0.5089530000000  0.5766050000000 1.0
C      1  0.5662810000000  0.4795600000000  0.5744850000000 1.0
C      1  0.5418010000000  0.4262900000000  0.5783710000000 1.0
C      1  0.5112290000000  0.4160040000000  0.5734010000000 1.0
C      1  0.4546570000000  0.4316110000000  0.5784250000000 1.0
C      1  0.4378180000000  0.4576670000000  0.5724200000000 1.0
C      1  0.5422030000000  0.5183590000000  0.4198410000000 1.0
C      1  0.5497330000000  0.4888210000000  0.4256560000000 1.0
C      1  0.5385070000000  0.4695470000000  0.4078530000000 1.0
C      1  0.5149820000000  0.4544640000000  0.4124660000000 1.0
C      1  0.4918780000000  0.4684220000000  0.4008740000000 1.0
C      1  0.4680690000000  0.4633100000000  0.4171560000000 1.0
C      1  0.4523790000000  0.4873360000000  0.4091090000000 1.0
C      1  0.4555850000000  0.5158110000000  0.4132810000000 1.0
C      1  0.4740630000000  0.5348870000000  0.4050200000000 1.0
C      1  0.5010670000000  0.5410950000000  0.4096310000000 1.0
C      1  0.5214650000000  0.5221630000000  0.3991790000000 1.0
C      1  0.4754740000000  0.4496150000000  0.5934590000000 1.0
C      1  0.4600760000000  0.4750680000000  0.5830840000000 1.0
C      1  0.4534800000000  0.5021150000000  0.5925920000000 1.0
C      1  0.4659820000000  0.5304920000000  0.5846800000000 1.0
C      1  0.4833820000000  0.5516680000000  0.5950200000000 1.0
C      1  0.5127610000000  0.5544790000000  0.5861070000000 1.0
C      1  0.5398140000000  0.5470810000000  0.5926810000000 1.0
C      1  0.5457500000000  0.5183690000000  0.5904390000000 1.0
C      1  0.5375620000000  0.4753260000000  0.5772460000000 1.0
C      1  0.5288650000000  0.4517940000000  0.5914470000000 1.0
C      1  0.5014120000000  0.4433050000000  0.5820970000000 1.0
C      1  0.5753770000000  0.4414130000000  0.4475620000000 1.0
C      1  0.5313350000000  0.4107690000000  0.4475120000000 1.0
C      1  0.4809960000000  0.4083800000000  0.4467540000000 1.0
C      1  0.4384100000000  0.4400740000000  0.4464390000000 1.0
C      1  0.4118060000000  0.4881230000000  0.4428060000000 1.0
C      1  0.4129720000000  0.5396470000000  0.4400700000000 1.0
C      1  0.4435390000000  0.5794340000000  0.4483460000000 1.0
C      1  0.4931540000000  0.5906920000000  0.4486470000000 1.0
C      1  0.5405850000000  0.5768950000000  0.4470370000000 1.0
C      1  0.5738730000000  0.5400680000000  0.4462820000000 1.0
C      1  0.5886150000000  0.4920170000000  0.4514960000000 1.0
C      1  0.5363890000000  0.4064700000000  0.5339960000000 1.0
C      1  0.4786190000000  0.4008930000000  0.5412030000000 1.0
C      1  0.4327030000000  0.4293950000000  0.5345730000000 1.0
C      1  0.4090530000000  0.4797610000000  0.5406910000000 1.0
C      1  0.4120170000000  0.5333030000000  0.5389770000000 1.0
C      1  0.4408240000000  0.5788790000000  0.5427760000000 1.0
C      1  0.4894940000000  0.6010090000000  0.5393230000000 1.0
C      1  0.5467450000000  0.5894930000000  0.5437550000000 1.0
C      1  0.5831660000000  0.5474870000000  0.5452510000000 1.0
C      1  0.5935020000000  0.4937600000000  0.5394130000000 1.0
C      1  0.5777320000000  0.4413740000000  0.5426960000000 1.0
C      1  0.6033390000000  0.4883370000000  0.5129850000000 1.0
C      1  0.5878130000000  0.4318400000000  0.5171520000000 1.0
C      1  0.5443710000000  0.3868680000000  0.5147610000000 1.0
C      1  0.4719060000000  0.3872170000000  0.5168240000000 1.0
C      1  0.4180620000000  0.4201460000000  0.5115610000000 1.0
C      1  0.3940720000000  0.4819930000000  0.5164100000000 1.0
C      1  0.4038840000000  0.5358550000000  0.5116060000000 1.0
C      1  0.4367260000000  0.5898610000000  0.5163950000000 1.0
C      1  0.4884980000000  0.6154630000000  0.5148270000000 1.0
C      1  0.5591150000000  0.5975640000000  0.5177300000000 1.0
C      1  0.5908870000000  0.5544650000000  0.5181210000000 1.0
C      1  0.5072060000000  0.4115000000000  0.5439700000000 1.0
C      1  0.4619480000000  0.4260450000000  0.5483530000000 1.0
C      1  0.4315620000000  0.4593070000000  0.5428390000000 1.0
C      1  0.4245990000000  0.5051290000000  0.5479630000000 1.0
C      1  0.4366150000000  0.5487720000000  0.5463820000000 1.0
C      1  0.4707020000000  0.5786030000000  0.5509810000000 1.0
C      1  0.5157560000000  0.5863450000000  0.5470730000000 1.0
C      1  0.5567030000000  0.5611900000000  0.5540470000000 1.0
C      1  0.5757390000000  0.5179550000000  0.5472440000000 1.0
C      1  0.5738870000000  0.4718090000000  0.5462690000000 1.0
C      1  0.5487190000000  0.4319830000000  0.5485780000000 1.0
C      1  0.4118880000000  0.5131210000000  0.4289930000000 1.0
C      1  0.4296800000000  0.5615470000000  0.4309580000000 1.0
C      1  0.4669100000000  0.5917700000000  0.4385750000000 1.0
C      1  0.5170820000000  0.5865180000000  0.4336460000000 1.0
C      1  0.5563260000000  0.5578950000000  0.4327890000000 1.0
C      1  0.5828840000000  0.5153440000000  0.4369600000000 1.0
C      1  0.5854500000000  0.4667200000000  0.4399670000000 1.0
C      1  0.5528600000000  0.4273060000000  0.4357360000000 1.0
C      1  0.5065150000000  0.4054580000000  0.4347820000000 1.0
C      1  0.4595220000000  0.4239870000000  0.4345930000000 1.0
C      1  0.4280570000000  0.4647110000000  0.4348310000000 1.0
C      1  0.4780230000000  0.4509120000000  0.5391900000000 1.0
C      1  0.4574180000000  0.4711850000000  0.5275400000000 1.0
C      1  0.4534800000000  0.5030130000000  0.5354920000000 1.0
C      1  0.4594290000000  0.5347640000000  0.5299640000000 1.0
C      1  0.4824320000000  0.5519930000000  0.5407450000000 1.0
C      1  0.5109200000000  0.5585000000000  0.5327800000000 1.0
C      1  0.5339570000000  0.5403940000000  0.5441030000000 1.0
C      1  0.5490390000000  0.5150290000000  0.5301040000000 1.0
C      1  0.5485430000000  0.4784280000000  0.5281600000000 1.0
C      1  0.5304240000000  0.4549630000000  0.5387480000000 1.0
C      1  0.5049630000000  0.4400150000000  0.5297660000000 1.0
C      1  0.6079790000000  0.5105460000000  0.4947850000000 1.0
C      1  0.5982580000000  0.4460590000000  0.4929790000000 1.0
C      1  0.5557440000000  0.3947040000000  0.4895460000000 1.0
C      1  0.4909890000000  0.3820020000000  0.4946080000000 1.0
C      1  0.4295170000000  0.4095710000000  0.4868490000000 1.0
C      1  0.4012810000000  0.4710220000000  0.4908890000000 1.0
C      1  0.3886220000000  0.5162190000000  0.4749650000000 1.0
C      1  0.4188740000000  0.5819480000000  0.4945730000000 1.0
C      1  0.4753300000000  0.6099040000000  0.4894960000000 1.0
C      1  0.5424300000000  0.6056850000000  0.4928560000000 1.0
C      1  0.5793100000000  0.5782730000000  0.4780740000000 1.0
C      1  0.4612480000000  0.5836160000000  0.4880250000000 1.0
C      1  0.5151630000000  0.5944640000000  0.4962610000000 1.0
C      1  0.5685190000000  0.5718680000000  0.5052890000000 1.0
C      1  0.5861820000000  0.5320050000000  0.4958470000000 1.0
C      1  0.5859170000000  0.4733960000000  0.4910410000000 1.0
C      1  0.5611520000000  0.4236080000000  0.4912910000000 1.0
C      1  0.5135370000000  0.4015840000000  0.4967130000000 1.0
C      1  0.4590970000000  0.4108050000000  0.4901350000000 1.0
C      1  0.4244100000000  0.4522710000000  0.4914500000000 1.0
C      1  0.4158770000000  0.5100130000000  0.5015510000000 1.0
C      1  0.4189390000000  0.5525890000000  0.4911450000000 1.0
C      1  0.4021630000000  0.5413300000000  0.4673290000000 1.0
C      1  0.4287610000000  0.5927410000000  0.4692540000000 1.0
C      1  0.4983090000000  0.6051590000000  0.4726530000000 1.0
C      1  0.5554120000000  0.5932610000000  0.4670170000000 1.0
C      1  0.5868060000000  0.5498220000000  0.4699270000000 1.0
C      1  0.6094880000000  0.4957130000000  0.4697240000000 1.0
C      1  0.5844260000000  0.4295240000000  0.4724510000000 1.0
C      1  0.5323420000000  0.3952630000000  0.4723840000000 1.0
C      1  0.4732260000000  0.3921540000000  0.4702330000000 1.0
C      1  0.4220530000000  0.4319900000000  0.4687310000000 1.0
C      1  0.3974430000000  0.4894600000000  0.4679320000000 1.0
C      1  0.5131610000000  0.5629620000000  0.5018490000000 1.0
C      1  0.5436790000000  0.5526430000000  0.4986940000000 1.0
C      1  0.5554960000000  0.5250720000000  0.5020670000000 1.0
C      1  0.5549980000000  0.4708530000000  0.4996560000000 1.0
C      1  0.5382760000000  0.4466100000000  0.4879730000000 1.0
C      1  0.5057470000000  0.4334280000000  0.4994390000000 1.0
C      1  0.4747770000000  0.4373990000000  0.4897420000000 1.0
C      1  0.4552090000000  0.4622240000000  0.4965880000000 1.0
C      1  0.4436580000000  0.5158900000000  0.4883510000000 1.0
C      1  0.4553930000000  0.5411390000000  0.4999940000000 1.0
C      1  0.4803830000000  0.5566040000000  0.4859570000000 1.0
C      1  0.4964970000000  0.4987290000000  0.4365210000000 1.0
C      1  0.5084790000000  0.5084860000000  0.5602420000000 1.0
C      1  0.5022270000000  0.5012450000000  0.5071920000000 1.0
C      1  0.5232500000000  0.5001890000000  0.5830990000000 1.0
C      1  0.4951630000000  0.4970040000000  0.4083950000000 1.0
C      1  0.5056950000000  0.5078890000000  0.5331170000000 1.0
C      1  0.5161970000000  0.5028110000000  0.4573740000000 1.0
C      1  0.4981500000000  0.4939280000000  0.4806480000000 1.0
END
