TITL C-3577078-809-20 -3.67588202771998e-08 125000 -21.8093223926394 0 0 5 (D(inf)h) n - 1
REM
REM in /home/bkarasulu/work/CARBON/AIRSS/Generating-Clusters/EDIP-Nigel-Params/with-SteepDescent/Higher-Symm/SD-CG/HFTN-CG
REM
REM
REM
REM
REM
REM ./C.cell (12c818d87b63d06a65506943cc24bca4)
REM
REM compiler GCC version 9.2.1 20190827 (Red Hat 9.2.1-1)
REM options -cpp -mtune=generic -march=x86-64 -g -O0 -fpre-include=/usr/include/finclude/math-vector-fortran.h
REM seed -853581820 635373240 1754564915 1731691662 1544620379 796453396 1822649448 -242614170 -821133658 1404000920 1728065934 -1476872824 -408234671 -691804148 -63235852 621522213 236102664 95899510 -623414796 119827815 -307145075 -1788310261 1969417346 581560355 -1902577855 1226537260 -93991284 -106234747 183176231 680213956 1164190513 -680526767 1465528063
REM
CELL 1.54180   50.00000   50.00000   50.00000   90.00000   90.00000   90.00000
LATT -1
SFAC C  
C      1  0.5519560000000  0.5005920000000  0.5025150000000 1.0
C      1  0.5263850000000  0.5005920000000  0.5025150000000 1.0
C      1  0.4736150000000  0.5005920000000  0.5025150000000 1.0
C      1  0.5000000000000  0.5005920000000  0.5025150000000 1.0
C      1  0.4480440000000  0.5005920000000  0.5025150000000 1.0
END
