TITL C-3578198-8939-483 -1.97863207768963e-07 125000 -618.817147849919 0 0 102 (C1) n - 1
REM
REM in /home/bkarasulu/work/CARBON/AIRSS/Generating-Clusters/EDIP-Nigel-Params/with-SteepDescent/Higher-Symm/SD-CG/HFTN-CG
REM
REM
REM
REM
REM
REM ./C.cell (12c818d87b63d06a65506943cc24bca4)
REM
REM compiler GCC version 9.2.1 20190827 (Red Hat 9.2.1-1)
REM options -cpp -mtune=generic -march=x86-64 -g -O0 -fpre-include=/usr/include/finclude/math-vector-fortran.h
REM seed -958928324 1787641252 1760137335 -1243621492 1544025995 -136710927 -917126504 1583042643 -116211557 774885271 2090297362 1069589747 427320973 1797936995 -1393020445 -1076083227 214559621 1061266925 87216330 -1550571135 -1049937555 543120318 -1116476731 1452199515 1889165940 -507296170 720929859 -250046363 478213745 1004709980 -1448533217 245097806 1575474960
REM
CELL 1.54180   50.00000   50.00000   50.00000   90.00000   90.00000   90.00000
LATT -1
SFAC C  
C      1  0.5910950000000  0.4639220000000  0.4752820000000 1.0
C      1  0.5881940000000  0.4614140000000  0.5014840000000 1.0
C      1  0.5688160000000  0.4616720000000  0.5209650000000 1.0
C      1  0.5754970000000  0.4758360000000  0.5450650000000 1.0
C      1  0.5713810000000  0.5035320000000  0.5531660000000 1.0
C      1  0.5781340000000  0.5223570000000  0.5335210000000 1.0
C      1  0.5684190000000  0.5402670000000  0.5146120000000 1.0
C      1  0.5740420000000  0.5364090000000  0.4874140000000 1.0
C      1  0.5692280000000  0.5276090000000  0.4611760000000 1.0
C      1  0.5810120000000  0.5038070000000  0.4530140000000 1.0
C      1  0.5786400000000  0.4761610000000  0.4540670000000 1.0
C      1  0.5035390000000  0.4515330000000  0.5756350000000 1.0
C      1  0.5047670000000  0.4992430000000  0.5855070000000 1.0
C      1  0.5035830000000  0.5464580000000  0.5787920000000 1.0
C      1  0.5041560000000  0.5738760000000  0.5335350000000 1.0
C      1  0.5020830000000  0.5816810000000  0.4900750000000 1.0
C      1  0.5030860000000  0.5659390000000  0.4487700000000 1.0
C      1  0.5009920000000  0.5332110000000  0.4200980000000 1.0
C      1  0.5116080000000  0.4718010000000  0.4147080000000 1.0
C      1  0.5049700000000  0.4326910000000  0.4345200000000 1.0
C      1  0.4991990000000  0.4240910000000  0.4914110000000 1.0
C      1  0.5027880000000  0.4211410000000  0.5352590000000 1.0
C      1  0.5408580000000  0.4719040000000  0.4200120000000 1.0
C      1  0.5292680000000  0.4227100000000  0.4442750000000 1.0
C      1  0.5243020000000  0.4101930000000  0.4914360000000 1.0
C      1  0.5287690000000  0.4339210000000  0.5395330000000 1.0
C      1  0.5286530000000  0.4518220000000  0.5631230000000 1.0
C      1  0.5327430000000  0.5031710000000  0.5881680000000 1.0
C      1  0.5291190000000  0.5509380000000  0.5675440000000 1.0
C      1  0.5322710000000  0.5733570000000  0.5276990000000 1.0
C      1  0.5292450000000  0.5775930000000  0.4824340000000 1.0
C      1  0.5296370000000  0.5562370000000  0.4434350000000 1.0
C      1  0.5217240000000  0.5197180000000  0.4069620000000 1.0
C      1  0.4743930000000  0.5907430000000  0.4887110000000 1.0
C      1  0.4738220000000  0.5689380000000  0.4436060000000 1.0
C      1  0.4734980000000  0.5283760000000  0.4152880000000 1.0
C      1  0.4829150000000  0.4786490000000  0.4197210000000 1.0
C      1  0.4783000000000  0.4368740000000  0.4441580000000 1.0
C      1  0.4738760000000  0.4093760000000  0.4880230000000 1.0
C      1  0.4735520000000  0.4161700000000  0.5390600000000 1.0
C      1  0.4753390000000  0.4504860000000  0.5773050000000 1.0
C      1  0.4749470000000  0.5003740000000  0.5883810000000 1.0
C      1  0.4750970000000  0.5486030000000  0.5737950000000 1.0
C      1  0.4763020000000  0.5832180000000  0.5372750000000 1.0
C      1  0.4616440000000  0.4756850000000  0.5816320000000 1.0
C      1  0.4590640000000  0.5240210000000  0.5777400000000 1.0
C      1  0.4626630000000  0.5707990000000  0.5594370000000 1.0
C      1  0.4601000000000  0.5877710000000  0.5136270000000 1.0
C      1  0.4597910000000  0.5840540000000  0.4644250000000 1.0
C      1  0.4576700000000  0.5447800000000  0.4345110000000 1.0
C      1  0.4690120000000  0.5012950000000  0.4110510000000 1.0
C      1  0.4658640000000  0.4615740000000  0.4355550000000 1.0
C      1  0.4628970000000  0.4211270000000  0.4636040000000 1.0
C      1  0.4571590000000  0.4169360000000  0.5122150000000 1.0
C      1  0.4617200000000  0.4401050000000  0.5529960000000 1.0
C      1  0.4842700000000  0.5478250000000  0.4926540000000 1.0
C      1  0.5057970000000  0.5365940000000  0.4738000000000 1.0
C      1  0.4938040000000  0.5143890000000  0.4518580000000 1.0
C      1  0.5137880000000  0.4908310000000  0.4487200000000 1.0
C      1  0.5111230000000  0.4601370000000  0.4617110000000 1.0
C      1  0.4940700000000  0.4541890000000  0.4882550000000 1.0
C      1  0.4956450000000  0.4564870000000  0.5212690000000 1.0
C      1  0.5120750000000  0.4811190000000  0.5308770000000 1.0
C      1  0.4940880000000  0.4976660000000  0.5486890000000 1.0
C      1  0.5000670000000  0.5264930000000  0.5452200000000 1.0
C      1  0.4849590000000  0.5422850000000  0.5235620000000 1.0
C      1  0.4121720000000  0.4991880000000  0.4535170000000 1.0
C      1  0.4234140000000  0.4748410000000  0.4596090000000 1.0
C      1  0.4129190000000  0.4618810000000  0.4816000000000 1.0
C      1  0.4208220000000  0.4535470000000  0.5066540000000 1.0
C      1  0.4099510000000  0.4657470000000  0.5287290000000 1.0
C      1  0.4105780000000  0.4863470000000  0.5455250000000 1.0
C      1  0.4181700000000  0.5126670000000  0.5479360000000 1.0
C      1  0.4056880000000  0.5299750000000  0.5304360000000 1.0
C      1  0.4124510000000  0.5446020000000  0.5080520000000 1.0
C      1  0.4056930000000  0.5350980000000  0.4830490000000 1.0
C      1  0.4184060000000  0.5249720000000  0.4607500000000 1.0
C      1  0.5355730000000  0.5084100000000  0.4301220000000 1.0
C      1  0.5541020000000  0.4636540000000  0.4447580000000 1.0
C      1  0.5379740000000  0.4443490000000  0.4617540000000 1.0
C      1  0.5428940000000  0.4314110000000  0.4903860000000 1.0
C      1  0.5457230000000  0.4441040000000  0.5169380000000 1.0
C      1  0.5367700000000  0.4763640000000  0.5470880000000 1.0
C      1  0.5422010000000  0.5045130000000  0.5604960000000 1.0
C      1  0.5296410000000  0.5305520000000  0.5465610000000 1.0
C      1  0.5395170000000  0.5465780000000  0.5172960000000 1.0
C      1  0.5317330000000  0.5491020000000  0.4869360000000 1.0
C      1  0.5434860000000  0.5314460000000  0.4480540000000 1.0
C      1  0.4638490000000  0.4549360000000  0.4817540000000 1.0
C      1  0.4497260000000  0.4472160000000  0.5078430000000 1.0
C      1  0.4658480000000  0.4606860000000  0.5311710000000 1.0
C      1  0.4646520000000  0.4901410000000  0.5462610000000 1.0
C      1  0.4475660000000  0.5174040000000  0.5499650000000 1.0
C      1  0.4563220000000  0.5435050000000  0.5332260000000 1.0
C      1  0.4399930000000  0.5552160000000  0.5092880000000 1.0
C      1  0.4555660000000  0.5511350000000  0.4825610000000 1.0
C      1  0.4475530000000  0.5307620000000  0.4599250000000 1.0
C      1  0.4650980000000  0.5054170000000  0.4635820000000 1.0
C      1  0.4531690000000  0.4751510000000  0.4591880000000 1.0
C      1  0.4974760000000  0.4985990000000  0.4929990000000 1.0
C      1  0.5195370000000  0.4964090000000  0.5078630000000 1.0
C      1  0.4713830000000  0.5045340000000  0.4912830000000 1.0
END
