TITL C-3577078-809-583 1.14421331625913e-08 125000 -865.040100496676 0 0 140 (C1) n - 1
REM
REM in /home/bkarasulu/work/CARBON/AIRSS/Generating-Clusters/EDIP-Nigel-Params/with-SteepDescent/Higher-Symm/SD-CG/HFTN-CG
REM
REM
REM
REM
REM
REM ./C.cell (12c818d87b63d06a65506943cc24bca4)
REM
REM compiler GCC version 9.2.1 20190827 (Red Hat 9.2.1-1)
REM options -cpp -mtune=generic -march=x86-64 -g -O0 -fpre-include=/usr/include/finclude/math-vector-fortran.h
REM seed -1688617043 271429513 1866907934 -713812930 1869846128 -1920723916 400405111 -1583156321 -1778556661 -92212247 -1627809548 -1645814002 -1442179403 1687408083 1048483517 -21302516 909706365 1899677631 -57051877 -1245238916 -1713856271 -578860503 -571326226 1634309350 -1741658351 -707655094 -828376650 1885668985 1672309817 1826366810 18225988 1328749497 -1706546257
REM
CELL 1.54180   50.00000   50.00000   50.00000   90.00000   90.00000   90.00000
LATT -1
SFAC C  
C      1  0.5853470000000  0.4701540000000  0.5411520000000 1.0
C      1  0.5868890000000  0.4980190000000  0.5513110000000 1.0
C      1  0.5865430000000  0.5266970000000  0.5438930000000 1.0
C      1  0.5848290000000  0.5470620000000  0.5225900000000 1.0
C      1  0.5870240000000  0.5533820000000  0.4939160000000 1.0
C      1  0.5832410000000  0.5409850000000  0.4675080000000 1.0
C      1  0.5875920000000  0.5166750000000  0.4512790000000 1.0
C      1  0.5825310000000  0.4876460000000  0.4503590000000 1.0
C      1  0.5872100000000  0.4622360000000  0.4644910000000 1.0
C      1  0.5829830000000  0.4482490000000  0.4901360000000 1.0
C      1  0.5866910000000  0.4502710000000  0.5192300000000 1.0
C      1  0.4849690000000  0.5091480000000  0.5519340000000 1.0
C      1  0.4937750000000  0.5345390000000  0.5362600000000 1.0
C      1  0.4766000000000  0.5360350000000  0.5112050000000 1.0
C      1  0.4919630000000  0.5490490000000  0.4816890000000 1.0
C      1  0.4795250000000  0.5333440000000  0.4589970000000 1.0
C      1  0.4934620000000  0.5049130000000  0.4466140000000 1.0
C      1  0.4886810000000  0.4752440000000  0.4565680000000 1.0
C      1  0.4933790000000  0.4507740000000  0.4766920000000 1.0
C      1  0.4956490000000  0.4445260000000  0.5073970000000 1.0
C      1  0.4842260000000  0.4582740000000  0.5329220000000 1.0
C      1  0.4978530000000  0.4812000000000  0.5506080000000 1.0
C      1  0.5808190000000  0.4533180000000  0.5634010000000 1.0
C      1  0.5820670000000  0.4970250000000  0.5789130000000 1.0
C      1  0.5813370000000  0.5415600000000  0.5673510000000 1.0
C      1  0.5798960000000  0.5711780000000  0.5363070000000 1.0
C      1  0.5802450000000  0.5804720000000  0.4910930000000 1.0
C      1  0.5783400000000  0.5619010000000  0.4493110000000 1.0
C      1  0.5809490000000  0.5261450000000  0.4254130000000 1.0
C      1  0.5775090000000  0.4811150000000  0.4236220000000 1.0
C      1  0.5802970000000  0.4418680000000  0.4460490000000 1.0
C      1  0.5776760000000  0.4213000000000  0.4839540000000 1.0
C      1  0.5799250000000  0.4253370000000  0.5306520000000 1.0
C      1  0.5290620000000  0.4117330000000  0.5368250000000 1.0
C      1  0.5314100000000  0.4449060000000  0.5766420000000 1.0
C      1  0.5329820000000  0.4964820000000  0.5928520000000 1.0
C      1  0.5307710000000  0.5477520000000  0.5793110000000 1.0
C      1  0.5298380000000  0.5845610000000  0.5423890000000 1.0
C      1  0.5302260000000  0.5953540000000  0.4904450000000 1.0
C      1  0.5289500000000  0.5746070000000  0.4420520000000 1.0
C      1  0.5297740000000  0.5307670000000  0.4125280000000 1.0
C      1  0.5294240000000  0.4778970000000  0.4101870000000 1.0
C      1  0.5290340000000  0.4326950000000  0.4375930000000 1.0
C      1  0.5281120000000  0.4061830000000  0.4825110000000 1.0
C      1  0.4777220000000  0.4957040000000  0.5951280000000 1.0
C      1  0.4716320000000  0.5460150000000  0.5776580000000 1.0
C      1  0.4728990000000  0.5799870000000  0.5386990000000 1.0
C      1  0.4718590000000  0.5910400000000  0.4914290000000 1.0
C      1  0.4729260000000  0.5747430000000  0.4420920000000 1.0
C      1  0.4713580000000  0.5307310000000  0.4116740000000 1.0
C      1  0.4729010000000  0.4779450000000  0.4110980000000 1.0
C      1  0.4702220000000  0.4356830000000  0.4370850000000 1.0
C      1  0.4692590000000  0.4114740000000  0.4839530000000 1.0
C      1  0.4683430000000  0.4154990000000  0.5360690000000 1.0
C      1  0.4735990000000  0.4491790000000  0.5779920000000 1.0
C      1  0.4473500000000  0.4645510000000  0.5756420000000 1.0
C      1  0.4504060000000  0.4902350000000  0.5897120000000 1.0
C      1  0.4442680000000  0.5430530000000  0.5705380000000 1.0
C      1  0.4466450000000  0.5721900000000  0.5272070000000 1.0
C      1  0.4444630000000  0.5802550000000  0.4980120000000 1.0
C      1  0.4459320000000  0.5678370000000  0.4440160000000 1.0
C      1  0.4431820000000  0.5279980000000  0.4141710000000 1.0
C      1  0.4460640000000  0.4749470000000  0.4241380000000 1.0
C      1  0.4433210000000  0.4483380000000  0.4367580000000 1.0
C      1  0.4460270000000  0.4286580000000  0.4868020000000 1.0
C      1  0.4437760000000  0.4313630000000  0.5307430000000 1.0
C      1  0.4923240000000  0.4731260000000  0.5804870000000 1.0
C      1  0.4884280000000  0.5196480000000  0.5808200000000 1.0
C      1  0.4877840000000  0.5586770000000  0.5549490000000 1.0
C      1  0.4877810000000  0.5896180000000  0.5159100000000 1.0
C      1  0.4871570000000  0.5777450000000  0.4693760000000 1.0
C      1  0.4856950000000  0.5490860000000  0.4320430000000 1.0
C      1  0.4870080000000  0.5048060000000  0.4164960000000 1.0
C      1  0.4875130000000  0.4595450000000  0.4301930000000 1.0
C      1  0.4851500000000  0.4254940000000  0.4621520000000 1.0
C      1  0.4851010000000  0.4153820000000  0.5099370000000 1.0
C      1  0.4852190000000  0.4351620000000  0.5532150000000 1.0
C      1  0.4140110000000  0.4455550000000  0.5118030000000 1.0
C      1  0.4017330000000  0.4665050000000  0.5253540000000 1.0
C      1  0.4129700000000  0.4832140000000  0.5446440000000 1.0
C      1  0.4098710000000  0.5133390000000  0.5425500000000 1.0
C      1  0.3919920000000  0.5449650000000  0.5089200000000 1.0
C      1  0.4038090000000  0.5507120000000  0.4839000000000 1.0
C      1  0.3959720000000  0.5336910000000  0.4631530000000 1.0
C      1  0.4070870000000  0.5138510000000  0.4472520000000 1.0
C      1  0.4038130000000  0.4869920000000  0.4552420000000 1.0
C      1  0.4215140000000  0.4652800000000  0.4632530000000 1.0
C      1  0.4113600000000  0.4452330000000  0.4830660000000 1.0
C      1  0.5165850000000  0.5913120000000  0.5165670000000 1.0
C      1  0.5152930000000  0.5880630000000  0.4653410000000 1.0
C      1  0.5152390000000  0.5525690000000  0.4271230000000 1.0
C      1  0.5155530000000  0.5046900000000  0.4071200000000 1.0
C      1  0.5155810000000  0.4541370000000  0.4219360000000 1.0
C      1  0.5135250000000  0.4159950000000  0.4576370000000 1.0
C      1  0.5144670000000  0.4044840000000  0.5105680000000 1.0
C      1  0.5150140000000  0.4284060000000  0.5573170000000 1.0
C      1  0.5197640000000  0.4691950000000  0.5901540000000 1.0
C      1  0.5178830000000  0.5220980000000  0.5869120000000 1.0
C      1  0.5155770000000  0.5677650000000  0.5628980000000 1.0
C      1  0.5258130000000  0.4779100000000  0.4681450000000 1.0
C      1  0.5320470000000  0.4500400000000  0.4782000000000 1.0
C      1  0.5258540000000  0.4429330000000  0.5068080000000 1.0
C      1  0.5357010000000  0.4625130000000  0.5256930000000 1.0
C      1  0.5266220000000  0.4822150000000  0.5437290000000 1.0
C      1  0.5345750000000  0.5083920000000  0.5395140000000 1.0
C      1  0.5229530000000  0.5322340000000  0.5313130000000 1.0
C      1  0.5316230000000  0.5421560000000  0.5072970000000 1.0
C      1  0.5212390000000  0.5441780000000  0.4820490000000 1.0
C      1  0.5315400000000  0.5260260000000  0.4637350000000 1.0
C      1  0.5227260000000  0.5031030000000  0.4507710000000 1.0
C      1  0.4482730000000  0.4779070000000  0.4741440000000 1.0
C      1  0.4535330000000  0.4557350000000  0.4947590000000 1.0
C      1  0.4545470000000  0.4591340000000  0.5257950000000 1.0
C      1  0.4416460000000  0.4766300000000  0.5483020000000 1.0
C      1  0.4551940000000  0.5035580000000  0.5530990000000 1.0
C      1  0.4379670000000  0.5270300000000  0.5469480000000 1.0
C      1  0.4477170000000  0.5425830000000  0.5204830000000 1.0
C      1  0.4337040000000  0.5524170000000  0.4857810000000 1.0
C      1  0.4474650000000  0.5426780000000  0.4589550000000 1.0
C      1  0.4358590000000  0.5197660000000  0.4412150000000 1.0
C      1  0.4505560000000  0.4939290000000  0.4458720000000 1.0
C      1  0.5569870000000  0.4768310000000  0.4066550000000 1.0
C      1  0.5570370000000  0.4309450000000  0.4367650000000 1.0
C      1  0.5560430000000  0.4051180000000  0.4814190000000 1.0
C      1  0.5571150000000  0.4117000000000  0.5367440000000 1.0
C      1  0.5592870000000  0.4429340000000  0.5763700000000 1.0
C      1  0.5607130000000  0.4970650000000  0.5954380000000 1.0
C      1  0.5586270000000  0.5494990000000  0.5801430000000 1.0
C      1  0.5576660000000  0.5850710000000  0.5434140000000 1.0
C      1  0.5581350000000  0.5960310000000  0.4896190000000 1.0
C      1  0.5567270000000  0.5758170000000  0.4406840000000 1.0
C      1  0.5578130000000  0.5310430000000  0.4117880000000 1.0
C      1  0.5252720000000  0.4909600000000  0.4936110000000 1.0
C      1  0.5746810000000  0.4983370000000  0.5084320000000 1.0
C      1  0.4983070000000  0.4957800000000  0.5008150000000 1.0
C      1  0.5507860000000  0.5029880000000  0.4991590000000 1.0
C      1  0.4481980000000  0.4999570000000  0.4932240000000 1.0
C      1  0.4017900000000  0.5192240000000  0.5149900000000 1.0
C      1  0.4739840000000  0.5087060000000  0.5029060000000 1.0
C      1  0.4241300000000  0.5118780000000  0.4999140000000 1.0
END
