TITL C-3578204-4308-215 -6.55959110751301e-06 125000 -1098.32733224742 0 0 175 (C1) n - 1
REM
REM in /home/bkarasulu/work/CARBON/AIRSS/Generating-Clusters/EDIP-Nigel-Params/with-SteepDescent/Higher-Symm/SD-CG/HFTN-CG
REM
REM
REM
REM
REM
REM ./C.cell (12c818d87b63d06a65506943cc24bca4)
REM
REM compiler GCC version 9.2.1 20190827 (Red Hat 9.2.1-1)
REM options -cpp -mtune=generic -march=x86-64 -g -O0 -fpre-include=/usr/include/finclude/math-vector-fortran.h
REM seed 1943208219 1314315105 -1833047443 326326053 -934409051 -1481862301 1212622653 -2085261100 115726319 1595835346 1086393726 -2100286505 -486179285 1368137383 -765108474 1392215692 2031755681 1012800856 583646048 -1203743886 1146306109 -757039089 -1281164781 -769954470 210664558 1583032843 -945613145 513240685 1183475180 -517447281 -1157375567 980749483 558995694
REM
CELL 1.54180   50.00000   50.00000   50.00000   90.00000   90.00000   90.00000
LATT -1
SFAC C  
C      1  0.5557900000000  0.4857620000000  0.5441180000000 1.0
C      1  0.5675350000000  0.4895700000000  0.4820360000000 1.0
C      1  0.5348800000000  0.4814320000000  0.4397300000000 1.0
C      1  0.4699760000000  0.4886070000000  0.4341820000000 1.0
C      1  0.4298130000000  0.4871360000000  0.4809650000000 1.0
C      1  0.4463360000000  0.4890000000000  0.5456210000000 1.0
C      1  0.4968800000000  0.4790300000000  0.5708640000000 1.0
C      1  0.5355690000000  0.5698790000000  0.5029320000000 1.0
C      1  0.5278350000000  0.5692290000000  0.4722460000000 1.0
C      1  0.4958610000000  0.5727380000000  0.4705170000000 1.0
C      1  0.4685830000000  0.5622060000000  0.4813320000000 1.0
C      1  0.4698060000000  0.5678280000000  0.5123300000000 1.0
C      1  0.4921710000000  0.5638890000000  0.5354130000000 1.0
C      1  0.5225210000000  0.5580510000000  0.5292160000000 1.0
C      1  0.5719210000000  0.5173320000000  0.4756710000000 1.0
C      1  0.5319400000000  0.5090530000000  0.4373290000000 1.0
C      1  0.4654650000000  0.5167030000000  0.4300400000000 1.0
C      1  0.4250490000000  0.5156500000000  0.4847330000000 1.0
C      1  0.4430440000000  0.5171830000000  0.5508690000000 1.0
C      1  0.4969390000000  0.5069350000000  0.5753090000000 1.0
C      1  0.5597620000000  0.5147710000000  0.5450240000000 1.0
C      1  0.4804980000000  0.4813970000000  0.4621440000000 1.0
C      1  0.4584010000000  0.4773920000000  0.4868210000000 1.0
C      1  0.4688880000000  0.4815780000000  0.5269270000000 1.0
C      1  0.4991220000000  0.4736790000000  0.5416980000000 1.0
C      1  0.5360740000000  0.4749130000000  0.5227490000000 1.0
C      1  0.5392860000000  0.4834510000000  0.4909260000000 1.0
C      1  0.5189820000000  0.4759420000000  0.4648470000000 1.0
C      1  0.5511230000000  0.4436300000000  0.4229590000000 1.0
C      1  0.4706590000000  0.4466380000000  0.4145810000000 1.0
C      1  0.4126940000000  0.4463880000000  0.4691430000000 1.0
C      1  0.4234430000000  0.4480720000000  0.5481070000000 1.0
C      1  0.4878440000000  0.4414100000000  0.5925820000000 1.0
C      1  0.5641500000000  0.4447550000000  0.5645660000000 1.0
C      1  0.5901240000000  0.4485630000000  0.4901440000000 1.0
C      1  0.4334470000000  0.5629810000000  0.4309650000000 1.0
C      1  0.4013130000000  0.5603550000000  0.5054920000000 1.0
C      1  0.4556300000000  0.5728820000000  0.5730200000000 1.0
C      1  0.5320210000000  0.5560790000000  0.5916680000000 1.0
C      1  0.5897210000000  0.5607250000000  0.5385150000000 1.0
C      1  0.5708900000000  0.5738160000000  0.4546920000000 1.0
C      1  0.5128200000000  0.5553480000000  0.4037630000000 1.0
C      1  0.5315650000000  0.4031570000000  0.4883930000000 1.0
C      1  0.5102550000000  0.4010950000000  0.4685030000000 1.0
C      1  0.4818350000000  0.4051430000000  0.4732460000000 1.0
C      1  0.4673550000000  0.4024010000000  0.4982390000000 1.0
C      1  0.4787510000000  0.4054120000000  0.5249320000000 1.0
C      1  0.5055560000000  0.3980070000000  0.5340900000000 1.0
C      1  0.5298190000000  0.4017360000000  0.5175050000000 1.0
C      1  0.5094340000000  0.5256710000000  0.3952570000000 1.0
C      1  0.4206360000000  0.5295400000000  0.4274710000000 1.0
C      1  0.3942410000000  0.5303940000000  0.5167340000000 1.0
C      1  0.4446700000000  0.5490510000000  0.5862680000000 1.0
C      1  0.5374910000000  0.5256040000000  0.5962430000000 1.0
C      1  0.6016910000000  0.5303680000000  0.5311620000000 1.0
C      1  0.5884850000000  0.5514450000000  0.4482080000000 1.0
C      1  0.4631040000000  0.4459440000000  0.4949680000000 1.0
C      1  0.4711880000000  0.4487290000000  0.5245050000000 1.0
C      1  0.5019640000000  0.4413690000000  0.5366160000000 1.0
C      1  0.5282160000000  0.4458470000000  0.5221570000000 1.0
C      1  0.5353470000000  0.4466900000000  0.4913880000000 1.0
C      1  0.5129620000000  0.4448440000000  0.4673420000000 1.0
C      1  0.4818690000000  0.4490180000000  0.4680930000000 1.0
C      1  0.4941820000000  0.5286780000000  0.4682850000000 1.0
C      1  0.4726670000000  0.5186610000000  0.4841810000000 1.0
C      1  0.4713290000000  0.5236870000000  0.5128830000000 1.0
C      1  0.4907550000000  0.5149140000000  0.5329310000000 1.0
C      1  0.5186510000000  0.5148280000000  0.5234250000000 1.0
C      1  0.5305720000000  0.5260870000000  0.4995410000000 1.0
C      1  0.5210110000000  0.5191370000000  0.4729120000000 1.0
C      1  0.5254670000000  0.5928010000000  0.4420390000000 1.0
C      1  0.4975930000000  0.5824420000000  0.4432940000000 1.0
C      1  0.4417960000000  0.5890890000000  0.4771580000000 1.0
C      1  0.4459080000000  0.5866130000000  0.5071460000000 1.0
C      1  0.5007930000000  0.5874540000000  0.5536770000000 1.0
C      1  0.5343250000000  0.5875840000000  0.5513860000000 1.0
C      1  0.5504350000000  0.5892540000000  0.5205920000000 1.0
C      1  0.5679690000000  0.4335060000000  0.5374850000000 1.0
C      1  0.5718590000000  0.4357930000000  0.4713270000000 1.0
C      1  0.5225330000000  0.4350540000000  0.4285970000000 1.0
C      1  0.4550830000000  0.4351190000000  0.4368350000000 1.0
C      1  0.4211840000000  0.4352640000000  0.4954120000000 1.0
C      1  0.4475640000000  0.4346150000000  0.5583790000000 1.0
C      1  0.5112900000000  0.4325600000000  0.5751170000000 1.0
C      1  0.3795450000000  0.5144030000000  0.4934130000000 1.0
C      1  0.4213000000000  0.5182470000000  0.5879600000000 1.0
C      1  0.5198970000000  0.5129730000000  0.6177020000000 1.0
C      1  0.6044480000000  0.5134740000000  0.5584190000000 1.0
C      1  0.6096010000000  0.5198250000000  0.4569330000000 1.0
C      1  0.5355740000000  0.5126230000000  0.3873220000000 1.0
C      1  0.4299870000000  0.5141130000000  0.4012360000000 1.0
C      1  0.5501700000000  0.4728460000000  0.4146810000000 1.0
C      1  0.4626550000000  0.4751410000000  0.4081730000000 1.0
C      1  0.4037030000000  0.4752210000000  0.4717390000000 1.0
C      1  0.4211710000000  0.4771470000000  0.5574360000000 1.0
C      1  0.4934000000000  0.4706140000000  0.6007550000000 1.0
C      1  0.5733890000000  0.4736380000000  0.5655410000000 1.0
C      1  0.5955140000000  0.4779120000000  0.4831780000000 1.0
C      1  0.4821950000000  0.5158830000000  0.3845070000000 1.0
C      1  0.3975320000000  0.5166560000000  0.4427590000000 1.0
C      1  0.3922770000000  0.5188220000000  0.5448530000000 1.0
C      1  0.4716700000000  0.5134820000000  0.6044750000000 1.0
C      1  0.5654230000000  0.5144110000000  0.5942530000000 1.0
C      1  0.6161910000000  0.5192220000000  0.5073720000000 1.0
C      1  0.5778610000000  0.5137360000000  0.4147840000000 1.0
C      1  0.3943430000000  0.4731550000000  0.5192700000000 1.0
C      1  0.4473360000000  0.4709730000000  0.5965100000000 1.0
C      1  0.5411760000000  0.4693660000000  0.5989700000000 1.0
C      1  0.6036090000000  0.4722480000000  0.5288570000000 1.0
C      1  0.5905050000000  0.4715010000000  0.4371980000000 1.0
C      1  0.5063600000000  0.4707020000000  0.3934220000000 1.0
C      1  0.4185640000000  0.4715420000000  0.4279020000000 1.0
C      1  0.3965820000000  0.4890600000000  0.5441170000000 1.0
C      1  0.4689410000000  0.4848030000000  0.6107970000000 1.0
C      1  0.5655500000000  0.4846980000000  0.5926950000000 1.0
C      1  0.6115560000000  0.4893870000000  0.5059910000000 1.0
C      1  0.5776960000000  0.4851430000000  0.4147800000000 1.0
C      1  0.4814640000000  0.4858650000000  0.3864730000000 1.0
C      1  0.3983730000000  0.4866330000000  0.4437080000000 1.0
C      1  0.5093600000000  0.4077690000000  0.5605010000000 1.0
C      1  0.5532040000000  0.4104200000000  0.5306550000000 1.0
C      1  0.5563850000000  0.4132080000000  0.4788280000000 1.0
C      1  0.5183140000000  0.4109580000000  0.4433420000000 1.0
C      1  0.4663220000000  0.4137500000000  0.4513260000000 1.0
C      1  0.4406450000000  0.4137510000000  0.4955280000000 1.0
C      1  0.4600770000000  0.4134510000000  0.5445540000000 1.0
C      1  0.4284800000000  0.4473750000000  0.4429590000000 1.0
C      1  0.4114420000000  0.4486930000000  0.5203440000000 1.0
C      1  0.4588680000000  0.4458280000000  0.5832910000000 1.0
C      1  0.5388690000000  0.4446640000000  0.5818260000000 1.0
C      1  0.5882480000000  0.4478080000000  0.5200880000000 1.0
C      1  0.5737430000000  0.4463250000000  0.4436770000000 1.0
C      1  0.5007670000000  0.4464640000000  0.4103140000000 1.0
C      1  0.4897380000000  0.5316280000000  0.4386190000000 1.0
C      1  0.4482310000000  0.5302860000000  0.4731400000000 1.0
C      1  0.4451470000000  0.5332810000000  0.5258590000000 1.0
C      1  0.4869890000000  0.5377710000000  0.5541850000000 1.0
C      1  0.5332590000000  0.5276300000000  0.5453340000000 1.0
C      1  0.5607960000000  0.5335950000000  0.4982080000000 1.0
C      1  0.5380740000000  0.5410920000000  0.4587130000000 1.0
C      1  0.4855110000000  0.5754570000000  0.5776250000000 1.0
C      1  0.5454690000000  0.5645520000000  0.5666280000000 1.0
C      1  0.5777560000000  0.5767040000000  0.5154660000000 1.0
C      1  0.5484640000000  0.5763870000000  0.4347800000000 1.0
C      1  0.4896010000000  0.5599110000000  0.4240940000000 1.0
C      1  0.4294290000000  0.5680850000000  0.4615760000000 1.0
C      1  0.4219680000000  0.5754810000000  0.5221340000000 1.0
C      1  0.3838120000000  0.4841620000000  0.4937100000000 1.0
C      1  0.4246010000000  0.4879120000000  0.5856270000000 1.0
C      1  0.5186910000000  0.4814850000000  0.6142250000000 1.0
C      1  0.6014620000000  0.4829640000000  0.5564120000000 1.0
C      1  0.6059320000000  0.4889780000000  0.4569130000000 1.0
C      1  0.5338200000000  0.4821450000000  0.3908550000000 1.0
C      1  0.4330460000000  0.4836520000000  0.4047590000000 1.0
C      1  0.5404940000000  0.5535850000000  0.4164080000000 1.0
C      1  0.4591340000000  0.5587990000000  0.4126990000000 1.0
C      1  0.4049790000000  0.5568900000000  0.4751560000000 1.0
C      1  0.4323750000000  0.5596880000000  0.5468310000000 1.0
C      1  0.5017130000000  0.5539390000000  0.5925530000000 1.0
C      1  0.5736070000000  0.5555500000000  0.5637690000000 1.0
C      1  0.5785860000000  0.5595750000000  0.4888620000000 1.0
C      1  0.4439590000000  0.5228920000000  0.4452980000000 1.0
C      1  0.4222200000000  0.5218300000000  0.5120220000000 1.0
C      1  0.4607480000000  0.5293090000000  0.5704620000000 1.0
C      1  0.5230220000000  0.5180380000000  0.5711840000000 1.0
C      1  0.5743460000000  0.5226210000000  0.5218690000000 1.0
C      1  0.5676700000000  0.5303560000000  0.4479530000000 1.0
C      1  0.5090770000000  0.5156980000000  0.4229850000000 1.0
C      1  0.4948350000000  0.5302680000000  0.6123010000000 1.0
C      1  0.5770970000000  0.5251750000000  0.5688510000000 1.0
C      1  0.6073290000000  0.5342890000000  0.4834550000000 1.0
C      1  0.5547390000000  0.5284430000000  0.4053120000000 1.0
C      1  0.4587360000000  0.5274080000000  0.4016070000000 1.0
C      1  0.3989970000000  0.5265970000000  0.4713880000000 1.0
C      1  0.4100490000000  0.5333790000000  0.5640520000000 1.0
END
