TITL C-3578206-1180-331 -1.13905528275608e-06 125000 -625.566333757675 0 0 99 (C1) n - 1
REM
REM in /home/bkarasulu/work/CARBON/AIRSS/Generating-Clusters/EDIP-Nigel-Params/with-SteepDescent/Higher-Symm/SD-CG/HFTN-CG
REM
REM
REM
REM
REM
REM ./C.cell (12c818d87b63d06a65506943cc24bca4)
REM
REM compiler GCC version 9.2.1 20190827 (Red Hat 9.2.1-1)
REM options -cpp -mtune=generic -march=x86-64 -g -O0 -fpre-include=/usr/include/finclude/math-vector-fortran.h
REM seed -2107104788 1152883489 1231876294 -529957639 1924107693 75683010 -755172544 1740993226 1290459970 -614612830 -599924326 -1804506181 771542925 -581018120 -1559868691 -647048481 1886307332 -1839046773 998614955 -1215271097 -1180002844 2086728871 -1524953228 -2076139846 -1825797254 510561955 1690473078 -1755367107 440439264 -22253663 -1810560100 1091240284 -1837297140
REM
CELL 1.54180   50.00000   50.00000   50.00000   90.00000   90.00000   90.00000
LATT -1
SFAC C  
C      1  0.4677890000000  0.5003940000000  0.5166410000000 1.0
C      1  0.4993760000000  0.4897780000000  0.5342880000000 1.0
C      1  0.5278410000000  0.4951180000000  0.5222150000000 1.0
C      1  0.5363140000000  0.4969200000000  0.4895870000000 1.0
C      1  0.5142180000000  0.4853470000000  0.4665010000000 1.0
C      1  0.4822460000000  0.4967270000000  0.4655010000000 1.0
C      1  0.4627750000000  0.4848040000000  0.4903470000000 1.0
C      1  0.4929630000000  0.4532760000000  0.4151970000000 1.0
C      1  0.4350060000000  0.4493290000000  0.4587150000000 1.0
C      1  0.4161420000000  0.4588700000000  0.5242110000000 1.0
C      1  0.4675140000000  0.4545950000000  0.5725060000000 1.0
C      1  0.5384600000000  0.4562320000000  0.5683580000000 1.0
C      1  0.5802170000000  0.4578740000000  0.5104880000000 1.0
C      1  0.5582780000000  0.4553130000000  0.4412410000000 1.0
C      1  0.5195810000000  0.4539960000000  0.4135520000000 1.0
C      1  0.4617110000000  0.4463130000000  0.4505910000000 1.0
C      1  0.4097950000000  0.4520430000000  0.4992210000000 1.0
C      1  0.4571230000000  0.4511040000000  0.5469010000000 1.0
C      1  0.5121400000000  0.4501950000000  0.5615110000000 1.0
C      1  0.5599640000000  0.4513650000000  0.5283020000000 1.0
C      1  0.5601890000000  0.4500080000000  0.4685760000000 1.0
C      1  0.5776950000000  0.5416030000000  0.4700200000000 1.0
C      1  0.5138060000000  0.5406830000000  0.4290470000000 1.0
C      1  0.4546020000000  0.5355170000000  0.4273540000000 1.0
C      1  0.4202580000000  0.5386130000000  0.4905910000000 1.0
C      1  0.4475290000000  0.5442860000000  0.5556470000000 1.0
C      1  0.5127480000000  0.5258930000000  0.6002820000000 1.0
C      1  0.5676680000000  0.5425410000000  0.5431120000000 1.0
C      1  0.5060330000000  0.5311820000000  0.4789460000000 1.0
C      1  0.4621900000000  0.5273670000000  0.4728550000000 1.0
C      1  0.4665050000000  0.5289010000000  0.5036770000000 1.0
C      1  0.4942270000000  0.5557020000000  0.5665790000000 1.0
C      1  0.5126640000000  0.5307970000000  0.5263300000000 1.0
C      1  0.5378170000000  0.5360430000000  0.5104100000000 1.0
C      1  0.5338020000000  0.5275050000000  0.4835290000000 1.0
C      1  0.5179310000000  0.5532240000000  0.5475180000000 1.0
C      1  0.5612250000000  0.5539800000000  0.5159620000000 1.0
C      1  0.5485100000000  0.5492480000000  0.4663660000000 1.0
C      1  0.5008450000000  0.5498820000000  0.4570370000000 1.0
C      1  0.4712160000000  0.5524950000000  0.4571340000000 1.0
C      1  0.4430400000000  0.5494230000000  0.5082820000000 1.0
C      1  0.4715980000000  0.5615500000000  0.5496680000000 1.0
C      1  0.4977030000000  0.4921190000000  0.5674450000000 1.0
C      1  0.5511470000000  0.4959450000000  0.5433730000000 1.0
C      1  0.5682580000000  0.4959920000000  0.4855380000000 1.0
C      1  0.5306590000000  0.4929140000000  0.4390860000000 1.0
C      1  0.4714640000000  0.4920830000000  0.4360930000000 1.0
C      1  0.4314620000000  0.4901770000000  0.4810270000000 1.0
C      1  0.4443050000000  0.4982240000000  0.5371110000000 1.0
C      1  0.4273930000000  0.5065860000000  0.4553150000000 1.0
C      1  0.4210970000000  0.5144600000000  0.5281450000000 1.0
C      1  0.4760920000000  0.5108020000000  0.5762130000000 1.0
C      1  0.5430010000000  0.5131360000000  0.5666780000000 1.0
C      1  0.5833960000000  0.5128320000000  0.5070040000000 1.0
C      1  0.5542600000000  0.5130470000000  0.4405200000000 1.0
C      1  0.4871890000000  0.5077570000000  0.4157710000000 1.0
C      1  0.4832520000000  0.4132200000000  0.4781600000000 1.0
C      1  0.4679090000000  0.4044350000000  0.4998780000000 1.0
C      1  0.4802120000000  0.4154910000000  0.5224090000000 1.0
C      1  0.5057280000000  0.4055960000000  0.5273450000000 1.0
C      1  0.5297340000000  0.4146460000000  0.5164910000000 1.0
C      1  0.5311860000000  0.4124990000000  0.4865420000000 1.0
C      1  0.5082670000000  0.4013660000000  0.4752440000000 1.0
C      1  0.5838100000000  0.5417690000000  0.4985900000000 1.0
C      1  0.5430210000000  0.5410350000000  0.4375210000000 1.0
C      1  0.4787500000000  0.5354310000000  0.4128720000000 1.0
C      1  0.4321760000000  0.5336730000000  0.4652990000000 1.0
C      1  0.4285750000000  0.5434940000000  0.5338960000000 1.0
C      1  0.4888830000000  0.5350620000000  0.5877850000000 1.0
C      1  0.5443570000000  0.5426710000000  0.5614260000000 1.0
C      1  0.5340810000000  0.4428420000000  0.4823810000000 1.0
C      1  0.5102670000000  0.4553820000000  0.4693030000000 1.0
C      1  0.4820500000000  0.4428360000000  0.4731610000000 1.0
C      1  0.4697230000000  0.4561140000000  0.4968130000000 1.0
C      1  0.4775190000000  0.4453490000000  0.5244360000000 1.0
C      1  0.5053950000000  0.4581060000000  0.5329520000000 1.0
C      1  0.5327700000000  0.4452440000000  0.5166150000000 1.0
C      1  0.5400550000000  0.5799020000000  0.5080300000000 1.0
C      1  0.5359470000000  0.5764820000000  0.4776370000000 1.0
C      1  0.5082290000000  0.5770760000000  0.4678180000000 1.0
C      1  0.4708920000000  0.5771100000000  0.4759560000000 1.0
C      1  0.4595810000000  0.5756350000000  0.5033160000000 1.0
C      1  0.4794900000000  0.5771590000000  0.5254660000000 1.0
C      1  0.5164380000000  0.5776620000000  0.5274270000000 1.0
C      1  0.5143820000000  0.5108640000000  0.4216170000000 1.0
C      1  0.4460410000000  0.5074500000000  0.4325010000000 1.0
C      1  0.4153990000000  0.5106130000000  0.4994800000000 1.0
C      1  0.4521650000000  0.5154270000000  0.5607980000000 1.0
C      1  0.5207310000000  0.5048300000000  0.5828470000000 1.0
C      1  0.5747700000000  0.5133680000000  0.5354980000000 1.0
C      1  0.5752890000000  0.5124610000000  0.4611130000000 1.0
C      1  0.4704100000000  0.4629540000000  0.4283310000000 1.0
C      1  0.4190160000000  0.4638300000000  0.4761520000000 1.0
C      1  0.4352640000000  0.4694560000000  0.5414220000000 1.0
C      1  0.4928290000000  0.4642620000000  0.5777020000000 1.0
C      1  0.5577700000000  0.4678290000000  0.5519710000000 1.0
C      1  0.5775400000000  0.4674560000000  0.4846250000000 1.0
C      1  0.5398610000000  0.4684230000000  0.4253750000000 1.0
C      1  0.4939090000000  0.5385640000000  0.5042870000000 1.0
END
