TITL C-3578207-9274-639 -2.94506273337375e-06 125000 -1004.73215372216 0 0 164 (C1) n - 1
REM
REM in /home/bkarasulu/work/CARBON/AIRSS/Generating-Clusters/EDIP-Nigel-Params/with-SteepDescent/Higher-Symm/SD-CG/HFTN-CG
REM
REM
REM
REM
REM
REM ./C.cell (12c818d87b63d06a65506943cc24bca4)
REM
REM compiler GCC version 9.2.1 20190827 (Red Hat 9.2.1-1)
REM options -cpp -mtune=generic -march=x86-64 -g -O0 -fpre-include=/usr/include/finclude/math-vector-fortran.h
REM seed -471028584 -455650217 1920684194 397220012 873464552 -715101168 477114388 -1554986931 1951012231 -518862943 622094622 1606464235 -67554415 19177247 943160446 1680313981 848116214 -2121941467 -1072189387 -1566118723 939715257 -1719139122 2061742885 -1355677137 -39967503 561416357 76402596 -1430400242 1593069222 723924733 692137919 -832728287 1264293125
REM
CELL 1.54180   50.00000   50.00000   50.00000   90.00000   90.00000   90.00000
LATT -1
SFAC C  
C      1  0.5709010000000  0.4435970000000  0.4582040000000 1.0
C      1  0.5305160000000  0.4097600000000  0.4570630000000 1.0
C      1  0.4783720000000  0.3960550000000  0.4598080000000 1.0
C      1  0.4341500000000  0.4302080000000  0.4560690000000 1.0
C      1  0.4119920000000  0.4790220000000  0.4549500000000 1.0
C      1  0.4173620000000  0.5323910000000  0.4524000000000 1.0
C      1  0.4450010000000  0.5777550000000  0.4502080000000 1.0
C      1  0.4955690000000  0.5930460000000  0.4502840000000 1.0
C      1  0.5470330000000  0.5789900000000  0.4506360000000 1.0
C      1  0.5872700000000  0.5425860000000  0.4537410000000 1.0
C      1  0.5973490000000  0.4887330000000  0.4568060000000 1.0
C      1  0.4678070000000  0.5964640000000  0.4601850000000 1.0
C      1  0.5225720000000  0.5926260000000  0.4618220000000 1.0
C      1  0.5728490000000  0.5682760000000  0.4628370000000 1.0
C      1  0.5976190000000  0.5169880000000  0.4669540000000 1.0
C      1  0.5963000000000  0.4597390000000  0.4676230000000 1.0
C      1  0.5581060000000  0.4175570000000  0.4700810000000 1.0
C      1  0.5072500000000  0.3929850000000  0.4737260000000 1.0
C      1  0.4514340000000  0.4016910000000  0.4731900000000 1.0
C      1  0.4145440000000  0.4517930000000  0.4655520000000 1.0
C      1  0.4086020000000  0.5065340000000  0.4640360000000 1.0
C      1  0.4206690000000  0.5612420000000  0.4605240000000 1.0
C      1  0.4087190000000  0.5100870000000  0.5479900000000 1.0
C      1  0.4271440000000  0.5591240000000  0.5461970000000 1.0
C      1  0.4692740000000  0.5891180000000  0.5450780000000 1.0
C      1  0.5211300000000  0.5894440000000  0.5462850000000 1.0
C      1  0.5675910000000  0.5666920000000  0.5477440000000 1.0
C      1  0.5899440000000  0.5203960000000  0.5521270000000 1.0
C      1  0.5871360000000  0.4679820000000  0.5538590000000 1.0
C      1  0.5543980000000  0.4269280000000  0.5569360000000 1.0
C      1  0.5059200000000  0.4059190000000  0.5581040000000 1.0
C      1  0.4545240000000  0.4192140000000  0.5570080000000 1.0
C      1  0.4175460000000  0.4575050000000  0.5517000000000 1.0
C      1  0.5357670000000  0.4740330000000  0.4466930000000 1.0
C      1  0.5151080000000  0.4556990000000  0.4369910000000 1.0
C      1  0.4903200000000  0.4695490000000  0.4261300000000 1.0
C      1  0.4651180000000  0.4664640000000  0.4424220000000 1.0
C      1  0.4549900000000  0.4875930000000  0.4603880000000 1.0
C      1  0.4614260000000  0.5159530000000  0.4598190000000 1.0
C      1  0.4722680000000  0.5338800000000  0.4401600000000 1.0
C      1  0.4958680000000  0.5429390000000  0.4537220000000 1.0
C      1  0.5210520000000  0.5388700000000  0.4405360000000 1.0
C      1  0.5402940000000  0.5182550000000  0.4467050000000 1.0
C      1  0.5464230000000  0.4952800000000  0.4311200000000 1.0
C      1  0.4959820000000  0.5979300000000  0.5031280000000 1.0
C      1  0.5472940000000  0.5816650000000  0.5041630000000 1.0
C      1  0.5900610000000  0.5469700000000  0.5076010000000 1.0
C      1  0.5986520000000  0.4920150000000  0.5112280000000 1.0
C      1  0.5764500000000  0.4407000000000  0.5130450000000 1.0
C      1  0.5323650000000  0.4084730000000  0.5150230000000 1.0
C      1  0.4794640000000  0.4030640000000  0.5157710000000 1.0
C      1  0.4347560000000  0.4313250000000  0.5113820000000 1.0
C      1  0.4095040000000  0.4820990000000  0.5072220000000 1.0
C      1  0.4094640000000  0.5363920000000  0.5040500000000 1.0
C      1  0.4432030000000  0.5809120000000  0.5030000000000 1.0
C      1  0.4469730000000  0.5075770000000  0.6080550000000 1.0
C      1  0.4576090000000  0.5349030000000  0.6073860000000 1.0
C      1  0.4815670000000  0.5514340000000  0.6042200000000 1.0
C      1  0.5102570000000  0.5533970000000  0.6096340000000 1.0
C      1  0.5337950000000  0.5374160000000  0.6031680000000 1.0
C      1  0.5473160000000  0.5133090000000  0.6122630000000 1.0
C      1  0.5442660000000  0.4850510000000  0.6059570000000 1.0
C      1  0.5281610000000  0.4623800000000  0.6146200000000 1.0
C      1  0.5013720000000  0.4526840000000  0.6083860000000 1.0
C      1  0.4731870000000  0.4584770000000  0.6136560000000 1.0
C      1  0.4533670000000  0.4789840000000  0.6072060000000 1.0
C      1  0.5742020000000  0.5182130000000  0.6045380000000 1.0
C      1  0.5702650000000  0.4752120000000  0.6028270000000 1.0
C      1  0.5442670000000  0.4397380000000  0.6089210000000 1.0
C      1  0.5041890000000  0.4248570000000  0.6068220000000 1.0
C      1  0.4589370000000  0.4346060000000  0.6086160000000 1.0
C      1  0.4295610000000  0.4648480000000  0.6025920000000 1.0
C      1  0.4201110000000  0.5108680000000  0.6003830000000 1.0
C      1  0.4357930000000  0.5506230000000  0.5989390000000 1.0
C      1  0.4734020000000  0.5772340000000  0.5968460000000 1.0
C      1  0.5161860000000  0.5794570000000  0.5999690000000 1.0
C      1  0.5536740000000  0.5561490000000  0.5972570000000 1.0
C      1  0.4463200000000  0.5764680000000  0.5320310000000 1.0
C      1  0.4955140000000  0.5863060000000  0.5304410000000 1.0
C      1  0.5452290000000  0.5789940000000  0.5329270000000 1.0
C      1  0.5814080000000  0.5437480000000  0.5356600000000 1.0
C      1  0.5927070000000  0.4935460000000  0.5397210000000 1.0
C      1  0.5712970000000  0.4461500000000  0.5411730000000 1.0
C      1  0.5311910000000  0.4132020000000  0.5438300000000 1.0
C      1  0.4795690000000  0.4084170000000  0.5443660000000 1.0
C      1  0.4355500000000  0.4359160000000  0.5406720000000 1.0
C      1  0.4108080000000  0.4828360000000  0.5361690000000 1.0
C      1  0.4203310000000  0.5334360000000  0.5318450000000 1.0
C      1  0.5104340000000  0.4683120000000  0.3823230000000 1.0
C      1  0.4862510000000  0.4666040000000  0.3965530000000 1.0
C      1  0.4651490000000  0.4829160000000  0.3878210000000 1.0
C      1  0.4537350000000  0.5074470000000  0.3872430000000 1.0
C      1  0.4583760000000  0.5329960000000  0.3769720000000 1.0
C      1  0.4709150000000  0.5569090000000  0.3904430000000 1.0
C      1  0.4973650000000  0.5592090000000  0.3760880000000 1.0
C      1  0.5231620000000  0.5532940000000  0.3852940000000 1.0
C      1  0.5408940000000  0.5328870000000  0.3831750000000 1.0
C      1  0.5449510000000  0.5064250000000  0.3788920000000 1.0
C      1  0.5334950000000  0.4818740000000  0.3779010000000 1.0
C      1  0.5361920000000  0.4507480000000  0.4935650000000 1.0
C      1  0.5092340000000  0.4435790000000  0.4849130000000 1.0
C      1  0.4871940000000  0.4556260000000  0.4995650000000 1.0
C      1  0.4606680000000  0.4502480000000  0.4886540000000 1.0
C      1  0.4578000000000  0.4946970000000  0.5122690000000 1.0
C      1  0.4505300000000  0.5233350000000  0.5088430000000 1.0
C      1  0.4778130000000  0.5339930000000  0.5191430000000 1.0
C      1  0.4977930000000  0.5548130000000  0.5070390000000 1.0
C      1  0.5269030000000  0.5445870000000  0.5127120000000 1.0
C      1  0.5543010000000  0.5298960000000  0.5030770000000 1.0
C      1  0.5561400000000  0.5018760000000  0.5047970000000 1.0
C      1  0.4682100000000  0.5977060000000  0.4899100000000 1.0
C      1  0.5225180000000  0.5918790000000  0.4902730000000 1.0
C      1  0.5716620000000  0.5687030000000  0.4919410000000 1.0
C      1  0.5964670000000  0.5183490000000  0.4957890000000 1.0
C      1  0.5919380000000  0.4635270000000  0.4982250000000 1.0
C      1  0.5524880000000  0.4260620000000  0.4988890000000 1.0
C      1  0.5061150000000  0.4023610000000  0.5017910000000 1.0
C      1  0.4538230000000  0.4089820000000  0.5013180000000 1.0
C      1  0.4170250000000  0.4543380000000  0.4952330000000 1.0
C      1  0.4095820000000  0.5083460000000  0.4923670000000 1.0
C      1  0.4190560000000  0.5629310000000  0.4903160000000 1.0
C      1  0.4688890000000  0.4647680000000  0.5452520000000 1.0
C      1  0.4543100000000  0.4882190000000  0.5413870000000 1.0
C      1  0.4634220000000  0.5105720000000  0.5564190000000 1.0
C      1  0.4765310000000  0.5341850000000  0.5482930000000 1.0
C      1  0.5021740000000  0.5402290000000  0.5571090000000 1.0
C      1  0.5243500000000  0.5335430000000  0.5411760000000 1.0
C      1  0.5272150000000  0.5050370000000  0.5418150000000 1.0
C      1  0.5343640000000  0.4921670000000  0.5175830000000 1.0
C      1  0.5367190000000  0.4645550000000  0.5203480000000 1.0
C      1  0.5157280000000  0.4577770000000  0.5391190000000 1.0
C      1  0.4894300000000  0.4555380000000  0.5284650000000 1.0
C      1  0.4696220000000  0.5890230000000  0.5728080000000 1.0
C      1  0.5198560000000  0.5884330000000  0.5742950000000 1.0
C      1  0.5654410000000  0.5663990000000  0.5753260000000 1.0
C      1  0.5854320000000  0.5212130000000  0.5797190000000 1.0
C      1  0.5855010000000  0.4696650000000  0.5813450000000 1.0
C      1  0.5528960000000  0.4303940000000  0.5846600000000 1.0
C      1  0.5058680000000  0.4082520000000  0.5856430000000 1.0
C      1  0.4541570000000  0.4223480000000  0.5847290000000 1.0
C      1  0.4167240000000  0.4593820000000  0.5794000000000 1.0
C      1  0.4086690000000  0.5118860000000  0.5757660000000 1.0
C      1  0.4282010000000  0.5585840000000  0.5740410000000 1.0
C      1  0.4607610000000  0.5569200000000  0.4775350000000 1.0
C      1  0.4922280000000  0.5631850000000  0.4756040000000 1.0
C      1  0.5334690000000  0.5525330000000  0.4744170000000 1.0
C      1  0.5554250000000  0.5287730000000  0.4696980000000 1.0
C      1  0.5671630000000  0.4884890000000  0.4808310000000 1.0
C      1  0.5516820000000  0.4645590000000  0.4698870000000 1.0
C      1  0.5094120000000  0.4337840000000  0.4563520000000 1.0
C      1  0.4826380000000  0.4230900000000  0.4498770000000 1.0
C      1  0.4614220000000  0.4422080000000  0.4582990000000 1.0
C      1  0.4478680000000  0.4772770000000  0.4879460000000 1.0
C      1  0.4456930000000  0.5304290000000  0.4789570000000 1.0
C      1  0.4882250000000  0.4972950000000  0.5140370000000 1.0
C      1  0.5011150000000  0.4960320000000  0.4885850000000 1.0
C      1  0.4871970000000  0.5317630000000  0.3657330000000 1.0
C      1  0.4957120000000  0.4972660000000  0.4322140000000 1.0
C      1  0.5010460000000  0.5116700000000  0.3815420000000 1.0
C      1  0.5036840000000  0.5127810000000  0.4094400000000 1.0
C      1  0.5027770000000  0.4998630000000  0.4612020000000 1.0
C      1  0.5022910000000  0.4919960000000  0.5494560000000 1.0
C      1  0.4941450000000  0.4962560000000  0.6034810000000 1.0
C      1  0.4981820000000  0.4939770000000  0.5779820000000 1.0
END
