TITL C-3577079-311-601 -8.29471446522814e-06 125000 -785.333537092282 0 0 126 (C1) n - 1
REM
REM in /home/bkarasulu/work/CARBON/AIRSS/Generating-Clusters/EDIP-Nigel-Params/with-SteepDescent/Higher-Symm/SD-CG/HFTN-CG
REM
REM
REM
REM
REM
REM ./C.cell (12c818d87b63d06a65506943cc24bca4)
REM
REM compiler GCC version 9.2.1 20190827 (Red Hat 9.2.1-1)
REM options -cpp -mtune=generic -march=x86-64 -g -O0 -fpre-include=/usr/include/finclude/math-vector-fortran.h
REM seed 1987348786 -1895603403 -994947635 -1704560111 609404270 1462462753 604775113 1518794728 1792749298 108157184 -1961430919 -1969154386 -1469726936 -824807858 -2044958402 -142073785 -1610032929 -1802726253 -404786780 -1521473135 -1060034403 -1172861209 -1932705015 19782244 730184703 673844569 -1814085496 -530077261 -1091219774 1911449882 -603042253 -409016478 -584236403
REM
CELL 1.54180   50.00000   50.00000   50.00000   90.00000   90.00000   90.00000
LATT -1
SFAC C  
C      1  0.5448480000000  0.4841510000000  0.4303600000000 1.0
C      1  0.5779820000000  0.4823850000000  0.5220330000000 1.0
C      1  0.5038710000000  0.4846230000000  0.5849510000000 1.0
C      1  0.4238940000000  0.4850650000000  0.5296570000000 1.0
C      1  0.4482580000000  0.4842460000000  0.4360290000000 1.0
C      1  0.5309690000000  0.5403020000000  0.4385290000000 1.0
C      1  0.5675920000000  0.5412040000000  0.5120810000000 1.0
C      1  0.5128860000000  0.5371700000000  0.5628700000000 1.0
C      1  0.4453720000000  0.5389850000000  0.5305180000000 1.0
C      1  0.4486760000000  0.5429540000000  0.4501160000000 1.0
C      1  0.4602290000000  0.4890280000000  0.5640270000000 1.0
C      1  0.4263070000000  0.4865680000000  0.4813090000000 1.0
C      1  0.4949180000000  0.4879580000000  0.4253190000000 1.0
C      1  0.5686270000000  0.4868520000000  0.4725470000000 1.0
C      1  0.5467810000000  0.4867990000000  0.5579660000000 1.0
C      1  0.4764020000000  0.4316690000000  0.4832130000000 1.0
C      1  0.5086190000000  0.4298090000000  0.4694490000000 1.0
C      1  0.5289660000000  0.4404750000000  0.4926460000000 1.0
C      1  0.5130890000000  0.4254120000000  0.5205060000000 1.0
C      1  0.4810840000000  0.4357640000000  0.5171360000000 1.0
C      1  0.4667640000000  0.3889650000000  0.4761910000000 1.0
C      1  0.5107770000000  0.3869980000000  0.4590400000000 1.0
C      1  0.5394550000000  0.3885950000000  0.4979970000000 1.0
C      1  0.5181500000000  0.3864470000000  0.5392210000000 1.0
C      1  0.4745040000000  0.3865560000000  0.5228610000000 1.0
C      1  0.4850380000000  0.4696670000000  0.5223080000000 1.0
C      1  0.4734830000000  0.4702480000000  0.4922570000000 1.0
C      1  0.4971290000000  0.4680820000000  0.4730860000000 1.0
C      1  0.5218220000000  0.4695770000000  0.4919890000000 1.0
C      1  0.5146000000000  0.4726390000000  0.5201220000000 1.0
C      1  0.4673840000000  0.4938830000000  0.4172860000000 1.0
C      1  0.5681320000000  0.4935760000000  0.4439090000000 1.0
C      1  0.5738690000000  0.4919760000000  0.5484310000000 1.0
C      1  0.4775800000000  0.4955420000000  0.5868270000000 1.0
C      1  0.4113830000000  0.4937170000000  0.5056530000000 1.0
C      1  0.5347190000000  0.3939030000000  0.4710870000000 1.0
C      1  0.5414310000000  0.3920540000000  0.5255750000000 1.0
C      1  0.4918380000000  0.3936810000000  0.5430730000000 1.0
C      1  0.4589840000000  0.3950830000000  0.5017870000000 1.0
C      1  0.4840880000000  0.3934810000000  0.4553180000000 1.0
C      1  0.5135960000000  0.6295260000000  0.5187310000000 1.0
C      1  0.4839320000000  0.6306650000000  0.5130330000000 1.0
C      1  0.4793390000000  0.6269270000000  0.4833980000000 1.0
C      1  0.5066150000000  0.6238430000000  0.4702330000000 1.0
C      1  0.5281210000000  0.6254330000000  0.4924030000000 1.0
C      1  0.4797120000000  0.5261610000000  0.5057640000000 1.0
C      1  0.4848280000000  0.5343020000000  0.4785860000000 1.0
C      1  0.5139330000000  0.5295300000000  0.4776350000000 1.0
C      1  0.5255550000000  0.5322110000000  0.5047560000000 1.0
C      1  0.5021110000000  0.5277800000000  0.5210030000000 1.0
C      1  0.5479500000000  0.4150850000000  0.4595970000000 1.0
C      1  0.5528070000000  0.4156700000000  0.5348010000000 1.0
C      1  0.4871590000000  0.4180250000000  0.5554660000000 1.0
C      1  0.4430540000000  0.4171350000000  0.5056910000000 1.0
C      1  0.4787060000000  0.4166870000000  0.4415990000000 1.0
C      1  0.5645540000000  0.4584100000000  0.5116750000000 1.0
C      1  0.5087940000000  0.4599080000000  0.5702120000000 1.0
C      1  0.4391020000000  0.4601010000000  0.5305810000000 1.0
C      1  0.4522600000000  0.4587450000000  0.4500240000000 1.0
C      1  0.5322160000000  0.4589610000000  0.4380390000000 1.0
C      1  0.4688580000000  0.5122330000000  0.4632540000000 1.0
C      1  0.5239960000000  0.5090000000000  0.4604100000000 1.0
C      1  0.5449520000000  0.5098270000000  0.5107930000000 1.0
C      1  0.5049490000000  0.5125170000000  0.5448200000000 1.0
C      1  0.4568000000000  0.5125130000000  0.5179480000000 1.0
C      1  0.5634870000000  0.5418790000000  0.5563430000000 1.0
C      1  0.4674580000000  0.5440930000000  0.5757610000000 1.0
C      1  0.4180440000000  0.5422840000000  0.4927640000000 1.0
C      1  0.4824490000000  0.5417210000000  0.4211900000000 1.0
C      1  0.5696910000000  0.5416700000000  0.4603220000000 1.0
C      1  0.4917870000000  0.5957180000000  0.5459060000000 1.0
C      1  0.4532880000000  0.5933590000000  0.5071210000000 1.0
C      1  0.4793840000000  0.5838700000000  0.4607910000000 1.0
C      1  0.5307890000000  0.5832340000000  0.4713240000000 1.0
C      1  0.5406810000000  0.5887770000000  0.5234600000000 1.0
C      1  0.4399470000000  0.4446330000000  0.5041700000000 1.0
C      1  0.4781800000000  0.4444640000000  0.4414850000000 1.0
C      1  0.5493290000000  0.4433040000000  0.4589240000000 1.0
C      1  0.5456360000000  0.4434280000000  0.5328880000000 1.0
C      1  0.4845640000000  0.4456090000000  0.5595870000000 1.0
C      1  0.4576520000000  0.4594220000000  0.5557970000000 1.0
C      1  0.4343660000000  0.4571590000000  0.4765050000000 1.0
C      1  0.5022750000000  0.4589100000000  0.4298850000000 1.0
C      1  0.5672620000000  0.4578640000000  0.4805820000000 1.0
C      1  0.5379130000000  0.4576770000000  0.5599060000000 1.0
C      1  0.4613220000000  0.6033190000000  0.4783940000000 1.0
C      1  0.5076960000000  0.5977300000000  0.4554230000000 1.0
C      1  0.5452080000000  0.6005320000000  0.4939960000000 1.0
C      1  0.5196100000000  0.6076150000000  0.5382730000000 1.0
C      1  0.4697010000000  0.6095520000000  0.5283900000000 1.0
C      1  0.5191610000000  0.5680110000000  0.5183040000000 1.0
C      1  0.4918080000000  0.5693600000000  0.5329620000000 1.0
C      1  0.4700790000000  0.5688810000000  0.5100910000000 1.0
C      1  0.4849350000000  0.5647770000000  0.4838080000000 1.0
C      1  0.5119740000000  0.5716020000000  0.4907360000000 1.0
C      1  0.5238110000000  0.4961910000000  0.6006640000000 1.0
C      1  0.4137190000000  0.4968770000000  0.5528130000000 1.0
C      1  0.4231620000000  0.4963100000000  0.4341520000000 1.0
C      1  0.5392020000000  0.4963760000000  0.4058270000000 1.0
C      1  0.5998880000000  0.4940060000000  0.5091260000000 1.0
C      1  0.4964100000000  0.4949910000000  0.4551700000000 1.0
C      1  0.5408830000000  0.4940090000000  0.4835460000000 1.0
C      1  0.5287930000000  0.4950270000000  0.5343960000000 1.0
C      1  0.4753120000000  0.4963720000000  0.5384650000000 1.0
C      1  0.4550890000000  0.4950850000000  0.4866770000000 1.0
C      1  0.5803000000000  0.5190680000000  0.5528390000000 1.0
C      1  0.4745890000000  0.5227850000000  0.5933260000000 1.0
C      1  0.4038500000000  0.5209300000000  0.5050100000000 1.0
C      1  0.4656140000000  0.5212820000000  0.4108820000000 1.0
C      1  0.5738180000000  0.5210670000000  0.4411420000000 1.0
C      1  0.4292560000000  0.5314850000000  0.4677820000000 1.0
C      1  0.5108550000000  0.5340450000000  0.4185240000000 1.0
C      1  0.5795880000000  0.5329170000000  0.4867680000000 1.0
C      1  0.5404680000000  0.5344380000000  0.5745640000000 1.0
C      1  0.4430000000000  0.5361850000000  0.5600890000000 1.0
C      1  0.4702590000000  0.5600790000000  0.4416110000000 1.0
C      1  0.5456930000000  0.5592600000000  0.4554210000000 1.0
C      1  0.5601220000000  0.5607010000000  0.5325980000000 1.0
C      1  0.4917830000000  0.5602870000000  0.5636480000000 1.0
C      1  0.4325570000000  0.5605950000000  0.5124320000000 1.0
C      1  0.5131000000000  0.5060490000000  0.4086880000000 1.0
C      1  0.5893740000000  0.5047600000000  0.4855840000000 1.0
C      1  0.5430520000000  0.5051200000000  0.5823070000000 1.0
C      1  0.4359750000000  0.5070720000000  0.5661940000000 1.0
C      1  0.4176000000000  0.5055330000000  0.4598540000000 1.0
C      1  0.5007200000000  0.4079090000000  0.4954880000000 1.0
END
