TITL C-3578207-9274-569 -4.8432211893477e-07 125000 -594.747166733897 0 0 96 (C1) n - 1
REM
REM in /home/bkarasulu/work/CARBON/AIRSS/Generating-Clusters/EDIP-Nigel-Params/with-SteepDescent/Higher-Symm/SD-CG/HFTN-CG
REM
REM
REM
REM
REM
REM ./C.cell (12c818d87b63d06a65506943cc24bca4)
REM
REM compiler GCC version 9.2.1 20190827 (Red Hat 9.2.1-1)
REM options -cpp -mtune=generic -march=x86-64 -g -O0 -fpre-include=/usr/include/finclude/math-vector-fortran.h
REM seed -543633135 170377908 1779097225 -1675308858 2056608577 380889724 -1751033870 -141223355 803387291 -1848205278 540667832 -1882174538 -1096084089 -1326849384 -827268322 894817485 -1089622092 1001323747 -566981625 -425025566 -440925721 -1166714929 -2020790002 1288881088 -1789445467 -897626521 1011701570 1250057239 -552584318 -1202390506 1195618027 -1372542952 50828879
REM
CELL 1.54180   50.00000   50.00000   50.00000   90.00000   90.00000   90.00000
LATT -1
SFAC C  
C      1  0.5667860000000  0.4640140000000  0.5548560000000 1.0
C      1  0.4888620000000  0.4724180000000  0.5764220000000 1.0
C      1  0.5416020000000  0.5041610000000  0.5619790000000 1.0
C      1  0.5612320000000  0.4612870000000  0.4470250000000 1.0
C      1  0.5248980000000  0.4587440000000  0.4831820000000 1.0
C      1  0.4279440000000  0.5332960000000  0.5418500000000 1.0
C      1  0.4121380000000  0.4709160000000  0.5208820000000 1.0
C      1  0.5228150000000  0.5607880000000  0.4959170000000 1.0
C      1  0.5444230000000  0.5048660000000  0.4512270000000 1.0
C      1  0.4881280000000  0.5931630000000  0.4967320000000 1.0
C      1  0.5140760000000  0.4366530000000  0.5039200000000 1.0
C      1  0.5419390000000  0.4795140000000  0.4351930000000 1.0
C      1  0.5213640000000  0.4874270000000  0.5439560000000 1.0
C      1  0.4326670000000  0.5443830000000  0.4918910000000 1.0
C      1  0.5232270000000  0.5299060000000  0.5320160000000 1.0
C      1  0.4614100000000  0.5197570000000  0.5737190000000 1.0
C      1  0.5280110000000  0.4830820000000  0.5060790000000 1.0
C      1  0.5364850000000  0.5711990000000  0.5430820000000 1.0
C      1  0.4795280000000  0.5376090000000  0.5096460000000 1.0
C      1  0.4544140000000  0.5756720000000  0.4695940000000 1.0
C      1  0.4931620000000  0.4908200000000  0.4199190000000 1.0
C      1  0.5064590000000  0.4386780000000  0.4338030000000 1.0
C      1  0.4981280000000  0.5194010000000  0.4319580000000 1.0
C      1  0.4379350000000  0.5119820000000  0.5217890000000 1.0
C      1  0.4579870000000  0.4729900000000  0.4833110000000 1.0
C      1  0.5692240000000  0.4375590000000  0.4871190000000 1.0
C      1  0.4872790000000  0.5035570000000  0.5741780000000 1.0
C      1  0.4955070000000  0.4822990000000  0.5085100000000 1.0
C      1  0.4648330000000  0.4807560000000  0.4214190000000 1.0
C      1  0.4476110000000  0.5549060000000  0.5404210000000 1.0
C      1  0.4620260000000  0.5833690000000  0.4974020000000 1.0
C      1  0.4301700000000  0.4726490000000  0.4740480000000 1.0
C      1  0.4485410000000  0.4905480000000  0.4442090000000 1.0
C      1  0.5338560000000  0.5019550000000  0.5900580000000 1.0
C      1  0.5147660000000  0.4647430000000  0.5640640000000 1.0
C      1  0.5705550000000  0.5027160000000  0.5259920000000 1.0
C      1  0.5492700000000  0.4459650000000  0.4692550000000 1.0
C      1  0.4589470000000  0.4716060000000  0.5373860000000 1.0
C      1  0.5053380000000  0.5724330000000  0.5414760000000 1.0
C      1  0.4849310000000  0.4308020000000  0.5480110000000 1.0
C      1  0.4928850000000  0.5588740000000  0.5650030000000 1.0
C      1  0.5033820000000  0.5709340000000  0.4573770000000 1.0
C      1  0.5783670000000  0.4932470000000  0.4771550000000 1.0
C      1  0.4947170000000  0.4118100000000  0.4717020000000 1.0
C      1  0.5502660000000  0.5232340000000  0.5151520000000 1.0
C      1  0.4441400000000  0.4333700000000  0.5064030000000 1.0
C      1  0.5153950000000  0.5440350000000  0.5782880000000 1.0
C      1  0.5036100000000  0.4721800000000  0.4626140000000 1.0
C      1  0.4719180000000  0.4291900000000  0.4658950000000 1.0
C      1  0.4220620000000  0.4521750000000  0.4984860000000 1.0
C      1  0.5839460000000  0.4754860000000  0.4561560000000 1.0
C      1  0.4128250000000  0.4986260000000  0.5100750000000 1.0
C      1  0.4872450000000  0.5161100000000  0.4899540000000 1.0
C      1  0.4551220000000  0.5554530000000  0.5102530000000 1.0
C      1  0.4385040000000  0.5193370000000  0.4781210000000 1.0
C      1  0.4883020000000  0.4523830000000  0.5101320000000 1.0
C      1  0.5158230000000  0.4210980000000  0.4544090000000 1.0
C      1  0.5247300000000  0.5633060000000  0.4383780000000 1.0
C      1  0.5104200000000  0.5844140000000  0.4823770000000 1.0
C      1  0.4737740000000  0.4972560000000  0.5267510000000 1.0
C      1  0.4496140000000  0.5190490000000  0.4507440000000 1.0
C      1  0.5638440000000  0.5485460000000  0.5068250000000 1.0
C      1  0.4312880000000  0.4770410000000  0.5436350000000 1.0
C      1  0.5130590000000  0.4698670000000  0.4330950000000 1.0
C      1  0.4292220000000  0.5627520000000  0.4704100000000 1.0
C      1  0.5493110000000  0.5275640000000  0.4322090000000 1.0
C      1  0.5587410000000  0.4482000000000  0.5329490000000 1.0
C      1  0.4731010000000  0.5345210000000  0.4425070000000 1.0
C      1  0.5144680000000  0.5090680000000  0.4555580000000 1.0
C      1  0.5208640000000  0.5372720000000  0.4215030000000 1.0
C      1  0.5049950000000  0.5509430000000  0.5188790000000 1.0
C      1  0.5463190000000  0.5707850000000  0.5138700000000 1.0
C      1  0.5095630000000  0.5170270000000  0.5896490000000 1.0
C      1  0.4988430000000  0.4102680000000  0.5013630000000 1.0
C      1  0.4704590000000  0.4552770000000  0.5595480000000 1.0
C      1  0.5365770000000  0.5426090000000  0.5567820000000 1.0
C      1  0.5736920000000  0.4544790000000  0.5090030000000 1.0
C      1  0.5772460000000  0.4833580000000  0.5045310000000 1.0
C      1  0.5526980000000  0.5542640000000  0.4464450000000 1.0
C      1  0.4618980000000  0.4528150000000  0.4196200000000 1.0
C      1  0.5705610000000  0.5464680000000  0.4788720000000 1.0
C      1  0.5314720000000  0.4362120000000  0.5290690000000 1.0
C      1  0.5394500000000  0.5082050000000  0.4911940000000 1.0
C      1  0.4967680000000  0.5062840000000  0.5455800000000 1.0
C      1  0.4686200000000  0.5434840000000  0.5581160000000 1.0
C      1  0.5138570000000  0.4375420000000  0.5524130000000 1.0
C      1  0.4360260000000  0.5107660000000  0.5609640000000 1.0
C      1  0.4185270000000  0.4987530000000  0.4818140000000 1.0
C      1  0.5151690000000  0.5257060000000  0.4811540000000 1.0
C      1  0.4783580000000  0.4431230000000  0.4405590000000 1.0
C      1  0.4774440000000  0.4904430000000  0.4699290000000 1.0
C      1  0.4655790000000  0.4461210000000  0.4903070000000 1.0
C      1  0.4754230000000  0.4166220000000  0.5217170000000 1.0
C      1  0.5778230000000  0.5204970000000  0.4721620000000 1.0
C      1  0.4761240000000  0.5607900000000  0.4553350000000 1.0
C      1  0.5670920000000  0.4921740000000  0.5535140000000 1.0
END
