TITL C-3577091-527-678 4.3286315171412e-07 125000 -158.158860640339 0 0 27 (C1) n - 1
REM
REM in /home/bkarasulu/work/CARBON/AIRSS/Generating-Clusters/EDIP-Nigel-Params/with-SteepDescent/Higher-Symm/SD-CG/HFTN-CG
REM
REM
REM
REM
REM
REM ./C.cell (12c818d87b63d06a65506943cc24bca4)
REM
REM compiler GCC version 9.2.1 20190827 (Red Hat 9.2.1-1)
REM options -cpp -mtune=generic -march=x86-64 -g -O0 -fpre-include=/usr/include/finclude/math-vector-fortran.h
REM seed -1313280664 827732776 415531098 125194952 543763681 1373673143 -334531562 -568506550 -2058323717 -1403646180 -1674005616 16076654 -704771695 1738020818 -379751330 -1740771907 1327152133 810551658 -113193700 -1444228005 118821552 -444201995 -1698464558 -2112017841 522293754 -862898222 1862243396 -157850889 730762700 -1982925754 1720604062 -1515662294 581563151
REM
CELL 1.54180   50.00000   50.00000   50.00000   90.00000   90.00000   90.00000
LATT -1
SFAC C  
C      1  0.4572540000000  0.4764850000000  0.5094500000000 1.0
C      1  0.4586730000000  0.5310070000000  0.5111640000000 1.0
C      1  0.4910960000000  0.4858760000000  0.4842040000000 1.0
C      1  0.4881750000000  0.5174770000000  0.4843320000000 1.0
C      1  0.5066020000000  0.5203580000000  0.4431890000000 1.0
C      1  0.5095390000000  0.4911700000000  0.4414070000000 1.0
C      1  0.4818560000000  0.4740920000000  0.5515490000000 1.0
C      1  0.4853160000000  0.5296370000000  0.5516430000000 1.0
C      1  0.5430370000000  0.5052960000000  0.5072290000000 1.0
C      1  0.5551310000000  0.4820210000000  0.5162650000000 1.0
C      1  0.4804210000000  0.4845780000000  0.4389350000000 1.0
C      1  0.4686750000000  0.5116970000000  0.4398520000000 1.0
C      1  0.5069620000000  0.4860830000000  0.5540510000000 1.0
C      1  0.5090340000000  0.5149580000000  0.5535660000000 1.0
C      1  0.4529160000000  0.4765190000000  0.4823290000000 1.0
C      1  0.4499270000000  0.5295150000000  0.4852630000000 1.0
C      1  0.4736730000000  0.4692250000000  0.4641050000000 1.0
C      1  0.4681860000000  0.5278280000000  0.4638200000000 1.0
C      1  0.5143840000000  0.5272010000000  0.4710400000000 1.0
C      1  0.5186620000000  0.4831520000000  0.4692270000000 1.0
C      1  0.4700630000000  0.5169610000000  0.5321290000000 1.0
C      1  0.4684140000000  0.4884930000000  0.5317740000000 1.0
C      1  0.5326560000000  0.5267410000000  0.5447830000000 1.0
C      1  0.5299570000000  0.4706720000000  0.5537300000000 1.0
C      1  0.5511150000000  0.4666240000000  0.5378200000000 1.0
C      1  0.5470010000000  0.5286960000000  0.5219780000000 1.0
C      1  0.5346930000000  0.5065430000000  0.4793480000000 1.0
END
