TITL C-3577081-279-689 -5.31162552726439e-06 125000 -489.638306491771 0 0 82 (C1) n - 1
REM
REM in /home/bkarasulu/work/CARBON/AIRSS/Generating-Clusters/EDIP-Nigel-Params/with-SteepDescent/Higher-Symm/SD-CG/HFTN-CG
REM
REM
REM
REM
REM
REM ./C.cell (12c818d87b63d06a65506943cc24bca4)
REM
REM compiler GCC version 9.2.1 20190827 (Red Hat 9.2.1-1)
REM options -cpp -mtune=generic -march=x86-64 -g -O0 -fpre-include=/usr/include/finclude/math-vector-fortran.h
REM seed 566133895 -346037872 1144032878 -1935583649 1645179566 -1807634188 1931761587 1471664422 -758513220 -229954740 -188538939 1828656543 -1487040159 -1686864269 -1539037841 802900504 -535201023 543819208 -30385108 892811721 -1817718626 -224220397 -1200195203 2041348247 -1332298023 974208645 -1290731352 379983337 -151769352 -824277066 1696457638 1231496171 -1057271367
REM
CELL 1.54180   50.00000   50.00000   50.00000   90.00000   90.00000   90.00000
LATT -1
SFAC C  
C      1  0.5573930000000  0.5252950000000  0.4468520000000 1.0
C      1  0.5528840000000  0.4743770000000  0.5570880000000 1.0
C      1  0.4432650000000  0.5255810000000  0.5534050000000 1.0
C      1  0.4463970000000  0.4746450000000  0.4429300000000 1.0
C      1  0.4879030000000  0.5847020000000  0.5215930000000 1.0
C      1  0.4769260000000  0.4156400000000  0.4882260000000 1.0
C      1  0.5113010000000  0.5817740000000  0.4758170000000 1.0
C      1  0.5227760000000  0.4177260000000  0.5116680000000 1.0
C      1  0.5071460000000  0.4740870000000  0.5635380000000 1.0
C      1  0.4370060000000  0.5255770000000  0.5071920000000 1.0
C      1  0.4925280000000  0.4742490000000  0.4367660000000 1.0
C      1  0.5638100000000  0.5260210000000  0.4925240000000 1.0
C      1  0.5583530000000  0.4521780000000  0.4812100000000 1.0
C      1  0.5175390000000  0.5459780000000  0.5575540000000 1.0
C      1  0.4418490000000  0.4547490000000  0.5175430000000 1.0
C      1  0.4809880000000  0.5474750000000  0.4410420000000 1.0
C      1  0.5273850000000  0.5517420000000  0.5103180000000 1.0
C      1  0.4888730000000  0.4486970000000  0.5275120000000 1.0
C      1  0.4699880000000  0.5539190000000  0.4896570000000 1.0
C      1  0.5095430000000  0.4455790000000  0.4702420000000 1.0
C      1  0.5797140000000  0.4679570000000  0.4888080000000 1.0
C      1  0.5109070000000  0.5319820000000  0.5804010000000 1.0
C      1  0.4190220000000  0.4685860000000  0.5104990000000 1.0
C      1  0.4890280000000  0.5316600000000  0.4198670000000 1.0
C      1  0.5473170000000  0.5715020000000  0.5015510000000 1.0
C      1  0.4975140000000  0.4288170000000  0.5474470000000 1.0
C      1  0.4473500000000  0.5707580000000  0.4982600000000 1.0
C      1  0.5011130000000  0.4288670000000  0.4474850000000 1.0
C      1  0.5757280000000  0.5136770000000  0.4680770000000 1.0
C      1  0.5316610000000  0.4863440000000  0.5753760000000 1.0
C      1  0.4264220000000  0.5126580000000  0.5316270000000 1.0
C      1  0.4681320000000  0.4870580000000  0.4258900000000 1.0
C      1  0.4832910000000  0.5106240000000  0.5293150000000 1.0
C      1  0.4708630000000  0.4905100000000  0.4833180000000 1.0
C      1  0.5172690000000  0.5077460000000  0.4705260000000 1.0
C      1  0.5297760000000  0.4911160000000  0.5173080000000 1.0
C      1  0.4624920000000  0.4396720000000  0.4812450000000 1.0
C      1  0.5180080000000  0.5571810000000  0.4630940000000 1.0
C      1  0.5361690000000  0.4420540000000  0.5180380000000 1.0
C      1  0.4812800000000  0.5609770000000  0.5366790000000 1.0
C      1  0.4697890000000  0.5124230000000  0.4145120000000 1.0
C      1  0.5848570000000  0.4874690000000  0.4698060000000 1.0
C      1  0.5298430000000  0.5122900000000  0.5854340000000 1.0
C      1  0.4135330000000  0.4879070000000  0.5297370000000 1.0
C      1  0.4971820000000  0.4851820000000  0.4664770000000 1.0
C      1  0.5352130000000  0.5119960000000  0.4961230000000 1.0
C      1  0.5035930000000  0.4882960000000  0.5347900000000 1.0
C      1  0.4668260000000  0.5145170000000  0.5024400000000 1.0
C      1  0.4825030000000  0.4461230000000  0.4363640000000 1.0
C      1  0.5618650000000  0.5551070000000  0.4837670000000 1.0
C      1  0.5157100000000  0.4449810000000  0.5617700000000 1.0
C      1  0.4364260000000  0.5536880000000  0.5171630000000 1.0
C      1  0.4225740000000  0.5238050000000  0.4815800000000 1.0
C      1  0.5183310000000  0.4762300000000  0.4226420000000 1.0
C      1  0.5776990000000  0.5233390000000  0.5183730000000 1.0
C      1  0.4814880000000  0.4765660000000  0.5777020000000 1.0
C      1  0.4314510000000  0.4909950000000  0.4633710000000 1.0
C      1  0.5373330000000  0.5087350000000  0.4312130000000 1.0
C      1  0.5692340000000  0.4905690000000  0.5371550000000 1.0
C      1  0.4637500000000  0.5097300000000  0.5689580000000 1.0
C      1  0.5077450000000  0.5352310000000  0.4809670000000 1.0
C      1  0.5186840000000  0.4642570000000  0.5078410000000 1.0
C      1  0.4935280000000  0.5385210000000  0.5214490000000 1.0
C      1  0.4781020000000  0.4619450000000  0.4935850000000 1.0
C      1  0.5604890000000  0.5279730000000  0.5403250000000 1.0
C      1  0.4592930000000  0.4723200000000  0.5607230000000 1.0
C      1  0.4394200000000  0.5286300000000  0.4592930000000 1.0
C      1  0.5403060000000  0.4711420000000  0.4398220000000 1.0
C      1  0.5157400000000  0.5237000000000  0.4197960000000 1.0
C      1  0.5804600000000  0.4754800000000  0.5155950000000 1.0
C      1  0.4841060000000  0.5248910000000  0.5819990000000 1.0
C      1  0.4180450000000  0.4761640000000  0.4837670000000 1.0
C      1  0.4567480000000  0.4467150000000  0.4511900000000 1.0
C      1  0.5480800000000  0.5525370000000  0.4575000000000 1.0
C      1  0.5419990000000  0.4470670000000  0.5480030000000 1.0
C      1  0.4513170000000  0.5535480000000  0.5428260000000 1.0
C      1  0.5350400000000  0.5409430000000  0.5366210000000 1.0
C      1  0.4627560000000  0.4597950000000  0.5350610000000 1.0
C      1  0.4627180000000  0.5454690000000  0.4618010000000 1.0
C      1  0.5375040000000  0.4542040000000  0.4630550000000 1.0
C      1  0.4921520000000  0.5739920000000  0.4954220000000 1.0
C      1  0.5032920000000  0.4257940000000  0.4924970000000 1.0
END
