TITL C-3578198-8939-452 3.41766257297147e-07 125000 -595.483953631459 0 0 99 (C3) n - 1
REM
REM in /home/bkarasulu/work/CARBON/AIRSS/Generating-Clusters/EDIP-Nigel-Params/with-SteepDescent/Higher-Symm/SD-CG/HFTN-CG
REM
REM
REM
REM
REM
REM ./C.cell (12c818d87b63d06a65506943cc24bca4)
REM
REM compiler GCC version 9.2.1 20190827 (Red Hat 9.2.1-1)
REM options -cpp -mtune=generic -march=x86-64 -g -O0 -fpre-include=/usr/include/finclude/math-vector-fortran.h
REM seed 1335184022 -770453640 -1622786010 1786661546 1540311072 -2051107298 -739446199 124837534 1207623917 1711531157 -1146227433 1388746901 -367435031 -16385158 698708726 -915618444 -1522074017 -1982790006 1571256378 1508074022 -2035229785 -1239175186 29109251 1667011271 1750528942 -861953328 -1997238166 1830945390 1566648846 610443106 985223050 97646646 -1164955953
REM
CELL 1.54180   50.00000   50.00000   50.00000   90.00000   90.00000   90.00000
LATT -1
SFAC C  
C      1  0.4438030000000  0.4838330000000  0.5487200000000 1.0
C      1  0.4436850000000  0.4659600000000  0.4617500000000 1.0
C      1  0.4437260000000  0.5502140000000  0.4897570000000 1.0
C      1  0.5866820000000  0.5528330000000  0.5332770000000 1.0
C      1  0.5866720000000  0.4446590000000  0.5289440000000 1.0
C      1  0.5865510000000  0.5024990000000  0.4374290000000 1.0
C      1  0.4028870000000  0.5246540000000  0.4961540000000 1.0
C      1  0.4029220000000  0.4911220000000  0.5234670000000 1.0
C      1  0.4028640000000  0.4842350000000  0.4807710000000 1.0
C      1  0.4735580000000  0.5494270000000  0.4868030000000 1.0
C      1  0.4736400000000  0.4867480000000  0.5494560000000 1.0
C      1  0.4735240000000  0.4638280000000  0.4638480000000 1.0
C      1  0.5053040000000  0.4377120000000  0.5003270000000 1.0
C      1  0.5052340000000  0.5308540000000  0.4458830000000 1.0
C      1  0.5053800000000  0.5314330000000  0.5537680000000 1.0
C      1  0.5111000000000  0.5851750000000  0.4792450000000 1.0
C      1  0.5112370000000  0.4753730000000  0.5841200000000 1.0
C      1  0.5110370000000  0.4394500000000  0.4365910000000 1.0
C      1  0.5525890000000  0.4628100000000  0.4443660000000 1.0
C      1  0.5526610000000  0.5667110000000  0.4955050000000 1.0
C      1  0.5527440000000  0.4704730000000  0.5599170000000 1.0
C      1  0.4859430000000  0.4734380000000  0.5251950000000 1.0
C      1  0.4858620000000  0.4914790000000  0.4644270000000 1.0
C      1  0.4859260000000  0.5350850000000  0.5104350000000 1.0
C      1  0.4770530000000  0.5099230000000  0.5893740000000 1.0
C      1  0.4768810000000  0.4176670000000  0.4639530000000 1.0
C      1  0.4768640000000  0.5724130000000  0.4467670000000 1.0
C      1  0.5495210000000  0.4423950000000  0.4657160000000 1.0
C      1  0.5495270000000  0.5584330000000  0.4671560000000 1.0
C      1  0.5496590000000  0.4991660000000  0.5669280000000 1.0
C      1  0.5776260000000  0.4685230000000  0.5403850000000 1.0
C      1  0.5775080000000  0.4806690000000  0.4523940000000 1.0
C      1  0.5775840000000  0.5507990000000  0.5069080000000 1.0
C      1  0.5333600000000  0.5722010000000  0.5501820000000 1.0
C      1  0.5333370000000  0.4204000000000  0.5373710000000 1.0
C      1  0.5331720000000  0.5073950000000  0.4123130000000 1.0
C      1  0.5121270000000  0.4875280000000  0.5203620000000 1.0
C      1  0.5120710000000  0.4885880000000  0.4789940000000 1.0
C      1  0.5121010000000  0.5238830000000  0.5005950000000 1.0
C      1  0.4769320000000  0.4286120000000  0.5394630000000 1.0
C      1  0.4767720000000  0.5015470000000  0.4184910000000 1.0
C      1  0.4769410000000  0.5698440000000  0.5421400000000 1.0
C      1  0.5242930000000  0.4254360000000  0.4599730000000 1.0
C      1  0.5242920000000  0.5719170000000  0.4553910000000 1.0
C      1  0.5244640000000  0.5026440000000  0.5845380000000 1.0
C      1  0.5190530000000  0.4306300000000  0.5589900000000 1.0
C      1  0.5188550000000  0.4835750000000  0.4103910000000 1.0
C      1  0.5190200000000  0.5857930000000  0.5305420000000 1.0
C      1  0.4321710000000  0.4890490000000  0.4785590000000 1.0
C      1  0.4322030000000  0.5241270000000  0.5013720000000 1.0
C      1  0.4322270000000  0.4868310000000  0.5203430000000 1.0
C      1  0.4921490000000  0.4860870000000  0.4027870000000 1.0
C      1  0.4923320000000  0.5911550000000  0.5365730000000 1.0
C      1  0.4923590000000  0.4227590000000  0.5606710000000 1.0
C      1  0.5021810000000  0.4138710000000  0.4811300000000 1.0
C      1  0.5021240000000  0.5594040000000  0.4348400000000 1.0
C      1  0.5023230000000  0.5267260000000  0.5840210000000 1.0
C      1  0.5364810000000  0.5364770000000  0.5145380000000 1.0
C      1  0.5364910000000  0.4691270000000  0.5242490000000 1.0
C      1  0.5364070000000  0.4943920000000  0.4610670000000 1.0
C      1  0.5799410000000  0.5297700000000  0.5455030000000 1.0
C      1  0.5798810000000  0.4456100000000  0.5028710000000 1.0
C      1  0.5798140000000  0.5246110000000  0.4513030000000 1.0
C      1  0.5304230000000  0.5449370000000  0.5438620000000 1.0
C      1  0.5303830000000  0.4395080000000  0.5169250000000 1.0
C      1  0.5302810000000  0.5155510000000  0.4390900000000 1.0
C      1  0.4517350000000  0.5187540000000  0.5746480000000 1.0
C      1  0.4516030000000  0.4260350000000  0.4790130000000 1.0
C      1  0.4515640000000  0.5552170000000  0.4465340000000 1.0
C      1  0.5589050000000  0.4581830000000  0.4891360000000 1.0
C      1  0.5588810000000  0.5302450000000  0.4691000000000 1.0
C      1  0.5589780000000  0.5115660000000  0.5415260000000 1.0
C      1  0.4557490000000  0.5264140000000  0.5467390000000 1.0
C      1  0.4556830000000  0.4463700000000  0.4995940000000 1.0
C      1  0.4556240000000  0.5272210000000  0.4538470000000 1.0
C      1  0.5255570000000  0.4580160000000  0.5652610000000 1.0
C      1  0.5253760000000  0.4644430000000  0.4309590000000 1.0
C      1  0.5254780000000  0.5775380000000  0.5036770000000 1.0
C      1  0.4803090000000  0.5415480000000  0.5388670000000 1.0
C      1  0.4802760000000  0.4455900000000  0.5165870000000 1.0
C      1  0.4801810000000  0.5128640000000  0.4446250000000 1.0
C      1  0.5091160000000  0.5417870000000  0.4741310000000 1.0
C      1  0.5092150000000  0.5014980000000  0.5491040000000 1.0
C      1  0.5091160000000  0.4567140000000  0.4767270000000 1.0
C      1  0.4829340000000  0.4819320000000  0.5787080000000 1.0
C      1  0.4827530000000  0.4408910000000  0.4450330000000 1.0
C      1  0.4828000000000  0.5771780000000  0.4763280000000 1.0
C      1  0.4307410000000  0.4585100000000  0.5108420000000 1.0
C      1  0.4306730000000  0.5114410000000  0.4587850000000 1.0
C      1  0.4307700000000  0.5300570000000  0.5306530000000 1.0
C      1  0.4323660000000  0.5631600000000  0.4664470000000 1.0
C      1  0.4325050000000  0.4975600000000  0.5716090000000 1.0
C      1  0.4323560000000  0.4392870000000  0.4622170000000 1.0
C      1  0.4040280000000  0.5176510000000  0.5344660000000 1.0
C      1  0.4039770000000  0.4614430000000  0.4982430000000 1.0
C      1  0.4039380000000  0.5209170000000  0.4676780000000 1.0
C      1  0.5640600000000  0.4884950000000  0.5210170000000 1.0
C      1  0.5640040000000  0.4874730000000  0.4794010000000 1.0
C      1  0.5640320000000  0.5240250000000  0.4993240000000 1.0
END
