TITL C-3578200-9634-53 -1.29271070446104e-06 125000 -191.204603344873 0 0 34 (C2h) n - 1
REM
REM in /home/bkarasulu/work/CARBON/AIRSS/Generating-Clusters/EDIP-Nigel-Params/with-SteepDescent/Higher-Symm/SD-CG/HFTN-CG
REM
REM
REM
REM
REM
REM ./C.cell (12c818d87b63d06a65506943cc24bca4)
REM
REM compiler GCC version 9.2.1 20190827 (Red Hat 9.2.1-1)
REM options -cpp -mtune=generic -march=x86-64 -g -O0 -fpre-include=/usr/include/finclude/math-vector-fortran.h
REM seed -971177277 -615464891 463444606 1252850272 -1819668263 35119433 -536622849 2016165796 -1267402290 603712933 -244530193 1159886610 -1311691654 1368004774 1853380260 -678656103 1733316636 689519193 -1145251353 -769928811 -904616678 1520458450 -1170031128 -1146683326 1870291792 -2036092410 1633305479 213773195 292750661 1030274261 -837176263 -1255177036 329346663
REM
CELL 1.54180   50.00000   50.00000   50.00000   90.00000   90.00000   90.00000
LATT -1
SFAC C  
C      1  0.5110770000000  0.4661150000000  0.4697250000000 1.0
C      1  0.4887080000000  0.5336840000000  0.4695640000000 1.0
C      1  0.5112920000000  0.4663160000000  0.5245710000000 1.0
C      1  0.4889230000000  0.5338850000000  0.5244100000000 1.0
C      1  0.4821880000000  0.5177900000000  0.5477360000000 1.0
C      1  0.5182080000000  0.4825830000000  0.5477240000000 1.0
C      1  0.4817920000000  0.5174170000000  0.4464110000000 1.0
C      1  0.5178120000000  0.4822100000000  0.4464000000000 1.0
C      1  0.5353130000000  0.4556180000000  0.4824120000000 1.0
C      1  0.4645720000000  0.5442740000000  0.4823630000000 1.0
C      1  0.5354280000000  0.4557260000000  0.5117730000000 1.0
C      1  0.4646870000000  0.5443820000000  0.5117230000000 1.0
C      1  0.5460780000000  0.4981310000000  0.5288870000000 1.0
C      1  0.4541720000000  0.5021040000000  0.5292310000000 1.0
C      1  0.5458280000000  0.4978960000000  0.4649040000000 1.0
C      1  0.4539220000000  0.5018690000000  0.4652490000000 1.0
C      1  0.4423470000000  0.5249980000000  0.4786120000000 1.0
C      1  0.5575080000000  0.4748650000000  0.4783470000000 1.0
C      1  0.4424920000000  0.5251350000000  0.5157890000000 1.0
C      1  0.5576530000000  0.4750020000000  0.5155230000000 1.0
C      1  0.5371250000000  0.5199830000000  0.4821500000000 1.0
C      1  0.4627600000000  0.4799090000000  0.4825880000000 1.0
C      1  0.5372400000000  0.5200910000000  0.5115470000000 1.0
C      1  0.4628750000000  0.4800170000000  0.5119850000000 1.0
C      1  0.4838760000000  0.4572400000000  0.4797200000000 1.0
C      1  0.5159870000000  0.5426310000000  0.4792800000000 1.0
C      1  0.4840130000000  0.4573690000000  0.5148550000000 1.0
C      1  0.5161240000000  0.5427600000000  0.5144160000000 1.0
C      1  0.4740880000000  0.4343280000000  0.4686100000000 1.0
C      1  0.5256860000000  0.5654600000000  0.4679260000000 1.0
C      1  0.4743140000000  0.4345400000000  0.5262090000000 1.0
C      1  0.5259120000000  0.5656720000000  0.5255250000000 1.0
C      1  0.4997600000000  0.4997740000000  0.4356210000000 1.0
C      1  0.5002400000000  0.5002260000000  0.5585140000000 1.0
END
