TITL C-3578198-8939-147 -4.08402285993012e-06 125000 -893.003470040422 0 0 144 (C1) n - 1
REM
REM in /home/bkarasulu/work/CARBON/AIRSS/Generating-Clusters/EDIP-Nigel-Params/with-SteepDescent/Higher-Symm/SD-CG/HFTN-CG
REM
REM
REM
REM
REM
REM ./C.cell (12c818d87b63d06a65506943cc24bca4)
REM
REM compiler GCC version 9.2.1 20190827 (Red Hat 9.2.1-1)
REM options -cpp -mtune=generic -march=x86-64 -g -O0 -fpre-include=/usr/include/finclude/math-vector-fortran.h
REM seed 1038946429 -46186303 1098580823 -1468857932 -608219698 -372539542 -1662409765 2057282004 1634252237 148674242 273112043 -896157761 2127515002 813535074 2029883108 415408208 -36928576 -58789919 -881193276 -1420355507 -1339342115 -216805498 439452544 -494934276 -1886785404 1155118161 -1246468803 -1297610154 -1623241413 -1335143084 -737968356 -1939650881 -216119569
REM
CELL 1.54180   50.00000   50.00000   50.00000   90.00000   90.00000   90.00000
LATT -1
SFAC C  
C      1  0.5188970000000  0.5323000000000  0.4290580000000 1.0
C      1  0.4206750000000  0.5124470000000  0.5363100000000 1.0
C      1  0.5276320000000  0.4230930000000  0.5072120000000 1.0
C      1  0.5154510000000  0.4691250000000  0.5874680000000 1.0
C      1  0.4971510000000  0.4747490000000  0.4084990000000 1.0
C      1  0.4886130000000  0.5269530000000  0.5760100000000 1.0
C      1  0.4296260000000  0.4809720000000  0.4732510000000 1.0
C      1  0.5807480000000  0.4853400000000  0.5252410000000 1.0
C      1  0.5811940000000  0.5172290000000  0.4718560000000 1.0
C      1  0.5256550000000  0.5844640000000  0.4808090000000 1.0
C      1  0.4683190000000  0.5805940000000  0.5057580000000 1.0
C      1  0.4688040000000  0.4269610000000  0.4854350000000 1.0
C      1  0.4919720000000  0.5280550000000  0.4218890000000 1.0
C      1  0.5731520000000  0.5127720000000  0.5279550000000 1.0
C      1  0.4693090000000  0.4302670000000  0.5157570000000 1.0
C      1  0.4853860000000  0.4661900000000  0.5813610000000 1.0
C      1  0.5212780000000  0.4759760000000  0.4230480000000 1.0
C      1  0.5186080000000  0.5272800000000  0.5804040000000 1.0
C      1  0.5850190000000  0.4896580000000  0.4727330000000 1.0
C      1  0.4293500000000  0.4838450000000  0.5351830000000 1.0
C      1  0.4224690000000  0.5078960000000  0.4603650000000 1.0
C      1  0.4654850000000  0.5969640000000  0.4805360000000 1.0
C      1  0.5248110000000  0.5873190000000  0.5104930000000 1.0
C      1  0.5300640000000  0.4062310000000  0.4834520000000 1.0
C      1  0.5602550000000  0.5458120000000  0.5586210000000 1.0
C      1  0.5479520000000  0.5823540000000  0.5274890000000 1.0
C      1  0.5333580000000  0.5495290000000  0.5694610000000 1.0
C      1  0.5596630000000  0.4544340000000  0.4369060000000 1.0
C      1  0.4272900000000  0.4472780000000  0.5689920000000 1.0
C      1  0.4344890000000  0.5499400000000  0.4375120000000 1.0
C      1  0.5396820000000  0.4220850000000  0.4610970000000 1.0
C      1  0.4397140000000  0.4064160000000  0.5622300000000 1.0
C      1  0.4500640000000  0.5863450000000  0.4586320000000 1.0
C      1  0.5340590000000  0.4484780000000  0.4236000000000 1.0
C      1  0.4473960000000  0.4275560000000  0.5833040000000 1.0
C      1  0.4465940000000  0.5652930000000  0.4169160000000 1.0
C      1  0.4136000000000  0.5243570000000  0.5608090000000 1.0
C      1  0.4445850000000  0.5667400000000  0.5446050000000 1.0
C      1  0.4500740000000  0.5556300000000  0.5690730000000 1.0
C      1  0.4354820000000  0.4616340000000  0.4511540000000 1.0
C      1  0.5778350000000  0.4452730000000  0.5615150000000 1.0
C      1  0.5879970000000  0.5544810000000  0.4483640000000 1.0
C      1  0.4377820000000  0.4332160000000  0.4558570000000 1.0
C      1  0.5580750000000  0.4303020000000  0.5468530000000 1.0
C      1  0.5684210000000  0.5791920000000  0.4515230000000 1.0
C      1  0.4693750000000  0.4429580000000  0.4219980000000 1.0
C      1  0.5344400000000  0.4486150000000  0.5816410000000 1.0
C      1  0.5509580000000  0.5666300000000  0.4297970000000 1.0
C      1  0.5173040000000  0.5393800000000  0.5217070000000 1.0
C      1  0.5074630000000  0.5134090000000  0.5324460000000 1.0
C      1  0.5463500000000  0.5203730000000  0.5075250000000 1.0
C      1  0.5124510000000  0.4508910000000  0.4942810000000 1.0
C      1  0.4757490000000  0.4610440000000  0.5286420000000 1.0
C      1  0.4942110000000  0.5450930000000  0.4764200000000 1.0
C      1  0.5154570000000  0.4864620000000  0.4548800000000 1.0
C      1  0.4784300000000  0.4796450000000  0.5539840000000 1.0
C      1  0.4732400000000  0.5261920000000  0.4653910000000 1.0
C      1  0.5324300000000  0.4703120000000  0.4782170000000 1.0
C      1  0.4541330000000  0.4776680000000  0.5167910000000 1.0
C      1  0.4625570000000  0.5149290000000  0.4901920000000 1.0
C      1  0.4912640000000  0.5485780000000  0.5058160000000 1.0
C      1  0.4825150000000  0.5109390000000  0.5481840000000 1.0
C      1  0.4692650000000  0.5293850000000  0.5167140000000 1.0
C      1  0.4887920000000  0.4480430000000  0.4759870000000 1.0
C      1  0.5021440000000  0.4664980000000  0.5166580000000 1.0
C      1  0.5218110000000  0.5561370000000  0.4673020000000 1.0
C      1  0.4811690000000  0.4745190000000  0.4632760000000 1.0
C      1  0.5131740000000  0.4919740000000  0.5151430000000 1.0
C      1  0.5264590000000  0.5171300000000  0.4557770000000 1.0
C      1  0.4572380000000  0.4859510000000  0.4876440000000 1.0
C      1  0.5370180000000  0.4921610000000  0.5003800000000 1.0
C      1  0.5536840000000  0.5290870000000  0.4777600000000 1.0
C      1  0.5147200000000  0.4118140000000  0.5557830000000 1.0
C      1  0.5677140000000  0.5248630000000  0.4073310000000 1.0
C      1  0.4205820000000  0.5519130000000  0.5080140000000 1.0
C      1  0.5077970000000  0.5900090000000  0.4368350000000 1.0
C      1  0.4856870000000  0.5817030000000  0.5604580000000 1.0
C      1  0.4775240000000  0.4018500000000  0.4450620000000 1.0
C      1  0.5612310000000  0.4825150000000  0.5981220000000 1.0
C      1  0.4514290000000  0.4831860000000  0.4122430000000 1.0
C      1  0.4447420000000  0.5163740000000  0.5965040000000 1.0
C      1  0.4087340000000  0.4362750000000  0.4938380000000 1.0
C      1  0.5803240000000  0.4316650000000  0.5052000000000 1.0
C      1  0.5905330000000  0.5618460000000  0.4917260000000 1.0
C      1  0.4877420000000  0.4147000000000  0.5650470000000 1.0
C      1  0.4470410000000  0.5128150000000  0.4166150000000 1.0
C      1  0.5894750000000  0.5577310000000  0.5218040000000 1.0
C      1  0.4838470000000  0.5949990000000  0.4237110000000 1.0
C      1  0.5120040000000  0.5905630000000  0.5528940000000 1.0
C      1  0.5024830000000  0.4065450000000  0.4320200000000 1.0
C      1  0.4407730000000  0.4859210000000  0.5938740000000 1.0
C      1  0.5672270000000  0.4927840000000  0.4065000000000 1.0
C      1  0.5663930000000  0.5088660000000  0.5867210000000 1.0
C      1  0.5814390000000  0.4423500000000  0.4783800000000 1.0
C      1  0.4071400000000  0.4383750000000  0.5247320000000 1.0
C      1  0.4142600000000  0.5536570000000  0.4798550000000 1.0
C      1  0.4102910000000  0.5253670000000  0.5136060000000 1.0
C      1  0.5103510000000  0.4059330000000  0.5275690000000 1.0
C      1  0.5357850000000  0.5236700000000  0.4047800000000 1.0
C      1  0.4075310000000  0.4676760000000  0.4915060000000 1.0
C      1  0.5958490000000  0.4656370000000  0.5130650000000 1.0
C      1  0.6014060000000  0.5324120000000  0.4877680000000 1.0
C      1  0.5095710000000  0.6023050000000  0.4634210000000 1.0
C      1  0.4773610000000  0.5981150000000  0.5269410000000 1.0
C      1  0.4796250000000  0.3999100000000  0.4744120000000 1.0
C      1  0.5322100000000  0.4863150000000  0.6054340000000 1.0
C      1  0.4766270000000  0.4882310000000  0.3953070000000 1.0
C      1  0.4747530000000  0.5133140000000  0.6005270000000 1.0
C      1  0.5977950000000  0.5285760000000  0.5194450000000 1.0
C      1  0.4809430000000  0.4072800000000  0.5277780000000 1.0
C      1  0.4739880000000  0.5194220000000  0.4024580000000 1.0
C      1  0.5965860000000  0.4668760000000  0.4838190000000 1.0
C      1  0.4057000000000  0.4691620000000  0.5230170000000 1.0
C      1  0.4053600000000  0.5256690000000  0.4756600000000 1.0
C      1  0.4863620000000  0.6144570000000  0.4738620000000 1.0
C      1  0.5062810000000  0.6039230000000  0.5267670000000 1.0
C      1  0.5062210000000  0.3923240000000  0.4792510000000 1.0
C      1  0.4708330000000  0.4814960000000  0.6027450000000 1.0
C      1  0.5371090000000  0.4934020000000  0.4034160000000 1.0
C      1  0.5313240000000  0.5150230000000  0.6025560000000 1.0
C      1  0.4492670000000  0.5574130000000  0.5179580000000 1.0
C      1  0.5322380000000  0.4336560000000  0.5580040000000 1.0
C      1  0.5667860000000  0.5399720000000  0.4320190000000 1.0
C      1  0.4309440000000  0.4228090000000  0.4813550000000 1.0
C      1  0.5554220000000  0.4292650000000  0.5185670000000 1.0
C      1  0.5629880000000  0.5614110000000  0.4776950000000 1.0
C      1  0.5227610000000  0.5628210000000  0.4373460000000 1.0
C      1  0.4782870000000  0.5561940000000  0.5729810000000 1.0
C      1  0.4583890000000  0.4227540000000  0.4378360000000 1.0
C      1  0.5609180000000  0.4595570000000  0.5798710000000 1.0
C      1  0.4605410000000  0.4672140000000  0.4363120000000 1.0
C      1  0.4381640000000  0.5302070000000  0.5727110000000 1.0
C      1  0.5629630000000  0.5587030000000  0.5325920000000 1.0
C      1  0.4760300000000  0.4359690000000  0.5806650000000 1.0
C      1  0.4448850000000  0.5226630000000  0.4450180000000 1.0
C      1  0.5548490000000  0.4476850000000  0.4652920000000 1.0
C      1  0.4264680000000  0.4282700000000  0.5448910000000 1.0
C      1  0.4356010000000  0.5623280000000  0.4628050000000 1.0
C      1  0.4582200000000  0.5868600000000  0.4305860000000 1.0
C      1  0.5211470000000  0.5615150000000  0.5459390000000 1.0
C      1  0.5221530000000  0.4258010000000  0.4385990000000 1.0
C      1  0.4362550000000  0.4744380000000  0.5654360000000 1.0
C      1  0.5733110000000  0.4776150000000  0.4292480000000 1.0
C      1  0.5675870000000  0.5180360000000  0.5587410000000 1.0
END
