TITL C-3578194-7807-444 -2.98407723925658e-06 125000 -802.981185784992 0 0 128 (C1) n - 1
REM
REM in /home/bkarasulu/work/CARBON/AIRSS/Generating-Clusters/EDIP-Nigel-Params/with-SteepDescent/Higher-Symm/SD-CG/HFTN-CG
REM
REM
REM
REM
REM
REM ./C.cell (12c818d87b63d06a65506943cc24bca4)
REM
REM compiler GCC version 9.2.1 20190827 (Red Hat 9.2.1-1)
REM options -cpp -mtune=generic -march=x86-64 -g -O0 -fpre-include=/usr/include/finclude/math-vector-fortran.h
REM seed -749918432 801446046 26377063 406566631 1708216578 1439723033 -1179467163 -1485607633 -1701591299 2027100145 -1966003661 55680408 -776605874 -1280146656 309363288 -9501250 729330429 -1452491932 1262284789 -1755084761 1231420980 -62197159 -1756808649 105985932 182705983 1523565594 146718704 1335815889 968267000 515482344 1319153927 -206686027 -1945737162
REM
CELL 1.54180   50.00000   50.00000   50.00000   90.00000   90.00000   90.00000
LATT -1
SFAC C  
C      1  0.4964920000000  0.5189860000000  0.5988560000000 1.0
C      1  0.4170620000000  0.5198270000000  0.4445280000000 1.0
C      1  0.5813710000000  0.5136050000000  0.4529400000000 1.0
C      1  0.5027240000000  0.5482230000000  0.4111730000000 1.0
C      1  0.5774350000000  0.5477490000000  0.5580920000000 1.0
C      1  0.4149770000000  0.5446740000000  0.5352590000000 1.0
C      1  0.4213130000000  0.5522790000000  0.5094450000000 1.0
C      1  0.5276400000000  0.5594870000000  0.4232640000000 1.0
C      1  0.5532170000000  0.5573670000000  0.5682660000000 1.0
C      1  0.5385100000000  0.5378060000000  0.5860540000000 1.0
C      1  0.4080230000000  0.5371100000000  0.4880360000000 1.0
C      1  0.5468770000000  0.5374500000000  0.4259440000000 1.0
C      1  0.5737330000000  0.4653670000000  0.5422090000000 1.0
C      1  0.4236680000000  0.4683650000000  0.5409330000000 1.0
C      1  0.4928830000000  0.4688590000000  0.4188730000000 1.0
C      1  0.5830750000000  0.5021830000000  0.5025640000000 1.0
C      1  0.4565540000000  0.5014950000000  0.5730640000000 1.0
C      1  0.4564710000000  0.4981560000000  0.4255580000000 1.0
C      1  0.4723110000000  0.5387110000000  0.5041420000000 1.0
C      1  0.5092090000000  0.5524430000000  0.4744750000000 1.0
C      1  0.5157930000000  0.5481970000000  0.5249000000000 1.0
C      1  0.4680540000000  0.5426810000000  0.5518530000000 1.0
C      1  0.4819030000000  0.5364970000000  0.4306550000000 1.0
C      1  0.5571540000000  0.5445660000000  0.5049670000000 1.0
C      1  0.5620020000000  0.4164150000000  0.4914030000000 1.0
C      1  0.4743710000000  0.4164120000000  0.5479330000000 1.0
C      1  0.4599800000000  0.4153390000000  0.4592090000000 1.0
C      1  0.5606150000000  0.4628350000000  0.4610270000000 1.0
C      1  0.4988350000000  0.4625940000000  0.5808240000000 1.0
C      1  0.4295810000000  0.4606740000000  0.4575250000000 1.0
C      1  0.4810590000000  0.5887220000000  0.4757580000000 1.0
C      1  0.5378710000000  0.5894770000000  0.4959950000000 1.0
C      1  0.4891160000000  0.5834570000000  0.5314660000000 1.0
C      1  0.5317290000000  0.4930120000000  0.5491540000000 1.0
C      1  0.4482470000000  0.4903020000000  0.5029610000000 1.0
C      1  0.5253800000000  0.4987550000000  0.4499440000000 1.0
C      1  0.4518040000000  0.5025610000000  0.4746980000000 1.0
C      1  0.5388760000000  0.5077640000000  0.4734520000000 1.0
C      1  0.5037580000000  0.5022180000000  0.5523550000000 1.0
C      1  0.5166020000000  0.5204470000000  0.5140040000000 1.0
C      1  0.4879350000000  0.5154680000000  0.5130510000000 1.0
C      1  0.4893210000000  0.5321570000000  0.4597730000000 1.0
C      1  0.5506730000000  0.4240020000000  0.5420050000000 1.0
C      1  0.4315930000000  0.4265050000000  0.5181540000000 1.0
C      1  0.5090310000000  0.4295150000000  0.4387770000000 1.0
C      1  0.4990630000000  0.5333500000000  0.5523810000000 1.0
C      1  0.4629840000000  0.5318500000000  0.4755780000000 1.0
C      1  0.5378970000000  0.5371560000000  0.4799610000000 1.0
C      1  0.5381420000000  0.5020350000000  0.5205840000000 1.0
C      1  0.4773340000000  0.4889570000000  0.5131770000000 1.0
C      1  0.4976310000000  0.5045590000000  0.4571240000000 1.0
C      1  0.5115450000000  0.4039800000000  0.5220160000000 1.0
C      1  0.4685710000000  0.4081420000000  0.5021420000000 1.0
C      1  0.5237990000000  0.3890150000000  0.4988060000000 1.0
C      1  0.4676680000000  0.5227440000000  0.5923530000000 1.0
C      1  0.4399800000000  0.5225800000000  0.4256560000000 1.0
C      1  0.5917270000000  0.5209300000000  0.4811390000000 1.0
C      1  0.4278800000000  0.4191020000000  0.4902600000000 1.0
C      1  0.5267170000000  0.4179000000000  0.4586690000000 1.0
C      1  0.5241620000000  0.4114270000000  0.5485240000000 1.0
C      1  0.4220450000000  0.4981320000000  0.4652930000000 1.0
C      1  0.5716470000000  0.4868530000000  0.4404840000000 1.0
C      1  0.5114840000000  0.4930790000000  0.5949530000000 1.0
C      1  0.5720520000000  0.4567490000000  0.5156050000000 1.0
C      1  0.4466120000000  0.4562440000000  0.5542600000000 1.0
C      1  0.4708680000000  0.4549170000000  0.4309490000000 1.0
C      1  0.4211400000000  0.4978400000000  0.5175840000000 1.0
C      1  0.5346580000000  0.5107070000000  0.4224500000000 1.0
C      1  0.5519250000000  0.5063880000000  0.5668880000000 1.0
C      1  0.4825150000000  0.3982390000000  0.5260660000000 1.0
C      1  0.4651340000000  0.3932370000000  0.4774340000000 1.0
C      1  0.5515070000000  0.3906270000000  0.4953580000000 1.0
C      1  0.4434370000000  0.5714770000000  0.5063670000000 1.0
C      1  0.5245440000000  0.5799050000000  0.4456440000000 1.0
C      1  0.5372890000000  0.5748390000000  0.5502620000000 1.0
C      1  0.5638940000000  0.5181840000000  0.5206830000000 1.0
C      1  0.4521130000000  0.5173250000000  0.5487480000000 1.0
C      1  0.4850150000000  0.4973230000000  0.4151970000000 1.0
C      1  0.5182710000000  0.4651660000000  0.4924260000000 1.0
C      1  0.5054460000000  0.4532500000000  0.5381380000000 1.0
C      1  0.4709600000000  0.4514110000000  0.4818370000000 1.0
C      1  0.4662140000000  0.5526350000000  0.5804160000000 1.0
C      1  0.4544650000000  0.5484430000000  0.4314190000000 1.0
C      1  0.5817950000000  0.5496460000000  0.4882970000000 1.0
C      1  0.5687160000000  0.4760570000000  0.4933210000000 1.0
C      1  0.4685590000000  0.4736280000000  0.5662240000000 1.0
C      1  0.4467250000000  0.4706590000000  0.4342730000000 1.0
C      1  0.4459140000000  0.5532280000000  0.4609350000000 1.0
C      1  0.5695300000000  0.5628240000000  0.4640260000000 1.0
C      1  0.4946720000000  0.5668440000000  0.5818450000000 1.0
C      1  0.5191740000000  0.6113080000000  0.4989710000000 1.0
C      1  0.4866550000000  0.6103750000000  0.5205830000000 1.0
C      1  0.4908200000000  0.6113390000000  0.4919840000000 1.0
C      1  0.4197660000000  0.4537630000000  0.5161130000000 1.0
C      1  0.5183520000000  0.4556320000000  0.4285770000000 1.0
C      1  0.5543970000000  0.4496870000000  0.5557860000000 1.0
C      1  0.5559740000000  0.4334230000000  0.5141830000000 1.0
C      1  0.4538750000000  0.4341920000000  0.5371910000000 1.0
C      1  0.4796430000000  0.4309540000000  0.4439660000000 1.0
C      1  0.5626750000000  0.5370090000000  0.4499060000000 1.0
C      1  0.5090050000000  0.5401200000000  0.5815360000000 1.0
C      1  0.4170760000000  0.5444550000000  0.4612040000000 1.0
C      1  0.5442590000000  0.5790130000000  0.4686080000000 1.0
C      1  0.5070910000000  0.5786890000000  0.5558840000000 1.0
C      1  0.4532570000000  0.5778720000000  0.4784150000000 1.0
C      1  0.4354660000000  0.4302160000000  0.4651680000000 1.0
C      1  0.5539480000000  0.4292520000000  0.4655790000000 1.0
C      1  0.4995580000000  0.4303020000000  0.5590150000000 1.0
C      1  0.4865570000000  0.4789290000000  0.5411280000000 1.0
C      1  0.4760960000000  0.4850710000000  0.4626380000000 1.0
C      1  0.5399880000000  0.4860910000000  0.4950130000000 1.0
C      1  0.5318310000000  0.4701390000000  0.4506640000000 1.0
C      1  0.5280950000000  0.4640540000000  0.5570550000000 1.0
C      1  0.4418160000000  0.4621220000000  0.4943190000000 1.0
C      1  0.5394460000000  0.5053100000000  0.5947580000000 1.0
C      1  0.4069080000000  0.5072100000000  0.4910960000000 1.0
C      1  0.5565590000000  0.4918140000000  0.4161560000000 1.0
C      1  0.5076700000000  0.5172130000000  0.4066210000000 1.0
C      1  0.5718210000000  0.5218450000000  0.5495250000000 1.0
C      1  0.4251350000000  0.5189410000000  0.5385150000000 1.0
C      1  0.4892750000000  0.4279210000000  0.4926410000000 1.0
C      1  0.5110810000000  0.4012670000000  0.4760610000000 1.0
C      1  0.5134970000000  0.4412960000000  0.5104690000000 1.0
C      1  0.5467800000000  0.5716820000000  0.5191300000000 1.0
C      1  0.4634300000000  0.5667900000000  0.5307250000000 1.0
C      1  0.4966090000000  0.5825050000000  0.4525720000000 1.0
C      1  0.4963070000000  0.5580960000000  0.5028530000000 1.0
C      1  0.4900920000000  0.4746610000000  0.4892340000000 1.0
END
