TITL C-3578194-7807-177 5.06940127384253e-07 125000 -792.240163217091 0 0 124 (C1) n - 1
REM
REM in /home/bkarasulu/work/CARBON/AIRSS/Generating-Clusters/EDIP-Nigel-Params/with-SteepDescent/Higher-Symm/SD-CG/HFTN-CG
REM
REM
REM
REM
REM
REM ./C.cell (12c818d87b63d06a65506943cc24bca4)
REM
REM compiler GCC version 9.2.1 20190827 (Red Hat 9.2.1-1)
REM options -cpp -mtune=generic -march=x86-64 -g -O0 -fpre-include=/usr/include/finclude/math-vector-fortran.h
REM seed 1451571543 -174572315 -683314587 1200813934 -535567734 555998967 1845247026 -1193560027 -808765514 1940204202 -1943601726 145906403 1832486847 -1290006222 -904504057 688937970 987535048 1957161775 278635348 -850629511 1780177810 -445952778 -717652094 -108782671 -1609624678 -1022231565 -186433738 1998355713 778057811 -97153734 -793716896 814225526 -1325267979
REM
CELL 1.54180   50.00000   50.00000   50.00000   90.00000   90.00000   90.00000
LATT -1
SFAC C  
C      1  0.5327840000000  0.4927410000000  0.5392490000000 1.0
C      1  0.5096200000000  0.4742320000000  0.5434730000000 1.0
C      1  0.4782550000000  0.4794440000000  0.5404360000000 1.0
C      1  0.4650750000000  0.4953930000000  0.5156730000000 1.0
C      1  0.4464530000000  0.4762460000000  0.4975870000000 1.0
C      1  0.4529540000000  0.4821040000000  0.4690520000000 1.0
C      1  0.4778700000000  0.4746590000000  0.4536060000000 1.0
C      1  0.5029190000000  0.4944200000000  0.4560690000000 1.0
C      1  0.5289600000000  0.4832930000000  0.4677820000000 1.0
C      1  0.5445400000000  0.4998440000000  0.4882630000000 1.0
C      1  0.5490930000000  0.4831080000000  0.5136560000000 1.0
C      1  0.4899350000000  0.5942980000000  0.4564490000000 1.0
C      1  0.5199450000000  0.5919670000000  0.4654670000000 1.0
C      1  0.5370650000000  0.6079740000000  0.4812140000000 1.0
C      1  0.5460520000000  0.5905960000000  0.5014910000000 1.0
C      1  0.5392900000000  0.5919310000000  0.5296970000000 1.0
C      1  0.5202690000000  0.6099610000000  0.5403090000000 1.0
C      1  0.4994250000000  0.5928380000000  0.5488650000000 1.0
C      1  0.4729700000000  0.5955500000000  0.5395620000000 1.0
C      1  0.4454070000000  0.6066970000000  0.5163800000000 1.0
C      1  0.4568270000000  0.6066380000000  0.4912290000000 1.0
C      1  0.4657860000000  0.5887280000000  0.4721520000000 1.0
C      1  0.5964910000000  0.4406150000000  0.5053030000000 1.0
C      1  0.5762740000000  0.4422450000000  0.5520880000000 1.0
C      1  0.5384060000000  0.4388300000000  0.5803090000000 1.0
C      1  0.4789320000000  0.4409840000000  0.5900550000000 1.0
C      1  0.4368350000000  0.4412350000000  0.5641750000000 1.0
C      1  0.4093520000000  0.4395780000000  0.5233210000000 1.0
C      1  0.4148720000000  0.4365200000000  0.4685640000000 1.0
C      1  0.4326800000000  0.4413430000000  0.4190880000000 1.0
C      1  0.4858270000000  0.4389900000000  0.4085360000000 1.0
C      1  0.5311860000000  0.4365030000000  0.4225640000000 1.0
C      1  0.5798850000000  0.4373380000000  0.4508460000000 1.0
C      1  0.4367410000000  0.4691850000000  0.5650210000000 1.0
C      1  0.4065050000000  0.4672480000000  0.5232860000000 1.0
C      1  0.4087110000000  0.4637170000000  0.4701570000000 1.0
C      1  0.4372970000000  0.4681850000000  0.4252970000000 1.0
C      1  0.4859710000000  0.4669770000000  0.4061440000000 1.0
C      1  0.5346270000000  0.4642950000000  0.4210940000000 1.0
C      1  0.5741080000000  0.4643820000000  0.4558480000000 1.0
C      1  0.5948310000000  0.4684530000000  0.5035410000000 1.0
C      1  0.5762690000000  0.4700090000000  0.5513560000000 1.0
C      1  0.5356590000000  0.4674410000000  0.5822730000000 1.0
C      1  0.4816870000000  0.4687140000000  0.5888190000000 1.0
C      1  0.5524070000000  0.5433180000000  0.5374370000000 1.0
C      1  0.5254770000000  0.5256510000000  0.5419350000000 1.0
C      1  0.4961450000000  0.5422650000000  0.5546820000000 1.0
C      1  0.4667230000000  0.5449910000000  0.5402130000000 1.0
C      1  0.4654280000000  0.5335300000000  0.5113240000000 1.0
C      1  0.4383890000000  0.5389470000000  0.4980840000000 1.0
C      1  0.4543830000000  0.5492450000000  0.4436120000000 1.0
C      1  0.4816650000000  0.5483760000000  0.4354360000000 1.0
C      1  0.5387030000000  0.5474780000000  0.4426610000000 1.0
C      1  0.5661850000000  0.5483520000000  0.4505150000000 1.0
C      1  0.5626240000000  0.5454260000000  0.5094550000000 1.0
C      1  0.5824390000000  0.5251040000000  0.5031690000000 1.0
C      1  0.5737160000000  0.5267640000000  0.5514040000000 1.0
C      1  0.5352200000000  0.5240420000000  0.5791960000000 1.0
C      1  0.4881020000000  0.5252280000000  0.5780980000000 1.0
C      1  0.4478160000000  0.5257980000000  0.5537450000000 1.0
C      1  0.4190190000000  0.5232780000000  0.5130510000000 1.0
C      1  0.4031070000000  0.5173610000000  0.4686780000000 1.0
C      1  0.4435650000000  0.5226350000000  0.4391630000000 1.0
C      1  0.4866100000000  0.5241410000000  0.4196460000000 1.0
C      1  0.5344330000000  0.5223470000000  0.4282070000000 1.0
C      1  0.5746690000000  0.5203040000000  0.4529660000000 1.0
C      1  0.5744460000000  0.5671970000000  0.4693170000000 1.0
C      1  0.5645360000000  0.5699020000000  0.4949790000000 1.0
C      1  0.5477220000000  0.5707620000000  0.5482930000000 1.0
C      1  0.5334000000000  0.5701880000000  0.5725090000000 1.0
C      1  0.5063870000000  0.5692110000000  0.5641920000000 1.0
C      1  0.4552560000000  0.5729320000000  0.5423910000000 1.0
C      1  0.4329350000000  0.5827330000000  0.5270200000000 1.0
C      1  0.4278620000000  0.5602210000000  0.4825700000000 1.0
C      1  0.4478790000000  0.5673530000000  0.4648940000000 1.0
C      1  0.4959540000000  0.5735550000000  0.4333870000000 1.0
C      1  0.5255840000000  0.5734350000000  0.4410120000000 1.0
C      1  0.4296140000000  0.5100090000000  0.5369640000000 1.0
C      1  0.4042150000000  0.5065420000000  0.4946730000000 1.0
C      1  0.4194370000000  0.5081620000000  0.4479430000000 1.0
C      1  0.4621050000000  0.5087310000000  0.4213080000000 1.0
C      1  0.5090290000000  0.5061160000000  0.4281890000000 1.0
C      1  0.5573830000000  0.5052860000000  0.4342400000000 1.0
C      1  0.5730490000000  0.5068850000000  0.4804860000000 1.0
C      1  0.5869470000000  0.5110850000000  0.5286860000000 1.0
C      1  0.5600770000000  0.5110020000000  0.5730390000000 1.0
C      1  0.5110880000000  0.5097190000000  0.5857040000000 1.0
C      1  0.4622650000000  0.5113120000000  0.5741960000000 1.0
C      1  0.4935410000000  0.4281070000000  0.5471570000000 1.0
C      1  0.4808670000000  0.4510160000000  0.5194600000000 1.0
C      1  0.4550070000000  0.4462070000000  0.5041180000000 1.0
C      1  0.4620660000000  0.4319820000000  0.4782790000000 1.0
C      1  0.4827580000000  0.4422510000000  0.4581670000000 1.0
C      1  0.5107150000000  0.4364230000000  0.4677600000000 1.0
C      1  0.5200380000000  0.4590300000000  0.4847320000000 1.0
C      1  0.5563770000000  0.4201070000000  0.4898950000000 1.0
C      1  0.5426180000000  0.4532910000000  0.5038130000000 1.0
C      1  0.5362830000000  0.4348780000000  0.5267000000000 1.0
C      1  0.5182630000000  0.4449540000000  0.5484190000000 1.0
C      1  0.4389560000000  0.4228950000000  0.4629020000000 1.0
C      1  0.4472510000000  0.4225940000000  0.4342050000000 1.0
C      1  0.4766030000000  0.4273520000000  0.4326190000000 1.0
C      1  0.5315230000000  0.4264260000000  0.4490210000000 1.0
C      1  0.5579610000000  0.4234930000000  0.4617140000000 1.0
C      1  0.5771880000000  0.4206930000000  0.5095410000000 1.0
C      1  0.5628110000000  0.4241350000000  0.5352770000000 1.0
C      1  0.5184750000000  0.4203000000000  0.5844860000000 1.0
C      1  0.4922640000000  0.4215060000000  0.5753620000000 1.0
C      1  0.4445660000000  0.4218880000000  0.5465830000000 1.0
C      1  0.4355630000000  0.4300690000000  0.5213070000000 1.0
C      1  0.4209650000000  0.4828850000000  0.5442240000000 1.0
C      1  0.4145230000000  0.4784630000000  0.4969150000000 1.0
C      1  0.4279330000000  0.4797720000000  0.4520630000000 1.0
C      1  0.4657650000000  0.4792550000000  0.4247670000000 1.0
C      1  0.5119800000000  0.4808080000000  0.4111230000000 1.0
C      1  0.5494180000000  0.4780310000000  0.4439900000000 1.0
C      1  0.5869250000000  0.4800420000000  0.4776540000000 1.0
C      1  0.5783820000000  0.4827900000000  0.5244210000000 1.0
C      1  0.5523160000000  0.4842990000000  0.5628310000000 1.0
C      1  0.5092580000000  0.4805050000000  0.5873290000000 1.0
C      1  0.4638140000000  0.4819490000000  0.5685550000000 1.0
C      1  0.4896490000000  0.5268710000000  0.4957580000000 1.0
C      1  0.4887490000000  0.4984010000000  0.4979560000000 1.0
C      1  0.4979700000000  0.4694230000000  0.5011030000000 1.0
END
