TITL C-3578201-9217-701 -1.52565153599376e-06 125000 -929.959659361165 0 0 151 (C1) n - 1
REM
REM in /home/bkarasulu/work/CARBON/AIRSS/Generating-Clusters/EDIP-Nigel-Params/with-SteepDescent/Higher-Symm/SD-CG/HFTN-CG
REM
REM
REM
REM
REM
REM ./C.cell (12c818d87b63d06a65506943cc24bca4)
REM
REM compiler GCC version 9.2.1 20190827 (Red Hat 9.2.1-1)
REM options -cpp -mtune=generic -march=x86-64 -g -O0 -fpre-include=/usr/include/finclude/math-vector-fortran.h
REM seed -220005985 -393324654 1595825877 754183359 118575488 518833052 1570527174 51348171 1473712819 -1937655201 -664520275 -755186326 -680396528 -93460710 1831821502 -1240475760 -169350445 -826909763 -1781140878 1089028777 2001520522 1988809109 -1105405908 1572867509 -1676421136 -667941954 1597929921 -730198684 537532251 1823252853 1337692962 973123580 -75647349
REM
CELL 1.54180   50.00000   50.00000   50.00000   90.00000   90.00000   90.00000
LATT -1
SFAC C  
C      1  0.4368630000000  0.5509790000000  0.5451390000000 1.0
C      1  0.4185210000000  0.5092880000000  0.5507010000000 1.0
C      1  0.4248850000000  0.4650420000000  0.5483440000000 1.0
C      1  0.4570030000000  0.4320270000000  0.5516280000000 1.0
C      1  0.4998200000000  0.4193230000000  0.5460520000000 1.0
C      1  0.5431170000000  0.4339840000000  0.5485640000000 1.0
C      1  0.5732240000000  0.4671720000000  0.5446900000000 1.0
C      1  0.5785620000000  0.5122990000000  0.5503000000000 1.0
C      1  0.5611760000000  0.5534530000000  0.5483880000000 1.0
C      1  0.5212800000000  0.5760340000000  0.5522440000000 1.0
C      1  0.4768970000000  0.5749610000000  0.5466130000000 1.0
C      1  0.5530220000000  0.5074670000000  0.4888850000000 1.0
C      1  0.5418970000000  0.5382510000000  0.5022760000000 1.0
C      1  0.5198620000000  0.5568890000000  0.4886930000000 1.0
C      1  0.4910900000000  0.5554560000000  0.4995000000000 1.0
C      1  0.4505510000000  0.5303330000000  0.5016030000000 1.0
C      1  0.4385950000000  0.5060590000000  0.4884680000000 1.0
C      1  0.4462280000000  0.4752640000000  0.5018230000000 1.0
C      1  0.4654670000000  0.4531190000000  0.4889920000000 1.0
C      1  0.4975830000000  0.4451890000000  0.5014560000000 1.0
C      1  0.5262600000000  0.4525200000000  0.4887350000000 1.0
C      1  0.5482850000000  0.4784080000000  0.5012950000000 1.0
C      1  0.4648370000000  0.4285860000000  0.5817290000000 1.0
C      1  0.4959990000000  0.4234970000000  0.5760630000000 1.0
C      1  0.5502360000000  0.4375540000000  0.5790170000000 1.0
C      1  0.5682200000000  0.4638070000000  0.5745390000000 1.0
C      1  0.5779110000000  0.5189140000000  0.5811960000000 1.0
C      1  0.5616010000000  0.5462860000000  0.5778920000000 1.0
C      1  0.5127380000000  0.5767740000000  0.5823560000000 1.0
C      1  0.4822450000000  0.5723240000000  0.5770650000000 1.0
C      1  0.4381180000000  0.5491020000000  0.5738380000000 1.0
C      1  0.4191280000000  0.5019110000000  0.5817490000000 1.0
C      1  0.4277380000000  0.4717580000000  0.5777600000000 1.0
C      1  0.5846420000000  0.5245310000000  0.4445510000000 1.0
C      1  0.5693920000000  0.5706250000000  0.4452210000000 1.0
C      1  0.5243980000000  0.5957440000000  0.4471330000000 1.0
C      1  0.4659330000000  0.5836780000000  0.4457980000000 1.0
C      1  0.4189590000000  0.5526050000000  0.4518420000000 1.0
C      1  0.3956510000000  0.5016490000000  0.4411640000000 1.0
C      1  0.4135070000000  0.4518320000000  0.4459910000000 1.0
C      1  0.4515770000000  0.4179540000000  0.4475650000000 1.0
C      1  0.5060720000000  0.4065930000000  0.4533040000000 1.0
C      1  0.5772100000000  0.4262120000000  0.4535900000000 1.0
C      1  0.5896180000000  0.4741490000000  0.4510750000000 1.0
C      1  0.4275230000000  0.4354560000000  0.5429360000000 1.0
C      1  0.4717500000000  0.4081670000000  0.5380850000000 1.0
C      1  0.5279360000000  0.4091780000000  0.5384750000000 1.0
C      1  0.5709980000000  0.4377970000000  0.5345910000000 1.0
C      1  0.5944370000000  0.4887060000000  0.5386670000000 1.0
C      1  0.5868010000000  0.5401000000000  0.5378210000000 1.0
C      1  0.5505540000000  0.5813290000000  0.5430440000000 1.0
C      1  0.4994290000000  0.5945390000000  0.5391870000000 1.0
C      1  0.4479860000000  0.5787400000000  0.5378860000000 1.0
C      1  0.4100640000000  0.5368930000000  0.5381060000000 1.0
C      1  0.4029980000000  0.4845700000000  0.5385080000000 1.0
C      1  0.4553300000000  0.4839180000000  0.4142540000000 1.0
C      1  0.4698100000000  0.4607790000000  0.4059590000000 1.0
C      1  0.4940380000000  0.4519910000000  0.4174530000000 1.0
C      1  0.5185990000000  0.4592320000000  0.4058780000000 1.0
C      1  0.5389430000000  0.4756770000000  0.4165220000000 1.0
C      1  0.5429510000000  0.5007870000000  0.4049750000000 1.0
C      1  0.5365850000000  0.5263060000000  0.4146750000000 1.0
C      1  0.5138240000000  0.5398730000000  0.4043050000000 1.0
C      1  0.4908620000000  0.5510810000000  0.4169150000000 1.0
C      1  0.4653460000000  0.5334540000000  0.4187460000000 1.0
C      1  0.4720480000000  0.5073250000000  0.4056740000000 1.0
C      1  0.5462160000000  0.4808440000000  0.5857580000000 1.0
C      1  0.5528660000000  0.5073460000000  0.5964810000000 1.0
C      1  0.5368320000000  0.5330790000000  0.5883200000000 1.0
C      1  0.5142370000000  0.5498390000000  0.5974990000000 1.0
C      1  0.4827240000000  0.5452240000000  0.5898770000000 1.0
C      1  0.4555000000000  0.5346260000000  0.5897610000000 1.0
C      1  0.4465800000000  0.5072000000000  0.5959810000000 1.0
C      1  0.4556460000000  0.4777900000000  0.5871490000000 1.0
C      1  0.4729420000000  0.4553970000000  0.5958950000000 1.0
C      1  0.5024740000000  0.4510080000000  0.5859840000000 1.0
C      1  0.5300240000000  0.4559760000000  0.5950150000000 1.0
C      1  0.4958390000000  0.5936800000000  0.4395790000000 1.0
C      1  0.4421500000000  0.5674510000000  0.4443700000000 1.0
C      1  0.4188700000000  0.5221780000000  0.4458710000000 1.0
C      1  0.4022990000000  0.4750080000000  0.4349530000000 1.0
C      1  0.4390100000000  0.4414470000000  0.4362900000000 1.0
C      1  0.4796930000000  0.4149970000000  0.4454020000000 1.0
C      1  0.5297970000000  0.4250840000000  0.4487820000000 1.0
C      1  0.5918550000000  0.4471480000000  0.4439490000000 1.0
C      1  0.5964450000000  0.4985680000000  0.4370760000000 1.0
C      1  0.5844130000000  0.5502790000000  0.4325420000000 1.0
C      1  0.5429790000000  0.5770710000000  0.4350080000000 1.0
C      1  0.4187680000000  0.4605830000000  0.5001520000000 1.0
C      1  0.4492700000000  0.4254590000000  0.4970190000000 1.0
C      1  0.4955190000000  0.4143180000000  0.5010170000000 1.0
C      1  0.5460730000000  0.4269510000000  0.4928790000000 1.0
C      1  0.5756150000000  0.4642480000000  0.4990420000000 1.0
C      1  0.5858630000000  0.5154520000000  0.4943690000000 1.0
C      1  0.5649060000000  0.5593830000000  0.4997450000000 1.0
C      1  0.5265490000000  0.5867830000000  0.4975950000000 1.0
C      1  0.4772860000000  0.5828260000000  0.4975020000000 1.0
C      1  0.4346230000000  0.5556970000000  0.4986510000000 1.0
C      1  0.4074140000000  0.5081840000000  0.4942840000000 1.0
C      1  0.5997520000000  0.5200410000000  0.4687300000000 1.0
C      1  0.5697210000000  0.5673350000000  0.4727380000000 1.0
C      1  0.5303960000000  0.6019110000000  0.4736550000000 1.0
C      1  0.4743810000000  0.5956070000000  0.4708660000000 1.0
C      1  0.4122300000000  0.5583770000000  0.4791940000000 1.0
C      1  0.3911320000000  0.5084980000000  0.4691520000000 1.0
C      1  0.4120960000000  0.4535920000000  0.4734480000000 1.0
C      1  0.4410630000000  0.4128200000000  0.4727030000000 1.0
C      1  0.5072010000000  0.3965970000000  0.4802930000000 1.0
C      1  0.5531280000000  0.4173770000000  0.4647940000000 1.0
C      1  0.5974400000000  0.4690140000000  0.4782410000000 1.0
C      1  0.4437930000000  0.5094450000000  0.4575660000000 1.0
C      1  0.4515000000000  0.4831090000000  0.4443500000000 1.0
C      1  0.4661300000000  0.4575620000000  0.4577070000000 1.0
C      1  0.4942890000000  0.4568930000000  0.4462880000000 1.0
C      1  0.5226760000000  0.4533310000000  0.4578880000000 1.0
C      1  0.5402410000000  0.4759190000000  0.4461630000000 1.0
C      1  0.5429960000000  0.5034710000000  0.4602710000000 1.0
C      1  0.5402460000000  0.5288600000000  0.4445450000000 1.0
C      1  0.5227870000000  0.5530370000000  0.4565900000000 1.0
C      1  0.4950310000000  0.5504320000000  0.4463990000000 1.0
C      1  0.4642880000000  0.5296080000000  0.4492140000000 1.0
C      1  0.5715940000000  0.4359830000000  0.5058730000000 1.0
C      1  0.6000700000000  0.4923030000000  0.5094120000000 1.0
C      1  0.5874960000000  0.5419680000000  0.5091370000000 1.0
C      1  0.5529310000000  0.5844480000000  0.5138970000000 1.0
C      1  0.5006970000000  0.5975570000000  0.5106550000000 1.0
C      1  0.4485960000000  0.5807380000000  0.5091220000000 1.0
C      1  0.4031950000000  0.5356170000000  0.5087770000000 1.0
C      1  0.4003200000000  0.4827840000000  0.5098130000000 1.0
C      1  0.4243980000000  0.4335450000000  0.5137930000000 1.0
C      1  0.4685990000000  0.4063010000000  0.5096840000000 1.0
C      1  0.5319230000000  0.4043360000000  0.5089240000000 1.0
C      1  0.4988000000000  0.4484080000000  0.5321850000000 1.0
C      1  0.5259960000000  0.4588030000000  0.5414870000000 1.0
C      1  0.5464460000000  0.4794300000000  0.5319170000000 1.0
C      1  0.5489880000000  0.5077770000000  0.5423620000000 1.0
C      1  0.5396020000000  0.5351590000000  0.5332500000000 1.0
C      1  0.5142900000000  0.5471050000000  0.5434240000000 1.0
C      1  0.4870640000000  0.5486120000000  0.5295720000000 1.0
C      1  0.4580220000000  0.5308130000000  0.5306080000000 1.0
C      1  0.4482080000000  0.5051470000000  0.5428920000000 1.0
C      1  0.4503440000000  0.4767790000000  0.5328720000000 1.0
C      1  0.4717470000000  0.4577020000000  0.5427280000000 1.0
C      1  0.4941170000000  0.4996120000000  0.5174440000000 1.0
C      1  0.4879050000000  0.4962390000000  0.4661410000000 1.0
C      1  0.4875960000000  0.4928540000000  0.4926760000000 1.0
C      1  0.4978920000000  0.5011080000000  0.5951010000000 1.0
C      1  0.4984170000000  0.5019730000000  0.5692780000000 1.0
C      1  0.5015880000000  0.5066540000000  0.4447510000000 1.0
C      1  0.4973060000000  0.5012260000000  0.4174850000000 1.0
C      1  0.4949970000000  0.5070120000000  0.5430830000000 1.0
END
