TITL C-3577078-809-395 -5.84126947072358e-05 125000 -411.936462133558 0 0 67 (C1) n - 1
REM
REM in /home/bkarasulu/work/CARBON/AIRSS/Generating-Clusters/EDIP-Nigel-Params/with-SteepDescent/Higher-Symm/SD-CG/HFTN-CG
REM
REM
REM
REM
REM
REM ./C.cell (12c818d87b63d06a65506943cc24bca4)
REM
REM compiler GCC version 9.2.1 20190827 (Red Hat 9.2.1-1)
REM options -cpp -mtune=generic -march=x86-64 -g -O0 -fpre-include=/usr/include/finclude/math-vector-fortran.h
REM seed 965014574 -551992263 -999474270 580195301 -883951405 1529453780 -1595989393 1021999224 1695120458 1025024748 455516794 103343206 1383828369 -1613716192 435191986 1377657431 680502555 1020093333 -2130026785 2043354989 511935306 383734388 -1726147186 -524654427 485419156 -2043049442 -244523191 -909482943 -1134234257 -1142736829 1991113564 901907561 55697437
REM
CELL 1.54180   50.00000   50.00000   50.00000   90.00000   90.00000   90.00000
LATT -1
SFAC C  
C      1  0.4517160000000  0.5131590000000  0.4698730000000 1.0
C      1  0.5481420000000  0.5188510000000  0.4578220000000 1.0
C      1  0.4517340000000  0.5558090000000  0.4668590000000 1.0
C      1  0.5445340000000  0.5754160000000  0.4786380000000 1.0
C      1  0.4757820000000  0.4681810000000  0.5594240000000 1.0
C      1  0.5240990000000  0.4665870000000  0.5517830000000 1.0
C      1  0.4723570000000  0.5529770000000  0.5114370000000 1.0
C      1  0.5194740000000  0.5623130000000  0.5177920000000 1.0
C      1  0.4696990000000  0.4940220000000  0.5104300000000 1.0
C      1  0.5611980000000  0.5096370000000  0.5083870000000 1.0
C      1  0.4669350000000  0.5155890000000  0.5497260000000 1.0
C      1  0.5344840000000  0.5162570000000  0.5504390000000 1.0
C      1  0.4666720000000  0.5142230000000  0.4286170000000 1.0
C      1  0.5151760000000  0.5035620000000  0.4260480000000 1.0
C      1  0.4632560000000  0.4652660000000  0.5088740000000 1.0
C      1  0.5462740000000  0.4552630000000  0.5149060000000 1.0
C      1  0.4810600000000  0.5670520000000  0.5462530000000 1.0
C      1  0.5140690000000  0.5705310000000  0.5669580000000 1.0
C      1  0.4961080000000  0.4893340000000  0.5264650000000 1.0
C      1  0.5455900000000  0.4849700000000  0.5170880000000 1.0
C      1  0.4398040000000  0.4899630000000  0.4540300000000 1.0
C      1  0.5555100000000  0.4908180000000  0.4505370000000 1.0
C      1  0.5419190000000  0.4884300000000  0.5462110000000 1.0
C      1  0.4606680000000  0.4917390000000  0.5637450000000 1.0
C      1  0.4712500000000  0.5382120000000  0.4472350000000 1.0
C      1  0.5227540000000  0.5264810000000  0.4436880000000 1.0
C      1  0.4749280000000  0.5052400000000  0.4840520000000 1.0
C      1  0.5466900000000  0.5260470000000  0.4870820000000 1.0
C      1  0.4768710000000  0.4264960000000  0.4797370000000 1.0
C      1  0.5253270000000  0.4311740000000  0.4779500000000 1.0
C      1  0.5569910000000  0.5543970000000  0.4925820000000 1.0
C      1  0.4358610000000  0.5355690000000  0.4841250000000 1.0
C      1  0.4504200000000  0.5119890000000  0.5256660000000 1.0
C      1  0.5547840000000  0.5283210000000  0.5321320000000 1.0
C      1  0.5441090000000  0.4505980000000  0.4865810000000 1.0
C      1  0.4743210000000  0.4566210000000  0.4816690000000 1.0
C      1  0.5240680000000  0.4599650000000  0.4449040000000 1.0
C      1  0.4774340000000  0.4654220000000  0.4349860000000 1.0
C      1  0.4715830000000  0.5688940000000  0.4854740000000 1.0
C      1  0.5190150000000  0.5766830000000  0.4907700000000 1.0
C      1  0.4460890000000  0.5379740000000  0.5123670000000 1.0
C      1  0.5489030000000  0.5550660000000  0.5212130000000 1.0
C      1  0.5570430000000  0.4708330000000  0.4711040000000 1.0
C      1  0.4567090000000  0.4644680000000  0.4564560000000 1.0
C      1  0.5354090000000  0.4819680000000  0.4303620000000 1.0
C      1  0.4412560000000  0.5017140000000  0.4282190000000 1.0
C      1  0.4771310000000  0.4561550000000  0.5328270000000 1.0
C      1  0.5285090000000  0.4439650000000  0.5343000000000 1.0
C      1  0.5008950000000  0.5371760000000  0.5147040000000 1.0
C      1  0.4785140000000  0.4100680000000  0.5035310000000 1.0
C      1  0.4980780000000  0.5667640000000  0.4726080000000 1.0
C      1  0.4732480000000  0.3821830000000  0.5032920000000 1.0
C      1  0.5020520000000  0.4760760000000  0.5686030000000 1.0
C      1  0.5012280000000  0.4263630000000  0.4631230000000 1.0
C      1  0.5084150000000  0.5790240000000  0.5396820000000 1.0
C      1  0.5159430000000  0.5196020000000  0.4921960000000 1.0
C      1  0.5029230000000  0.5019180000000  0.5806890000000 1.0
C      1  0.5173190000000  0.4892940000000  0.5044860000000 1.0
C      1  0.4905900000000  0.5547760000000  0.5741270000000 1.0
C      1  0.4948380000000  0.5280360000000  0.5817720000000 1.0
C      1  0.4880620000000  0.4945850000000  0.4360870000000 1.0
C      1  0.5051200000000  0.4690550000000  0.4771460000000 1.0
C      1  0.4979560000000  0.5173640000000  0.5396550000000 1.0
C      1  0.4557640000000  0.3984040000000  0.5158520000000 1.0
C      1  0.4973900000000  0.4980180000000  0.4663550000000 1.0
C      1  0.4999030000000  0.5410740000000  0.4571100000000 1.0
C      1  0.4999770000000  0.4458030000000  0.4398280000000 1.0
END
