TITL C-3578208-4450-582 -4.03652522701556e-07 125000 -334.343134249299 0 0 56 (Ci) n - 1
REM
REM in /home/bkarasulu/work/CARBON/AIRSS/Generating-Clusters/EDIP-Nigel-Params/with-SteepDescent/Higher-Symm/SD-CG/HFTN-CG
REM
REM
REM
REM
REM
REM ./C.cell (12c818d87b63d06a65506943cc24bca4)
REM
REM compiler GCC version 9.2.1 20190827 (Red Hat 9.2.1-1)
REM options -cpp -mtune=generic -march=x86-64 -g -O0 -fpre-include=/usr/include/finclude/math-vector-fortran.h
REM seed -1064188766 446393961 -1761925812 -436855304 1184434845 -714968815 1303136273 -717676876 -1944751595 591448045 -661236116 -2045385416 1943711739 -498899952 -1019877574 1712683022 -269627555 -24643853 -773306157 -1241924408 -159140801 1038051669 -935284502 1698526823 -275571265 170211529 851011537 467614271 2142619843 -374398567 -710342986 2832968 507503519
REM
CELL 1.54180   50.00000   50.00000   50.00000   90.00000   90.00000   90.00000
LATT -1
SFAC C  
C      1  0.4981640000000  0.5581020000000  0.4414230000000 1.0
C      1  0.5018360000000  0.4418980000000  0.5585770000000 1.0
C      1  0.4380160000000  0.5031850000000  0.5264470000000 1.0
C      1  0.5619840000000  0.4968150000000  0.4735530000000 1.0
C      1  0.4365580000000  0.4729810000000  0.4414630000000 1.0
C      1  0.5634420000000  0.5270190000000  0.5585370000000 1.0
C      1  0.4327050000000  0.4528790000000  0.4589600000000 1.0
C      1  0.5672950000000  0.5471210000000  0.5410400000000 1.0
C      1  0.4558240000000  0.5277650000000  0.5337740000000 1.0
C      1  0.5441760000000  0.4722350000000  0.4662260000000 1.0
C      1  0.5255760000000  0.5439560000000  0.4827200000000 1.0
C      1  0.4744240000000  0.4560440000000  0.5172800000000 1.0
C      1  0.4773530000000  0.4535060000000  0.5500960000000 1.0
C      1  0.5226470000000  0.5464940000000  0.4499040000000 1.0
C      1  0.4210470000000  0.5064810000000  0.5040840000000 1.0
C      1  0.5789530000000  0.4935190000000  0.4959160000000 1.0
C      1  0.5393490000000  0.5148320000000  0.4831820000000 1.0
C      1  0.4606510000000  0.4851680000000  0.5168180000000 1.0
C      1  0.5193090000000  0.5022010000000  0.4632280000000 1.0
C      1  0.4806910000000  0.4977990000000  0.5367720000000 1.0
C      1  0.5587750000000  0.4567940000000  0.5136510000000 1.0
C      1  0.4412250000000  0.5432060000000  0.4863490000000 1.0
C      1  0.5060970000000  0.4750150000000  0.4636980000000 1.0
C      1  0.4939030000000  0.5249850000000  0.5363020000000 1.0
C      1  0.5341950000000  0.5032480000000  0.5108230000000 1.0
C      1  0.4658050000000  0.4967520000000  0.4891770000000 1.0
C      1  0.4796020000000  0.5407970000000  0.4564930000000 1.0
C      1  0.5203980000000  0.4592030000000  0.5435070000000 1.0
C      1  0.4800290000000  0.5604470000000  0.5018200000000 1.0
C      1  0.5199710000000  0.4395530000000  0.4981800000000 1.0
C      1  0.4564280000000  0.5580360000000  0.4647950000000 1.0
C      1  0.5435720000000  0.4419640000000  0.5352050000000 1.0
C      1  0.4694740000000  0.5781250000000  0.4813410000000 1.0
C      1  0.5305260000000  0.4218750000000  0.5186590000000 1.0
C      1  0.4393720000000  0.5134080000000  0.4834380000000 1.0
C      1  0.5606280000000  0.4865920000000  0.5165620000000 1.0
C      1  0.5240940000000  0.5256160000000  0.5300200000000 1.0
C      1  0.4759060000000  0.4743840000000  0.4699800000000 1.0
C      1  0.5187110000000  0.5188390000000  0.4390070000000 1.0
C      1  0.4812890000000  0.4811610000000  0.5609930000000 1.0
C      1  0.5375040000000  0.5174810000000  0.5553700000000 1.0
C      1  0.4624960000000  0.4825190000000  0.4446300000000 1.0
C      1  0.5299650000000  0.4903830000000  0.5632250000000 1.0
C      1  0.4700350000000  0.5096170000000  0.4367750000000 1.0
C      1  0.4429870000000  0.4393660000000  0.4797220000000 1.0
C      1  0.5570130000000  0.5606340000000  0.5202780000000 1.0
C      1  0.4941770000000  0.5382560000000  0.4848470000000 1.0
C      1  0.5058230000000  0.4617440000000  0.5151530000000 1.0
C      1  0.4545400000000  0.5496890000000  0.5130290000000 1.0
C      1  0.5454600000000  0.4503110000000  0.4869710000000 1.0
C      1  0.4676880000000  0.4498120000000  0.4865100000000 1.0
C      1  0.5323120000000  0.5501880000000  0.5134900000000 1.0
C      1  0.5098320000000  0.4897770000000  0.5049540000000 1.0
C      1  0.4901680000000  0.5102230000000  0.4950460000000 1.0
C      1  0.4948530000000  0.5144420000000  0.4249390000000 1.0
C      1  0.5051470000000  0.4855580000000  0.5750610000000 1.0
END
