TITL C-3577078-809-715 -6.57782026403826e-06 125000 -916.556831389827 0 0 148 (C1) n - 1
REM
REM in /home/bkarasulu/work/CARBON/AIRSS/Generating-Clusters/EDIP-Nigel-Params/with-SteepDescent/Higher-Symm/SD-CG/HFTN-CG
REM
REM
REM
REM
REM
REM ./C.cell (12c818d87b63d06a65506943cc24bca4)
REM
REM compiler GCC version 9.2.1 20190827 (Red Hat 9.2.1-1)
REM options -cpp -mtune=generic -march=x86-64 -g -O0 -fpre-include=/usr/include/finclude/math-vector-fortran.h
REM seed -1421684846 1899213252 2083191011 -1556594610 -573821945 1709729053 -1974766091 1256266188 413878852 370885431 1849133309 -584060981 255675685 1831762001 782329355 -34974090 1617050648 -345917645 -431372620 753578684 -1886831227 2112423161 -34743828 1483801222 -852725065 983924375 -1482859538 1097505465 -1623454016 -700356660 1087902080 1961404905 -1456935972
REM
CELL 1.54180   50.00000   50.00000   50.00000   90.00000   90.00000   90.00000
LATT -1
SFAC C  
C      1  0.4835820000000  0.4791320000000  0.4776650000000 1.0
C      1  0.5092090000000  0.5217070000000  0.4745830000000 1.0
C      1  0.4944670000000  0.4646970000000  0.5022370000000 1.0
C      1  0.5090590000000  0.5055020000000  0.5278230000000 1.0
C      1  0.4853520000000  0.5092240000000  0.4838120000000 1.0
C      1  0.5335270000000  0.4743200000000  0.4841960000000 1.0
C      1  0.4854400000000  0.5114400000000  0.5122970000000 1.0
C      1  0.5158390000000  0.4776560000000  0.5184080000000 1.0
C      1  0.4875580000000  0.4818490000000  0.6074610000000 1.0
C      1  0.5228300000000  0.5064400000000  0.5971810000000 1.0
C      1  0.5022150000000  0.4594120000000  0.4067790000000 1.0
C      1  0.5059970000000  0.5122910000000  0.3999210000000 1.0
C      1  0.4921750000000  0.5102630000000  0.5919950000000 1.0
C      1  0.5174420000000  0.4776820000000  0.6091680000000 1.0
C      1  0.4780530000000  0.5189870000000  0.3975610000000 1.0
C      1  0.5095060000000  0.4866700000000  0.4150820000000 1.0
C      1  0.4020700000000  0.4739090000000  0.5223750000000 1.0
C      1  0.6018990000000  0.5331980000000  0.5254660000000 1.0
C      1  0.3961730000000  0.4745080000000  0.4758840000000 1.0
C      1  0.5990100000000  0.5336060000000  0.4782200000000 1.0
C      1  0.3991620000000  0.5351000000000  0.5244070000000 1.0
C      1  0.6073160000000  0.4722830000000  0.5267980000000 1.0
C      1  0.3963380000000  0.5368840000000  0.4762930000000 1.0
C      1  0.6043830000000  0.4714080000000  0.4790760000000 1.0
C      1  0.5394710000000  0.4832520000000  0.5583010000000 1.0
C      1  0.4862970000000  0.5073440000000  0.5622860000000 1.0
C      1  0.5323550000000  0.4855600000000  0.4333340000000 1.0
C      1  0.4650800000000  0.5142970000000  0.4246550000000 1.0
C      1  0.5284530000000  0.5107120000000  0.5659360000000 1.0
C      1  0.4682060000000  0.4833410000000  0.5592600000000 1.0
C      1  0.5375410000000  0.5142810000000  0.4416570000000 1.0
C      1  0.4596840000000  0.4859690000000  0.4362570000000 1.0
C      1  0.4435330000000  0.4377620000000  0.4366410000000 1.0
C      1  0.5467610000000  0.5633660000000  0.4373940000000 1.0
C      1  0.4475430000000  0.4350940000000  0.5620610000000 1.0
C      1  0.5471750000000  0.5665490000000  0.5582610000000 1.0
C      1  0.4501020000000  0.5674200000000  0.4372870000000 1.0
C      1  0.5555910000000  0.4335680000000  0.4459230000000 1.0
C      1  0.4512710000000  0.5647430000000  0.5654390000000 1.0
C      1  0.5549970000000  0.4353580000000  0.5601170000000 1.0
C      1  0.5203820000000  0.4678500000000  0.4558550000000 1.0
C      1  0.4770750000000  0.5339320000000  0.4453060000000 1.0
C      1  0.5177910000000  0.4645560000000  0.5464950000000 1.0
C      1  0.4800500000000  0.5361130000000  0.5499630000000 1.0
C      1  0.5094800000000  0.5318330000000  0.4471010000000 1.0
C      1  0.4844260000000  0.4676000000000  0.4462680000000 1.0
C      1  0.5113110000000  0.5416070000000  0.5494410000000 1.0
C      1  0.4879390000000  0.4596370000000  0.5609760000000 1.0
C      1  0.5575750000000  0.4913340000000  0.4794340000000 1.0
C      1  0.4390030000000  0.5142610000000  0.4700490000000 1.0
C      1  0.5578800000000  0.4839170000000  0.5337390000000 1.0
C      1  0.4438440000000  0.5133230000000  0.5273540000000 1.0
C      1  0.5526760000000  0.5179570000000  0.4688890000000 1.0
C      1  0.4416600000000  0.4863090000000  0.4616200000000 1.0
C      1  0.5579510000000  0.5137000000000  0.5271190000000 1.0
C      1  0.4512250000000  0.4834890000000  0.5337390000000 1.0
C      1  0.5924240000000  0.5608510000000  0.4868300000000 1.0
C      1  0.4008200000000  0.4466610000000  0.4842890000000 1.0
C      1  0.5954360000000  0.5605720000000  0.5157760000000 1.0
C      1  0.4043100000000  0.4463170000000  0.5130890000000 1.0
C      1  0.6004170000000  0.4434450000000  0.4890710000000 1.0
C      1  0.4061250000000  0.5629120000000  0.4864550000000 1.0
C      1  0.6030000000000  0.4443790000000  0.5182340000000 1.0
C      1  0.4075750000000  0.5619380000000  0.5156510000000 1.0
C      1  0.5198680000000  0.5603550000000  0.4499030000000 1.0
C      1  0.4687140000000  0.4410400000000  0.4529060000000 1.0
C      1  0.5264180000000  0.5655340000000  0.5377520000000 1.0
C      1  0.4740190000000  0.4367330000000  0.5489400000000 1.0
C      1  0.5255440000000  0.4386800000000  0.4475110000000 1.0
C      1  0.4770360000000  0.5719090000000  0.4476420000000 1.0
C      1  0.5332080000000  0.4399100000000  0.5384110000000 1.0
C      1  0.4762010000000  0.5742550000000  0.5558040000000 1.0
C      1  0.4525440000000  0.4521750000000  0.5872580000000 1.0
C      1  0.5386310000000  0.5506450000000  0.5825510000000 1.0
C      1  0.4478150000000  0.4526770000000  0.4107820000000 1.0
C      1  0.5437540000000  0.5461340000000  0.4124020000000 1.0
C      1  0.4569010000000  0.5443890000000  0.5861020000000 1.0
C      1  0.5494620000000  0.4503980000000  0.5855860000000 1.0
C      1  0.4509490000000  0.5534490000000  0.4106660000000 1.0
C      1  0.5582980000000  0.4453400000000  0.4185430000000 1.0
C      1  0.5775130000000  0.5306360000000  0.4578020000000 1.0
C      1  0.4151990000000  0.4750820000000  0.4528100000000 1.0
C      1  0.5778820000000  0.5294630000000  0.5437280000000 1.0
C      1  0.4237220000000  0.4730580000000  0.5432190000000 1.0
C      1  0.5782730000000  0.4760150000000  0.4643260000000 1.0
C      1  0.4186250000000  0.5309740000000  0.4564330000000 1.0
C      1  0.5841270000000  0.4747440000000  0.5464040000000 1.0
C      1  0.4226410000000  0.5284600000000  0.5425650000000 1.0
C      1  0.5206040000000  0.4391760000000  0.4178640000000 1.0
C      1  0.4783840000000  0.5484020000000  0.3985830000000 1.0
C      1  0.5225770000000  0.4525820000000  0.5954290000000 1.0
C      1  0.4857650000000  0.5393830000000  0.5967560000000 1.0
C      1  0.5157380000000  0.5405040000000  0.4041210000000 1.0
C      1  0.4750570000000  0.4527070000000  0.4027830000000 1.0
C      1  0.5108640000000  0.5530230000000  0.5912690000000 1.0
C      1  0.4839290000000  0.4553200000000  0.5916710000000 1.0
C      1  0.4837470000000  0.4273870000000  0.5224940000000 1.0
C      1  0.5127040000000  0.5898280000000  0.5297470000000 1.0
C      1  0.4821420000000  0.4170880000000  0.4628540000000 1.0
C      1  0.5162740000000  0.5702080000000  0.4779720000000 1.0
C      1  0.4842850000000  0.5877940000000  0.5323330000000 1.0
C      1  0.5134130000000  0.4197730000000  0.5260440000000 1.0
C      1  0.4869760000000  0.5779320000000  0.4741190000000 1.0
C      1  0.5107080000000  0.4181200000000  0.4634710000000 1.0
C      1  0.5626890000000  0.4759950000000  0.5883020000000 1.0
C      1  0.4351460000000  0.5266960000000  0.5895550000000 1.0
C      1  0.5578200000000  0.4744880000000  0.4198210000000 1.0
C      1  0.4335740000000  0.5293430000000  0.4095370000000 1.0
C      1  0.5555430000000  0.5265510000000  0.5891980000000 1.0
C      1  0.4422040000000  0.4793520000000  0.5861430000000 1.0
C      1  0.5609180000000  0.5228880000000  0.4124020000000 1.0
C      1  0.4336350000000  0.4782350000000  0.4091960000000 1.0
C      1  0.4688590000000  0.4066130000000  0.5096470000000 1.0
C      1  0.5233820000000  0.6024870000000  0.5074250000000 1.0
C      1  0.4696600000000  0.4024190000000  0.4830240000000 1.0
C      1  0.5325220000000  0.5933320000000  0.4837800000000 1.0
C      1  0.4678740000000  0.6029790000000  0.5156290000000 1.0
C      1  0.5236440000000  0.4021290000000  0.5073510000000 1.0
C      1  0.4737510000000  0.5963250000000  0.4901470000000 1.0
C      1  0.5237400000000  0.4006210000000  0.4806030000000 1.0
C      1  0.4651480000000  0.4607740000000  0.5134320000000 1.0
C      1  0.5315960000000  0.5258020000000  0.5199880000000 1.0
C      1  0.4545360000000  0.4694570000000  0.4837940000000 1.0
C      1  0.5300360000000  0.5360990000000  0.4903380000000 1.0
C      1  0.4675750000000  0.5294150000000  0.5240450000000 1.0
C      1  0.5518070000000  0.4521600000000  0.5180740000000 1.0
C      1  0.4650910000000  0.5259420000000  0.4713720000000 1.0
C      1  0.5467840000000  0.4492250000000  0.4900790000000 1.0
C      1  0.5791290000000  0.5178930000000  0.5720540000000 1.0
C      1  0.4192280000000  0.4863070000000  0.5700690000000 1.0
C      1  0.5812140000000  0.5155670000000  0.4317230000000 1.0
C      1  0.4118500000000  0.4890080000000  0.4259740000000 1.0
C      1  0.5839380000000  0.4884940000000  0.5732370000000 1.0
C      1  0.4178170000000  0.5158780000000  0.5699750000000 1.0
C      1  0.5809570000000  0.4856080000000  0.4350560000000 1.0
C      1  0.4134260000000  0.5193450000000  0.4281440000000 1.0
C      1  0.4287930000000  0.5593570000000  0.4562060000000 1.0
C      1  0.5693330000000  0.4459730000000  0.4704880000000 1.0
C      1  0.4313050000000  0.5574860000000  0.5448840000000 1.0
C      1  0.5812570000000  0.4447140000000  0.5497310000000 1.0
C      1  0.4186670000000  0.4457840000000  0.4504290000000 1.0
C      1  0.5707000000000  0.5590750000000  0.4549840000000 1.0
C      1  0.4250360000000  0.4436280000000  0.5452890000000 1.0
C      1  0.5721060000000  0.5586370000000  0.5458520000000 1.0
C      1  0.4019230000000  0.4909150000000  0.4990250000000 1.0
C      1  0.5997520000000  0.5166530000000  0.5017420000000 1.0
C      1  0.6082800000000  0.4887320000000  0.5023910000000 1.0
C      1  0.3942080000000  0.5190620000000  0.5000690000000 1.0
END
