TITL C-3578203-1966-266 2.47925330297406e-06 125000 -724.09831274594 0 0 119 (C1) n - 1
REM
REM in /home/bkarasulu/work/CARBON/AIRSS/Generating-Clusters/EDIP-Nigel-Params/with-SteepDescent/Higher-Symm/SD-CG/HFTN-CG
REM
REM
REM
REM
REM
REM ./C.cell (12c818d87b63d06a65506943cc24bca4)
REM
REM compiler GCC version 9.2.1 20190827 (Red Hat 9.2.1-1)
REM options -cpp -mtune=generic -march=x86-64 -g -O0 -fpre-include=/usr/include/finclude/math-vector-fortran.h
REM seed -706853059 1752618950 -1916162099 -2090168555 -830854783 -974889698 23845948 76481257 1328819550 1464192333 1824329730 -1832679972 824892630 -573402330 585426488 299052887 -522959846 -1765925802 -1353317776 1001036834 904143483 -189895744 804069280 724034966 281361697 1339908062 -546947623 -1654908874 -1070743490 1734305881 -642973310 990643117 -1880955910
REM
CELL 1.54180   50.00000   50.00000   50.00000   90.00000   90.00000   90.00000
LATT -1
SFAC C  
C      1  0.4802570000000  0.4121680000000  0.5122180000000 1.0
C      1  0.4806820000000  0.5332720000000  0.4157000000000 1.0
C      1  0.4802680000000  0.5543520000000  0.5718990000000 1.0
C      1  0.4674800000000  0.5315290000000  0.4419650000000 1.0
C      1  0.4685150000000  0.5325140000000  0.5562040000000 1.0
C      1  0.4677570000000  0.4362390000000  0.5004100000000 1.0
C      1  0.5287480000000  0.4558450000000  0.5897850000000 1.0
C      1  0.5286490000000  0.4437560000000  0.4168880000000 1.0
C      1  0.5269230000000  0.5982370000000  0.4948170000000 1.0
C      1  0.4930120000000  0.4166850000000  0.4443290000000 1.0
C      1  0.4899150000000  0.5805360000000  0.4652430000000 1.0
C      1  0.4934670000000  0.4931060000000  0.6011240000000 1.0
C      1  0.5654660000000  0.5587670000000  0.5427530000000 1.0
C      1  0.5664020000000  0.4334770000000  0.5293750000000 1.0
C      1  0.5665090000000  0.5078940000000  0.4275500000000 1.0
C      1  0.5010730000000  0.4641910000000  0.5422760000000 1.0
C      1  0.5008550000000  0.4812280000000  0.4466560000000 1.0
C      1  0.5001750000000  0.5527690000000  0.5084400000000 1.0
C      1  0.4832820000000  0.5552990000000  0.4827820000000 1.0
C      1  0.4772820000000  0.4810370000000  0.5500860000000 1.0
C      1  0.4766590000000  0.4661870000000  0.4575580000000 1.0
C      1  0.5443150000000  0.4453390000000  0.4417130000000 1.0
C      1  0.5430200000000  0.5769070000000  0.4822980000000 1.0
C      1  0.5442540000000  0.4766370000000  0.5760420000000 1.0
C      1  0.4295140000000  0.4473690000000  0.5429550000000 1.0
C      1  0.4294270000000  0.4900140000000  0.4313940000000 1.0
C      1  0.4277840000000  0.5654770000000  0.5234770000000 1.0
C      1  0.5757670000000  0.5117720000000  0.5260550000000 1.0
C      1  0.5757020000000  0.4718100000000  0.4971530000000 1.0
C      1  0.5754930000000  0.5167070000000  0.4771020000000 1.0
C      1  0.5647300000000  0.4994430000000  0.5490010000000 1.0
C      1  0.5648410000000  0.4582860000000  0.4747570000000 1.0
C      1  0.5641620000000  0.5426850000000  0.4762510000000 1.0
C      1  0.4406390000000  0.4357890000000  0.4869530000000 1.0
C      1  0.4421160000000  0.5453570000000  0.4519860000000 1.0
C      1  0.4413130000000  0.5215450000000  0.5626630000000 1.0
C      1  0.4319980000000  0.5811150000000  0.4885080000000 1.0
C      1  0.4350250000000  0.4726810000000  0.5717150000000 1.0
C      1  0.4345530000000  0.4525740000000  0.4398520000000 1.0
C      1  0.5048400000000  0.4672870000000  0.6003610000000 1.0
C      1  0.5045930000000  0.4293250000000  0.4219630000000 1.0
C      1  0.5024620000000  0.6010510000000  0.4812720000000 1.0
C      1  0.4330380000000  0.4693330000000  0.5230880000000 1.0
C      1  0.4329010000000  0.4963530000000  0.4603530000000 1.0
C      1  0.4324690000000  0.5365120000000  0.5150740000000 1.0
C      1  0.5251090000000  0.4716580000000  0.4062070000000 1.0
C      1  0.5227390000000  0.5921030000000  0.5235860000000 1.0
C      1  0.5250630000000  0.4331410000000  0.5704400000000 1.0
C      1  0.5471960000000  0.5186780000000  0.5621490000000 1.0
C      1  0.5476460000000  0.4371490000000  0.4852280000000 1.0
C      1  0.5473380000000  0.5443280000000  0.4523960000000 1.0
C      1  0.5092990000000  0.5703660000000  0.4439180000000 1.0
C      1  0.5109790000000  0.5134200000000  0.5904270000000 1.0
C      1  0.5099160000000  0.4173830000000  0.4675750000000 1.0
C      1  0.5186830000000  0.5525830000000  0.5506700000000 1.0
C      1  0.5194490000000  0.4299540000000  0.5209830000000 1.0
C      1  0.5198830000000  0.5164040000000  0.4270010000000 1.0
C      1  0.5327570000000  0.5600530000000  0.5784240000000 1.0
C      1  0.5328640000000  0.4022770000000  0.5127820000000 1.0
C      1  0.5335470000000  0.5380400000000  0.4081810000000 1.0
C      1  0.5365400000000  0.5713530000000  0.4537690000000 1.0
C      1  0.5378560000000  0.5041080000000  0.5853200000000 1.0
C      1  0.5371450000000  0.4245920000000  0.4614900000000 1.0
C      1  0.5239330000000  0.5249780000000  0.4565900000000 1.0
C      1  0.5221090000000  0.5223620000000  0.5439780000000 1.0
C      1  0.5231700000000  0.4507140000000  0.4980370000000 1.0
C      1  0.5067050000000  0.5439090000000  0.5869340000000 1.0
C      1  0.5061330000000  0.4039630000000  0.4949520000000 1.0
C      1  0.5064130000000  0.5521090000000  0.4186560000000 1.0
C      1  0.4420430000000  0.4303150000000  0.4573580000000 1.0
C      1  0.4463140000000  0.5718450000000  0.4652620000000 1.0
C      1  0.4424730000000  0.4987820000000  0.5825050000000 1.0
C      1  0.5394440000000  0.4406680000000  0.5424400000000 1.0
C      1  0.5396860000000  0.4925520000000  0.4262770000000 1.0
C      1  0.5379980000000  0.5655880000000  0.5305040000000 1.0
C      1  0.4617700000000  0.4900700000000  0.4687800000000 1.0
C      1  0.4602950000000  0.5331530000000  0.5056490000000 1.0
C      1  0.4623070000000  0.4795200000000  0.5239250000000 1.0
C      1  0.5342890000000  0.5009820000000  0.4775750000000 1.0
C      1  0.5338330000000  0.5178440000000  0.5136430000000 1.0
C      1  0.5336640000000  0.4795810000000  0.5083660000000 1.0
C      1  0.4617010000000  0.4613980000000  0.5688440000000 1.0
C      1  0.4611510000000  0.4600960000000  0.4308620000000 1.0
C      1  0.4468350000000  0.5956650000000  0.5080950000000 1.0
C      1  0.4883690000000  0.4517630000000  0.4843670000000 1.0
C      1  0.4898270000000  0.5346700000000  0.4620070000000 1.0
C      1  0.4893880000000  0.5107400000000  0.5526300000000 1.0
C      1  0.4867780000000  0.5254570000000  0.5169110000000 1.0
C      1  0.4878470000000  0.4750980000000  0.5073680000000 1.0
C      1  0.4870600000000  0.5065140000000  0.4728280000000 1.0
C      1  0.5318030000000  0.4794320000000  0.4541840000000 1.0
C      1  0.5314760000000  0.5482550000000  0.5052750000000 1.0
C      1  0.5322160000000  0.4715730000000  0.5398640000000 1.0
C      1  0.4161570000000  0.5315090000000  0.4918860000000 1.0
C      1  0.4167560000000  0.4916570000000  0.5313470000000 1.0
C      1  0.4167540000000  0.4781540000000  0.4759390000000 1.0
C      1  0.4975500000000  0.4379210000000  0.5579770000000 1.0
C      1  0.4975010000000  0.4804620000000  0.4160670000000 1.0
C      1  0.4948720000000  0.5792890000000  0.5256110000000 1.0
C      1  0.5784160000000  0.5393850000000  0.5276480000000 1.0
C      1  0.5789910000000  0.4563780000000  0.5200090000000 1.0
C      1  0.5785090000000  0.5044040000000  0.4523660000000 1.0
C      1  0.4514960000000  0.5822040000000  0.5333840000000 1.0
C      1  0.4539200000000  0.4363820000000  0.5546750000000 1.0
C      1  0.4539170000000  0.4849020000000  0.4161770000000 1.0
C      1  0.5586540000000  0.4167360000000  0.5057240000000 1.0
C      1  0.5589640000000  0.5368860000000  0.4247400000000 1.0
C      1  0.5582670000000  0.5466910000000  0.5691980000000 1.0
C      1  0.4840000000000  0.5053420000000  0.4048410000000 1.0
C      1  0.4832010000000  0.5777980000000  0.5535250000000 1.0
C      1  0.4835680000000  0.4162420000000  0.5418800000000 1.0
C      1  0.4654810000000  0.4170770000000  0.4485910000000 1.0
C      1  0.4649420000000  0.5896400000000  0.4536510000000 1.0
C      1  0.4659770000000  0.4973560000000  0.5983740000000 1.0
C      1  0.4246710000000  0.4595200000000  0.4955120000000 1.0
C      1  0.4252850000000  0.5252950000000  0.4661200000000 1.0
C      1  0.4251820000000  0.5176320000000  0.5377770000000 1.0
C      1  0.5716040000000  0.5000420000000  0.5002020000000 1.0
C      1  0.4981790000000  0.5024660000000  0.4996430000000 1.0
END
