TITL C-3577082-504-634 -3.78268376625121e-06 125000 -626.412751215464 0 0 99 (C1) n - 1
REM
REM in /home/bkarasulu/work/CARBON/AIRSS/Generating-Clusters/EDIP-Nigel-Params/with-SteepDescent/Higher-Symm/SD-CG/HFTN-CG
REM
REM
REM
REM
REM
REM ./C.cell (12c818d87b63d06a65506943cc24bca4)
REM
REM compiler GCC version 9.2.1 20190827 (Red Hat 9.2.1-1)
REM options -cpp -mtune=generic -march=x86-64 -g -O0 -fpre-include=/usr/include/finclude/math-vector-fortran.h
REM seed 1398219008 -1673550604 871299179 1383452777 876667919 -1353214216 -1154934658 -131370338 -2069253383 -1761816658 1707981247 -1839027635 -1009442533 -900168974 -2143082412 -2043127864 -451415365 592813266 630696830 -372379720 814478953 -842154724 836624426 784514269 -1381943065 -1314306803 1684642642 854850878 -967662883 348563632 -221739412 -1479645559 338828228
REM
CELL 1.54180   50.00000   50.00000   50.00000   90.00000   90.00000   90.00000
LATT -1
SFAC C  
C      1  0.5035050000000  0.4914830000000  0.4550440000000 1.0
C      1  0.4993090000000  0.4554950000000  0.4920410000000 1.0
C      1  0.4897790000000  0.4754300000000  0.5363740000000 1.0
C      1  0.4876730000000  0.5254500000000  0.5265860000000 1.0
C      1  0.4980010000000  0.5362480000000  0.4761840000000 1.0
C      1  0.4612250000000  0.4932620000000  0.4326800000000 1.0
C      1  0.4585850000000  0.4338790000000  0.4799440000000 1.0
C      1  0.4490160000000  0.4671160000000  0.5489130000000 1.0
C      1  0.4586090000000  0.5429640000000  0.5529620000000 1.0
C      1  0.4561830000000  0.5579740000000  0.4750520000000 1.0
C      1  0.5063510000000  0.5466330000000  0.5726340000000 1.0
C      1  0.5016970000000  0.5833430000000  0.4764660000000 1.0
C      1  0.5056060000000  0.5043590000000  0.4086470000000 1.0
C      1  0.5046390000000  0.4156910000000  0.4662970000000 1.0
C      1  0.5037770000000  0.4459770000000  0.5663450000000 1.0
C      1  0.5323570000000  0.4231590000000  0.4753210000000 1.0
C      1  0.5300700000000  0.4574610000000  0.5589960000000 1.0
C      1  0.5338900000000  0.5489590000000  0.5617780000000 1.0
C      1  0.5304720000000  0.5742710000000  0.4730420000000 1.0
C      1  0.5350000000000  0.4984490000000  0.4139360000000 1.0
C      1  0.5418860000000  0.4803350000000  0.4850280000000 1.0
C      1  0.5370810000000  0.4754250000000  0.5158880000000 1.0
C      1  0.5315190000000  0.5027190000000  0.5278240000000 1.0
C      1  0.5336920000000  0.5252450000000  0.5066040000000 1.0
C      1  0.5421170000000  0.5124210000000  0.4790680000000 1.0
C      1  0.4895670000000  0.4126540000000  0.5132580000000 1.0
C      1  0.4919680000000  0.4865110000000  0.5912040000000 1.0
C      1  0.4913020000000  0.5799840000000  0.5383270000000 1.0
C      1  0.4877290000000  0.5616560000000  0.4345260000000 1.0
C      1  0.4944990000000  0.4581590000000  0.4195440000000 1.0
C      1  0.5520440000000  0.5618130000000  0.4899600000000 1.0
C      1  0.5521470000000  0.5108590000000  0.4356930000000 1.0
C      1  0.5524040000000  0.4457170000000  0.4678070000000 1.0
C      1  0.5559770000000  0.4536370000000  0.5424030000000 1.0
C      1  0.5548640000000  0.5281130000000  0.5548900000000 1.0
C      1  0.4973170000000  0.5330860000000  0.5952970000000 1.0
C      1  0.4899110000000  0.6006190000000  0.4953190000000 1.0
C      1  0.4940450000000  0.5286190000000  0.4003820000000 1.0
C      1  0.4949220000000  0.4146130000000  0.4398240000000 1.0
C      1  0.4921690000000  0.4214810000000  0.5595430000000 1.0
C      1  0.5573230000000  0.4363500000000  0.5165280000000 1.0
C      1  0.5566110000000  0.4991050000000  0.5630050000000 1.0
C      1  0.5548050000000  0.5606520000000  0.5195590000000 1.0
C      1  0.5535070000000  0.5386190000000  0.4456240000000 1.0
C      1  0.5569240000000  0.4635370000000  0.4424870000000 1.0
C      1  0.5843740000000  0.4745720000000  0.4956200000000 1.0
C      1  0.5853680000000  0.4898620000000  0.5209770000000 1.0
C      1  0.5847490000000  0.5186540000000  0.5142070000000 1.0
C      1  0.5847750000000  0.5213450000000  0.4847990000000 1.0
C      1  0.5822090000000  0.4943450000000  0.4739410000000 1.0
C      1  0.4861880000000  0.5548290000000  0.5525340000000 1.0
C      1  0.4848240000000  0.5613230000000  0.4645680000000 1.0
C      1  0.4905850000000  0.4865430000000  0.4277720000000 1.0
C      1  0.4871760000000  0.4279050000000  0.4874960000000 1.0
C      1  0.4843620000000  0.4657630000000  0.5731400000000 1.0
C      1  0.4816180000000  0.4392160000000  0.4366460000000 1.0
C      1  0.4781100000000  0.4265930000000  0.5357280000000 1.0
C      1  0.4810390000000  0.5123970000000  0.5854270000000 1.0
C      1  0.4773910000000  0.5830230000000  0.5134370000000 1.0
C      1  0.4792330000000  0.5372540000000  0.4227450000000 1.0
C      1  0.5342310000000  0.5681670000000  0.5395070000000 1.0
C      1  0.5284480000000  0.5548230000000  0.4496660000000 1.0
C      1  0.5375700000000  0.4691910000000  0.4203840000000 1.0
C      1  0.5304590000000  0.4272140000000  0.5057600000000 1.0
C      1  0.5298760000000  0.4859350000000  0.5685960000000 1.0
C      1  0.5199100000000  0.4876930000000  0.5959800000000 1.0
C      1  0.5172580000000  0.5905460000000  0.5394720000000 1.0
C      1  0.5145780000000  0.5666550000000  0.4268870000000 1.0
C      1  0.5194990000000  0.4507730000000  0.4091120000000 1.0
C      1  0.5165260000000  0.4046880000000  0.5180600000000 1.0
C      1  0.4592030000000  0.5220820000000  0.4375630000000 1.0
C      1  0.4594440000000  0.4482090000000  0.4540450000000 1.0
C      1  0.4569730000000  0.4464960000000  0.5307600000000 1.0
C      1  0.4608700000000  0.5156950000000  0.5641210000000 1.0
C      1  0.4563150000000  0.5636550000000  0.5053030000000 1.0
C      1  0.4258560000000  0.5162570000000  0.4739700000000 1.0
C      1  0.4290410000000  0.4859280000000  0.4719880000000 1.0
C      1  0.4285940000000  0.4700670000000  0.4982920000000 1.0
C      1  0.4199850000000  0.5059070000000  0.5388230000000 1.0
C      1  0.4214530000000  0.5307840000000  0.5237660000000 1.0
C      1  0.5706240000000  0.4800530000000  0.5443350000000 1.0
C      1  0.5684400000000  0.5369620000000  0.5304940000000 1.0
C      1  0.5669250000000  0.5422360000000  0.4726220000000 1.0
C      1  0.5668300000000  0.4899580000000  0.4496420000000 1.0
C      1  0.5707840000000  0.4483340000000  0.4925370000000 1.0
C      1  0.4505790000000  0.4762510000000  0.4538480000000 1.0
C      1  0.4478510000000  0.4491850000000  0.5030420000000 1.0
C      1  0.4428420000000  0.4950350000000  0.5527920000000 1.0
C      1  0.4474590000000  0.5435550000000  0.5257390000000 1.0
C      1  0.4474160000000  0.5317970000000  0.4629380000000 1.0
C      1  0.5162650000000  0.4693020000000  0.4713350000000 1.0
C      1  0.5111540000000  0.4588570000000  0.5187920000000 1.0
C      1  0.5051310000000  0.5026690000000  0.5431830000000 1.0
C      1  0.5061600000000  0.5384390000000  0.5047920000000 1.0
C      1  0.5171180000000  0.5186850000000  0.4610080000000 1.0
C      1  0.4733460000000  0.4952720000000  0.5137070000000 1.0
C      1  0.5057590000000  0.4986350000000  0.4976930000000 1.0
C      1  0.4409810000000  0.4953860000000  0.5087230000000 1.0
C      1  0.4140990000000  0.5264810000000  0.4971760000000 1.0
END
