TITL C-3577087-600-225 1.59486785812919e-07 125000 -70.2061067730184 0 0 13 (C1) n - 1
REM
REM in /home/bkarasulu/work/CARBON/AIRSS/Generating-Clusters/EDIP-Nigel-Params/with-SteepDescent/Higher-Symm/SD-CG/HFTN-CG
REM
REM
REM
REM
REM
REM ./C.cell (12c818d87b63d06a65506943cc24bca4)
REM
REM compiler GCC version 9.2.1 20190827 (Red Hat 9.2.1-1)
REM options -cpp -mtune=generic -march=x86-64 -g -O0 -fpre-include=/usr/include/finclude/math-vector-fortran.h
REM seed 1348298727 688824432 -338768083 -1037185947 -1167524633 1176362251 556351586 961356826 1181798913 985345870 -1922196789 -450973446 83006145 1963472960 645770718 -1838805481 -691684035 1191984478 -266713478 547036126 2020851475 1690297492 261628228 1177059169 -1265312000 -1234119347 90833670 -2026914435 414794861 1310083067 1147088843 -1030737734 -1037700744
REM
CELL 1.54180   50.00000   50.00000   50.00000   90.00000   90.00000   90.00000
LATT -1
SFAC C  
C      1  0.4913370000000  0.5077780000000  0.4570130000000 1.0
C      1  0.4591690000000  0.5144280000000  0.4762830000000 1.0
C      1  0.4716110000000  0.5125710000000  0.5253080000000 1.0
C      1  0.5192090000000  0.4980080000000  0.5292070000000 1.0
C      1  0.5299140000000  0.4993940000000  0.4871570000000 1.0
C      1  0.4681930000000  0.5219830000000  0.4510950000000 1.0
C      1  0.4688640000000  0.5267570000000  0.5003000000000 1.0
C      1  0.4968360000000  0.5135560000000  0.5383280000000 1.0
C      1  0.5394020000000  0.5127750000000  0.5125770000000 1.0
C      1  0.5108110000000  0.5182340000000  0.4755410000000 1.0
C      1  0.4993530000000  0.5273460000000  0.5022570000000 1.0
C      1  0.5218090000000  0.4538560000000  0.5058130000000 1.0
C      1  0.5131090000000  0.4789460000000  0.5048620000000 1.0
END
