TITL C-3578209-2550-259 -1.82232134442541e-06 125000 -772.791175339429 0 0 126 (C1) n - 1
REM
REM in /home/bkarasulu/work/CARBON/AIRSS/Generating-Clusters/EDIP-Nigel-Params/with-SteepDescent/Higher-Symm/SD-CG/HFTN-CG
REM
REM
REM
REM
REM
REM ./C.cell (12c818d87b63d06a65506943cc24bca4)
REM
REM compiler GCC version 9.2.1 20190827 (Red Hat 9.2.1-1)
REM options -cpp -mtune=generic -march=x86-64 -g -O0 -fpre-include=/usr/include/finclude/math-vector-fortran.h
REM seed 840658765 -1268106609 257296369 1913922170 348420657 890364836 1374946780 1081126332 1993846109 544522809 -331447050 1603926273 -1023388939 -994451425 -100632071 -326552220 -336472579 -1516977954 1081781376 -1669304990 2026517624 -1344625070 166610314 208998655 1066256305 -1353740343 -1822316395 296933023 654889930 1432032124 -789253735 1031120518 -1471506245
REM
CELL 1.54180   50.00000   50.00000   50.00000   90.00000   90.00000   90.00000
LATT -1
SFAC C  
C      1  0.4898370000000  0.4890110000000  0.3903520000000 1.0
C      1  0.4881380000000  0.5963590000000  0.4516590000000 1.0
C      1  0.4909240000000  0.5774610000000  0.5795980000000 1.0
C      1  0.4860030000000  0.4489650000000  0.5908190000000 1.0
C      1  0.4879300000000  0.3938700000000  0.4835010000000 1.0
C      1  0.5007860000000  0.5320910000000  0.5322260000000 1.0
C      1  0.5155910000000  0.4870320000000  0.5353730000000 1.0
C      1  0.5103120000000  0.4593090000000  0.4934820000000 1.0
C      1  0.5019880000000  0.4896480000000  0.4577030000000 1.0
C      1  0.4987800000000  0.5350890000000  0.4810430000000 1.0
C      1  0.5635770000000  0.4590580000000  0.5653120000000 1.0
C      1  0.5582480000000  0.4338230000000  0.4949260000000 1.0
C      1  0.5647760000000  0.4922400000000  0.4226540000000 1.0
C      1  0.5643520000000  0.5683330000000  0.4637400000000 1.0
C      1  0.5659730000000  0.5559670000000  0.5552980000000 1.0
C      1  0.5300200000000  0.4793460000000  0.5100530000000 1.0
C      1  0.5159400000000  0.4637230000000  0.4646200000000 1.0
C      1  0.5205590000000  0.5143540000000  0.4666630000000 1.0
C      1  0.5192980000000  0.5365190000000  0.5050740000000 1.0
C      1  0.5198220000000  0.5137980000000  0.5473050000000 1.0
C      1  0.5416600000000  0.5662850000000  0.5646600000000 1.0
C      1  0.5369740000000  0.4565550000000  0.5728130000000 1.0
C      1  0.5368930000000  0.4145140000000  0.4897640000000 1.0
C      1  0.5384890000000  0.4915730000000  0.4139430000000 1.0
C      1  0.5374240000000  0.5764300000000  0.4610870000000 1.0
C      1  0.4442930000000  0.5899270000000  0.4861960000000 1.0
C      1  0.4460480000000  0.5411390000000  0.5791430000000 1.0
C      1  0.4397290000000  0.4347910000000  0.5688820000000 1.0
C      1  0.4446760000000  0.4181320000000  0.4626430000000 1.0
C      1  0.4447070000000  0.5141510000000  0.4155640000000 1.0
C      1  0.4112450000000  0.4447370000000  0.5118680000000 1.0
C      1  0.4168400000000  0.4713540000000  0.4505840000000 1.0
C      1  0.4161810000000  0.5367320000000  0.4587240000000 1.0
C      1  0.4174830000000  0.5511770000000  0.5239250000000 1.0
C      1  0.4143980000000  0.4956010000000  0.5556190000000 1.0
C      1  0.5719470000000  0.5126910000000  0.4394360000000 1.0
C      1  0.5663350000000  0.5595220000000  0.4901310000000 1.0
C      1  0.5666490000000  0.5283860000000  0.5607140000000 1.0
C      1  0.5715910000000  0.4531270000000  0.5394310000000 1.0
C      1  0.5642790000000  0.4494650000000  0.4708900000000 1.0
C      1  0.5383210000000  0.5002570000000  0.5911900000000 1.0
C      1  0.5300960000000  0.4296300000000  0.5332970000000 1.0
C      1  0.5391130000000  0.4457580000000  0.4251930000000 1.0
C      1  0.5305630000000  0.5377900000000  0.4307280000000 1.0
C      1  0.5338410000000  0.5853510000000  0.5200220000000 1.0
C      1  0.4574450000000  0.4942500000000  0.4321060000000 1.0
C      1  0.4532740000000  0.5646590000000  0.4756760000000 1.0
C      1  0.4563440000000  0.5479790000000  0.5531780000000 1.0
C      1  0.4466900000000  0.4615290000000  0.5599790000000 1.0
C      1  0.4517760000000  0.4344360000000  0.4863900000000 1.0
C      1  0.5951940000000  0.5089040000000  0.4555170000000 1.0
C      1  0.5860730000000  0.5393010000000  0.4957220000000 1.0
C      1  0.5829720000000  0.5152780000000  0.5407030000000 1.0
C      1  0.5941210000000  0.4674420000000  0.5295580000000 1.0
C      1  0.5891600000000  0.4643830000000  0.4763380000000 1.0
C      1  0.5207140000000  0.4365600000000  0.5597540000000 1.0
C      1  0.5266960000000  0.4168210000000  0.4626450000000 1.0
C      1  0.5209830000000  0.5149960000000  0.4150230000000 1.0
C      1  0.5262910000000  0.5930610000000  0.4829460000000 1.0
C      1  0.5289980000000  0.5468040000000  0.5824510000000 1.0
C      1  0.5250770000000  0.4759060000000  0.5902490000000 1.0
C      1  0.5187090000000  0.4135130000000  0.5123980000000 1.0
C      1  0.5279560000000  0.4654640000000  0.4089170000000 1.0
C      1  0.5196850000000  0.5617760000000  0.4431530000000 1.0
C      1  0.5233610000000  0.5781660000000  0.5455320000000 1.0
C      1  0.4150430000000  0.4677220000000  0.5296250000000 1.0
C      1  0.4157600000000  0.4589020000000  0.4769130000000 1.0
C      1  0.4210370000000  0.5087570000000  0.4522420000000 1.0
C      1  0.4195380000000  0.5439810000000  0.4959370000000 1.0
C      1  0.4247190000000  0.5190750000000  0.5421830000000 1.0
C      1  0.4834230000000  0.6129640000000  0.4973690000000 1.0
C      1  0.4854870000000  0.5346720000000  0.6031680000000 1.0
C      1  0.4792230000000  0.4083270000000  0.5656600000000 1.0
C      1  0.4842900000000  0.4080910000000  0.4372680000000 1.0
C      1  0.4814580000000  0.5361800000000  0.3950170000000 1.0
C      1  0.4576940000000  0.5393210000000  0.4090750000000 1.0
C      1  0.4598370000000  0.6020560000000  0.5072650000000 1.0
C      1  0.4604360000000  0.5239120000000  0.5972820000000 1.0
C      1  0.4530330000000  0.4120200000000  0.5566480000000 1.0
C      1  0.4597350000000  0.4214420000000  0.4380600000000 1.0
C      1  0.4406520000000  0.4717660000000  0.4878470000000 1.0
C      1  0.4420100000000  0.5007120000000  0.4730340000000 1.0
C      1  0.4347890000000  0.5195240000000  0.4953150000000 1.0
C      1  0.4430910000000  0.5087970000000  0.5209890000000 1.0
C      1  0.4373770000000  0.4801700000000  0.5163710000000 1.0
C      1  0.4597790000000  0.5424900000000  0.4377600000000 1.0
C      1  0.4609490000000  0.5748370000000  0.5180530000000 1.0
C      1  0.4574240000000  0.5038740000000  0.5761640000000 1.0
C      1  0.4515060000000  0.4272790000000  0.5324450000000 1.0
C      1  0.4603120000000  0.4492010000000  0.4455000000000 1.0
C      1  0.4427220000000  0.4696930000000  0.4368010000000 1.0
C      1  0.4387170000000  0.5542840000000  0.4531080000000 1.0
C      1  0.4408350000000  0.5641820000000  0.5357350000000 1.0
C      1  0.4355540000000  0.4849600000000  0.5723640000000 1.0
C      1  0.4345130000000  0.4268930000000  0.5096360000000 1.0
C      1  0.5010910000000  0.5521700000000  0.5880830000000 1.0
C      1  0.4946050000000  0.4311740000000  0.5706600000000 1.0
C      1  0.4991590000000  0.4071660000000  0.4608640000000 1.0
C      1  0.4998800000000  0.5153450000000  0.3954560000000 1.0
C      1  0.4990290000000  0.6012700000000  0.4775510000000 1.0
C      1  0.4787680000000  0.5163720000000  0.4922650000000 1.0
C      1  0.4765010000000  0.5126500000000  0.5224510000000 1.0
C      1  0.4864150000000  0.4836280000000  0.5300160000000 1.0
C      1  0.4827970000000  0.4697930000000  0.5014930000000 1.0
C      1  0.4790180000000  0.4904630000000  0.4789110000000 1.0
C      1  0.5389810000000  0.5620360000000  0.5025200000000 1.0
C      1  0.5387840000000  0.5206370000000  0.5708810000000 1.0
C      1  0.5499390000000  0.4477550000000  0.5202680000000 1.0
C      1  0.5371760000000  0.4442860000000  0.4540380000000 1.0
C      1  0.5508670000000  0.5292770000000  0.4483140000000 1.0
C      1  0.4827920000000  0.5615400000000  0.4680730000000 1.0
C      1  0.4848020000000  0.5562500000000  0.5475370000000 1.0
C      1  0.4755650000000  0.4694510000000  0.5594640000000 1.0
C      1  0.4826530000000  0.4312670000000  0.4936910000000 1.0
C      1  0.4871060000000  0.4907100000000  0.4290560000000 1.0
C      1  0.5988280000000  0.4643600000000  0.5022950000000 1.0
C      1  0.6016040000000  0.4820520000000  0.4589010000000 1.0
C      1  0.6004430000000  0.5282100000000  0.4748430000000 1.0
C      1  0.5923470000000  0.5326610000000  0.5216250000000 1.0
C      1  0.5970980000000  0.4915150000000  0.5432050000000 1.0
C      1  0.5000280000000  0.4658940000000  0.4034720000000 1.0
C      1  0.4963060000000  0.5752790000000  0.4347340000000 1.0
C      1  0.5002680000000  0.5904320000000  0.5564060000000 1.0
C      1  0.4965960000000  0.4749230000000  0.5910300000000 1.0
C      1  0.4947850000000  0.3985930000000  0.5102990000000 1.0
C      1  0.5334300000000  0.5073910000000  0.4949670000000 1.0
END
