TITL C-3578204-4308-383 -1.70119921651116e-06 125000 -313.757065334173 0 0 52 (C1) n - 1
REM
REM in /home/bkarasulu/work/CARBON/AIRSS/Generating-Clusters/EDIP-Nigel-Params/with-SteepDescent/Higher-Symm/SD-CG/HFTN-CG
REM
REM
REM
REM
REM
REM ./C.cell (12c818d87b63d06a65506943cc24bca4)
REM
REM compiler GCC version 9.2.1 20190827 (Red Hat 9.2.1-1)
REM options -cpp -mtune=generic -march=x86-64 -g -O0 -fpre-include=/usr/include/finclude/math-vector-fortran.h
REM seed 1200326529 -1635706454 -1977586685 -2027161401 -114383540 1677728565 -1735320306 1053582943 1855216381 1715483406 -219694751 363855435 -835024122 -1829446710 769858615 -1162300965 1508743581 -1281888859 845067462 38043291 1870640815 -1885246206 754729441 -2022356076 591394688 1441062508 -146820333 -1892212268 1831006382 1089396643 -1949528406 -1767503735 -991982652
REM
CELL 1.54180   50.00000   50.00000   50.00000   90.00000   90.00000   90.00000
LATT -1
SFAC C  
C      1  0.5263390000000  0.5076930000000  0.5468400000000 1.0
C      1  0.5474330000000  0.5229210000000  0.5073200000000 1.0
C      1  0.5153590000000  0.5544210000000  0.5339350000000 1.0
C      1  0.4661370000000  0.4843870000000  0.5544880000000 1.0
C      1  0.4667060000000  0.5113530000000  0.4476250000000 1.0
C      1  0.5356030000000  0.4877760000000  0.4450190000000 1.0
C      1  0.4531890000000  0.4734760000000  0.5077600000000 1.0
C      1  0.4437150000000  0.5343400000000  0.4857810000000 1.0
C      1  0.5515590000000  0.4727100000000  0.4899140000000 1.0
C      1  0.4932650000000  0.4529450000000  0.5227270000000 1.0
C      1  0.4930790000000  0.5427550000000  0.4735650000000 1.0
C      1  0.5100410000000  0.4535910000000  0.4729290000000 1.0
C      1  0.5143220000000  0.5344430000000  0.5563360000000 1.0
C      1  0.5259980000000  0.5425870000000  0.5068710000000 1.0
C      1  0.5525900000000  0.5116190000000  0.5334050000000 1.0
C      1  0.4933700000000  0.4739860000000  0.5428620000000 1.0
C      1  0.5102640000000  0.4739330000000  0.4525800000000 1.0
C      1  0.4927380000000  0.5230360000000  0.4522070000000 1.0
C      1  0.4672720000000  0.4472750000000  0.5112760000000 1.0
C      1  0.5348190000000  0.4494580000000  0.4881040000000 1.0
C      1  0.4659480000000  0.5544910000000  0.4843250000000 1.0
C      1  0.4437580000000  0.4851990000000  0.5346150000000 1.0
C      1  0.5567820000000  0.4880800000000  0.4650570000000 1.0
C      1  0.4531010000000  0.5074900000000  0.4740560000000 1.0
C      1  0.4652100000000  0.5132750000000  0.5616110000000 1.0
C      1  0.5647710000000  0.4667700000000  0.5155890000000 1.0
C      1  0.5165080000000  0.5590760000000  0.4627170000000 1.0
C      1  0.5354010000000  0.4831830000000  0.5629380000000 1.0
C      1  0.5383810000000  0.5154260000000  0.4351160000000 1.0
C      1  0.4621630000000  0.4839120000000  0.4373680000000 1.0
C      1  0.4382290000000  0.5350050000000  0.5148890000000 1.0
C      1  0.4359200000000  0.4637980000000  0.4845930000000 1.0
C      1  0.5637240000000  0.5333880000000  0.4850550000000 1.0
C      1  0.4850900000000  0.4397860000000  0.4654290000000 1.0
C      1  0.4862840000000  0.5608730000000  0.5341780000000 1.0
C      1  0.5162180000000  0.4371740000000  0.5326690000000 1.0
C      1  0.5153050000000  0.4621870000000  0.5601640000000 1.0
C      1  0.4657740000000  0.5612180000000  0.5134190000000 1.0
C      1  0.5654470000000  0.5160940000000  0.4620870000000 1.0
C      1  0.4851370000000  0.5345070000000  0.5615980000000 1.0
C      1  0.5155070000000  0.5329260000000  0.4362880000000 1.0
C      1  0.4851610000000  0.4665430000000  0.4387210000000 1.0
C      1  0.5391430000000  0.4384510000000  0.5152160000000 1.0
C      1  0.4626700000000  0.4373300000000  0.4835240000000 1.0
C      1  0.5371750000000  0.5591550000000  0.4837440000000 1.0
C      1  0.4357680000000  0.4843430000000  0.4642990000000 1.0
C      1  0.5636280000000  0.4845540000000  0.5381780000000 1.0
C      1  0.4377590000000  0.5142630000000  0.5352740000000 1.0
C      1  0.5048760000000  0.5278950000000  0.4947380000000 1.0
C      1  0.4912320000000  0.5077310000000  0.5083120000000 1.0
C      1  0.5062500000000  0.4952230000000  0.5287400000000 1.0
C      1  0.4704060000000  0.4939170000000  0.4944420000000 1.0
END
