TITL C-3578201-9217-260 -7.9394567007694e-07 125000 -395.611121973885 0 0 66 (C2) n - 1
REM
REM in /home/bkarasulu/work/CARBON/AIRSS/Generating-Clusters/EDIP-Nigel-Params/with-SteepDescent/Higher-Symm/SD-CG/HFTN-CG
REM
REM
REM
REM
REM
REM ./C.cell (12c818d87b63d06a65506943cc24bca4)
REM
REM compiler GCC version 9.2.1 20190827 (Red Hat 9.2.1-1)
REM options -cpp -mtune=generic -march=x86-64 -g -O0 -fpre-include=/usr/include/finclude/math-vector-fortran.h
REM seed 1660676752 151716130 -216471763 173093383 1751050703 -1270739601 1277173036 1506155243 544580194 1358726670 1706971189 -528025609 612270193 1469406135 -1233821487 -1178553755 -1382445971 -1482405811 1538824223 155757031 -1681247004 504324309 -326765761 1482882055 1871292411 -1685881854 -1601519659 -380547058 -1829428052 302485464 1189294156 -1404008598 -1023056423
REM
CELL 1.54180   50.00000   50.00000   50.00000   90.00000   90.00000   90.00000
LATT -1
SFAC C  
C      1  0.5206380000000  0.5210050000000  0.4309790000000 1.0
C      1  0.4786400000000  0.4803740000000  0.4307950000000 1.0
C      1  0.4779490000000  0.5197530000000  0.5734130000000 1.0
C      1  0.5227970000000  0.4788230000000  0.5727780000000 1.0
C      1  0.5582770000000  0.5300440000000  0.5362520000000 1.0
C      1  0.4420890000000  0.4692580000000  0.5362520000000 1.0
C      1  0.4391320000000  0.5299980000000  0.4658320000000 1.0
C      1  0.5605000000000  0.4707040000000  0.4646220000000 1.0
C      1  0.5428120000000  0.5309970000000  0.4475940000000 1.0
C      1  0.4566380000000  0.4700530000000  0.4474380000000 1.0
C      1  0.4552540000000  0.5306710000000  0.5569530000000 1.0
C      1  0.5453190000000  0.4682340000000  0.5558740000000 1.0
C      1  0.4715560000000  0.5092510000000  0.4322490000000 1.0
C      1  0.5277340000000  0.4921050000000  0.4317900000000 1.0
C      1  0.5282040000000  0.5085500000000  0.5713610000000 1.0
C      1  0.4725240000000  0.4900590000000  0.5714660000000 1.0
C      1  0.5579200000000  0.4492570000000  0.5087010000000 1.0
C      1  0.4421690000000  0.5505720000000  0.5102960000000 1.0
C      1  0.4448310000000  0.4493310000000  0.4919490000000 1.0
C      1  0.5550800000000  0.5508400000000  0.4923810000000 1.0
C      1  0.4347190000000  0.4735140000000  0.5080270000000 1.0
C      1  0.5653550000000  0.5263460000000  0.5078740000000 1.0
C      1  0.5662650000000  0.4742150000000  0.4935890000000 1.0
C      1  0.4336670000000  0.5259160000000  0.4947830000000 1.0
C      1  0.5199520000000  0.4716030000000  0.5129900000000 1.0
C      1  0.4801770000000  0.5281500000000  0.5137520000000 1.0
C      1  0.4816770000000  0.4756580000000  0.4902330000000 1.0
C      1  0.5182150000000  0.5245480000000  0.4905260000000 1.0
C      1  0.4615330000000  0.5435180000000  0.5316190000000 1.0
C      1  0.5387780000000  0.4558880000000  0.5303580000000 1.0
C      1  0.5346080000000  0.5423740000000  0.4727020000000 1.0
C      1  0.4651000000000  0.4581850000000  0.4722310000000 1.0
C      1  0.4798720000000  0.5068780000000  0.4810130000000 1.0
C      1  0.5199220000000  0.4935160000000  0.4806750000000 1.0
C      1  0.5202570000000  0.5013330000000  0.5240840000000 1.0
C      1  0.4799840000000  0.4982070000000  0.5242610000000 1.0
C      1  0.4576810000000  0.4298100000000  0.5111660000000 1.0
C      1  0.5424310000000  0.5699770000000  0.5121100000000 1.0
C      1  0.5449630000000  0.4305500000000  0.4887040000000 1.0
C      1  0.4549210000000  0.5696710000000  0.4905390000000 1.0
C      1  0.5427290000000  0.4944000000000  0.4587110000000 1.0
C      1  0.4568400000000  0.5064250000000  0.4592720000000 1.0
C      1  0.4566300000000  0.4941790000000  0.5449980000000 1.0
C      1  0.5438230000000  0.5049540000000  0.5446540000000 1.0
C      1  0.5152930000000  0.4490710000000  0.4488680000000 1.0
C      1  0.4841770000000  0.5519420000000  0.4500420000000 1.0
C      1  0.4894210000000  0.4511990000000  0.5471500000000 1.0
C      1  0.5110610000000  0.5478800000000  0.5479910000000 1.0
C      1  0.4958720000000  0.4765330000000  0.5598100000000 1.0
C      1  0.5047390000000  0.5223010000000  0.5602150000000 1.0
C      1  0.5058830000000  0.4760730000000  0.4422600000000 1.0
C      1  0.4935160000000  0.5250760000000  0.4428070000000 1.0
C      1  0.5400600000000  0.5537250000000  0.5376800000000 1.0
C      1  0.4603170000000  0.4455560000000  0.5370260000000 1.0
C      1  0.4535100000000  0.5560790000000  0.4618280000000 1.0
C      1  0.5460800000000  0.4447050000000  0.4602530000000 1.0
C      1  0.4818160000000  0.4176870000000  0.5023270000000 1.0
C      1  0.5182070000000  0.5822700000000  0.5037610000000 1.0
C      1  0.5081040000000  0.4221380000000  0.4943650000000 1.0
C      1  0.4918370000000  0.5779740000000  0.4959850000000 1.0
C      1  0.4921200000000  0.4569090000000  0.5163320000000 1.0
C      1  0.5080440000000  0.5427780000000  0.5170960000000 1.0
C      1  0.5112290000000  0.4463510000000  0.4783970000000 1.0
C      1  0.4885460000000  0.5540790000000  0.4795750000000 1.0
C      1  0.4479710000000  0.5001920000000  0.5022090000000 1.0
C      1  0.5520400000000  0.4997860000000  0.5016680000000 1.0
END
