TITL C-3578200-9634-433 -3.73101432535152e-06 125000 -1190.82963689048 0 0 191 (C1) n - 1
REM
REM in /home/bkarasulu/work/CARBON/AIRSS/Generating-Clusters/EDIP-Nigel-Params/with-SteepDescent/Higher-Symm/SD-CG/HFTN-CG
REM
REM
REM
REM
REM
REM ./C.cell (12c818d87b63d06a65506943cc24bca4)
REM
REM compiler GCC version 9.2.1 20190827 (Red Hat 9.2.1-1)
REM options -cpp -mtune=generic -march=x86-64 -g -O0 -fpre-include=/usr/include/finclude/math-vector-fortran.h
REM seed 875332033 -1221583051 -1749115249 602409255 -1174429218 -983533890 1056660063 482083966 -1506734919 -1193164645 -1166666906 1103160282 -1046349227 867071055 -1856525197 563289163 13970700 1710618713 2033460145 713940211 -597682127 -75389267 -976542366 -1660430936 920746362 -1571300322 1307415667 1240895835 -1594230543 1416429147 -1601239463 2062851141 -300260916
REM
CELL 1.54180   50.00000   50.00000   50.00000   90.00000   90.00000   90.00000
LATT -1
SFAC C  
C      1  0.3941530000000  0.5211120000000  0.4320280000000 1.0
C      1  0.6073060000000  0.5192080000000  0.4386820000000 1.0
C      1  0.4993070000000  0.5143650000000  0.6222780000000 1.0
C      1  0.3943710000000  0.4836220000000  0.4353950000000 1.0
C      1  0.6079920000000  0.4814840000000  0.4383150000000 1.0
C      1  0.4938850000000  0.4769790000000  0.6280110000000 1.0
C      1  0.4342830000000  0.5160690000000  0.5277050000000 1.0
C      1  0.5112130000000  0.5174710000000  0.4282740000000 1.0
C      1  0.5578810000000  0.5175130000000  0.5457150000000 1.0
C      1  0.4347040000000  0.4848270000000  0.5259720000000 1.0
C      1  0.5126880000000  0.4853050000000  0.4289690000000 1.0
C      1  0.5583110000000  0.4861520000000  0.5451620000000 1.0
C      1  0.5380920000000  0.5840960000000  0.5209790000000 1.0
C      1  0.4618150000000  0.5803130000000  0.5215800000000 1.0
C      1  0.4993740000000  0.5842390000000  0.4562280000000 1.0
C      1  0.5375420000000  0.4231660000000  0.5233450000000 1.0
C      1  0.4610790000000  0.4194120000000  0.5217920000000 1.0
C      1  0.4995370000000  0.4186240000000  0.4566870000000 1.0
C      1  0.5625210000000  0.5310390000000  0.5196890000000 1.0
C      1  0.4549640000000  0.5283660000000  0.5446000000000 1.0
C      1  0.4867930000000  0.5308650000000  0.4375990000000 1.0
C      1  0.5630890000000  0.4732340000000  0.5194150000000 1.0
C      1  0.4542700000000  0.4714150000000  0.5437880000000 1.0
C      1  0.4874320000000  0.4716120000000  0.4364630000000 1.0
C      1  0.5813070000000  0.4272940000000  0.5003030000000 1.0
C      1  0.4570290000000  0.4257760000000  0.5704450000000 1.0
C      1  0.4586660000000  0.4262360000000  0.4298380000000 1.0
C      1  0.5821640000000  0.5772310000000  0.4984380000000 1.0
C      1  0.4602210000000  0.5739950000000  0.5709950000000 1.0
C      1  0.4589410000000  0.5767640000000  0.4285430000000 1.0
C      1  0.5216010000000  0.4757630000000  0.4783110000000 1.0
C      1  0.5112500000000  0.4744770000000  0.5295550000000 1.0
C      1  0.4712970000000  0.4747470000000  0.4920980000000 1.0
C      1  0.5226860000000  0.5286030000000  0.4771140000000 1.0
C      1  0.5101310000000  0.5266960000000  0.5307010000000 1.0
C      1  0.4704000000000  0.5279870000000  0.4929670000000 1.0
C      1  0.4403820000000  0.5286510000000  0.4253400000000 1.0
C      1  0.5956530000000  0.5294830000000  0.4838730000000 1.0
C      1  0.4675660000000  0.5269950000000  0.5908360000000 1.0
C      1  0.4402190000000  0.4739080000000  0.4257970000000 1.0
C      1  0.5950870000000  0.4741420000000  0.4839760000000 1.0
C      1  0.4672640000000  0.4713090000000  0.5902110000000 1.0
C      1  0.5247800000000  0.4761210000000  0.4034710000000 1.0
C      1  0.5767440000000  0.4752510000000  0.5654820000000 1.0
C      1  0.4067920000000  0.4752790000000  0.5305900000000 1.0
C      1  0.5166180000000  0.5307440000000  0.4018450000000 1.0
C      1  0.5759070000000  0.5288330000000  0.5663970000000 1.0
C      1  0.4077320000000  0.5275120000000  0.5364790000000 1.0
C      1  0.5065510000000  0.4321810000000  0.4317180000000 1.0
C      1  0.5568750000000  0.4354610000000  0.5412600000000 1.0
C      1  0.4366220000000  0.4342830000000  0.5277480000000 1.0
C      1  0.5062920000000  0.5699230000000  0.4316950000000 1.0
C      1  0.5566040000000  0.5703260000000  0.5385740000000 1.0
C      1  0.4372150000000  0.5655020000000  0.5282650000000 1.0
C      1  0.4416620000000  0.5172380000000  0.4965380000000 1.0
C      1  0.5340140000000  0.5178190000000  0.4502290000000 1.0
C      1  0.5280880000000  0.5172290000000  0.5544700000000 1.0
C      1  0.4443370000000  0.4852370000000  0.4972230000000 1.0
C      1  0.5315080000000  0.4859810000000  0.4524060000000 1.0
C      1  0.5285080000000  0.4845660000000  0.5519060000000 1.0
C      1  0.5854060000000  0.4630640000000  0.4338190000000 1.0
C      1  0.5101080000000  0.4563570000000  0.6138190000000 1.0
C      1  0.4012670000000  0.4671040000000  0.4586670000000 1.0
C      1  0.5849350000000  0.5380720000000  0.4330550000000 1.0
C      1  0.5147110000000  0.5338670000000  0.6052920000000 1.0
C      1  0.3994840000000  0.5390970000000  0.4552320000000 1.0
C      1  0.4701290000000  0.3850560000000  0.4954930000000 1.0
C      1  0.5181210000000  0.3861860000000  0.4804950000000 1.0
C      1  0.5077270000000  0.3855330000000  0.5299560000000 1.0
C      1  0.4704780000000  0.6153470000000  0.4952910000000 1.0
C      1  0.5182310000000  0.6177230000000  0.4781610000000 1.0
C      1  0.5086360000000  0.6165090000000  0.5276120000000 1.0
C      1  0.5097950000000  0.5142050000000  0.3788530000000 1.0
C      1  0.6021320000000  0.5167830000000  0.5656330000000 1.0
C      1  0.3933300000000  0.5127220000000  0.5567390000000 1.0
C      1  0.5088720000000  0.4862610000000  0.3817370000000 1.0
C      1  0.6024840000000  0.4887200000000  0.5661290000000 1.0
C      1  0.3953690000000  0.4848380000000  0.5552710000000 1.0
C      1  0.4444120000000  0.5160980000000  0.4524990000000 1.0
C      1  0.5701390000000  0.5167220000000  0.4751880000000 1.0
C      1  0.4892930000000  0.5140750000000  0.5748280000000 1.0
C      1  0.4444310000000  0.4863920000000  0.4528050000000 1.0
C      1  0.5696490000000  0.4870080000000  0.4748350000000 1.0
C      1  0.4917090000000  0.4835500000000  0.5754140000000 1.0
C      1  0.5616630000000  0.4583280000000  0.5854810000000 1.0
C      1  0.3948840000000  0.4556450000000  0.5100100000000 1.0
C      1  0.5438330000000  0.4518310000000  0.4037950000000 1.0
C      1  0.5648450000000  0.5514640000000  0.5816650000000 1.0
C      1  0.3950270000000  0.5418850000000  0.5137630000000 1.0
C      1  0.5417800000000  0.5458170000000  0.4078530000000 1.0
C      1  0.5172600000000  0.5744880000000  0.5715800000000 1.0
C      1  0.4292420000000  0.5729510000000  0.4778710000000 1.0
C      1  0.5538760000000  0.5762550000000  0.4491920000000 1.0
C      1  0.5153760000000  0.4300400000000  0.5712010000000 1.0
C      1  0.4291340000000  0.4281660000000  0.4781470000000 1.0
C      1  0.5536170000000  0.4267650000000  0.4507990000000 1.0
C      1  0.5458850000000  0.4381940000000  0.5683970000000 1.0
C      1  0.4181300000000  0.4368290000000  0.5053190000000 1.0
C      1  0.5352860000000  0.4347990000000  0.4273090000000 1.0
C      1  0.5473550000000  0.5681660000000  0.5660010000000 1.0
C      1  0.4186670000000  0.5607780000000  0.5053720000000 1.0
C      1  0.5349520000000  0.5677090000000  0.4263560000000 1.0
C      1  0.4293020000000  0.3987990000000  0.4740950000000 1.0
C      1  0.5565460000000  0.3975670000000  0.4549420000000 1.0
C      1  0.5089540000000  0.4017510000000  0.5769010000000 1.0
C      1  0.4294450000000  0.6025170000000  0.4764520000000 1.0
C      1  0.5568030000000  0.6056550000000  0.4518960000000 1.0
C      1  0.5116130000000  0.6035210000000  0.5735320000000 1.0
C      1  0.5742700000000  0.4582870000000  0.4073960000000 1.0
C      1  0.5240950000000  0.4687580000000  0.5909350000000 1.0
C      1  0.3851590000000  0.4677710000000  0.4830370000000 1.0
C      1  0.5598210000000  0.5265160000000  0.4219330000000 1.0
C      1  0.5389610000000  0.5253720000000  0.5906470000000 1.0
C      1  0.4075060000000  0.5262120000000  0.4806350000000 1.0
C      1  0.5932490000000  0.5594170000000  0.4766350000000 1.0
C      1  0.4740310000000  0.5569810000000  0.5921350000000 1.0
C      1  0.4348940000000  0.5588140000000  0.4290950000000 1.0
C      1  0.5921820000000  0.4442840000000  0.4779540000000 1.0
C      1  0.4704450000000  0.4410930000000  0.5919940000000 1.0
C      1  0.4345750000000  0.4443940000000  0.4312050000000 1.0
C      1  0.4702170000000  0.5133680000000  0.6179940000000 1.0
C      1  0.4158890000000  0.5159330000000  0.4126520000000 1.0
C      1  0.6172280000000  0.5161920000000  0.4665490000000 1.0
C      1  0.4673410000000  0.4837830000000  0.6177430000000 1.0
C      1  0.4150680000000  0.4863640000000  0.4142460000000 1.0
C      1  0.6169260000000  0.4862020000000  0.4664330000000 1.0
C      1  0.4691770000000  0.4169270000000  0.4567670000000 1.0
C      1  0.5523840000000  0.4188440000000  0.4968200000000 1.0
C      1  0.4758850000000  0.4179530000000  0.5483680000000 1.0
C      1  0.4688900000000  0.5855050000000  0.4559870000000 1.0
C      1  0.5532680000000  0.5866040000000  0.4947150000000 1.0
C      1  0.4775950000000  0.5833400000000  0.5479690000000 1.0
C      1  0.4584000000000  0.5657480000000  0.4742510000000 1.0
C      1  0.5420930000000  0.5680330000000  0.4757400000000 1.0
C      1  0.5005960000000  0.5659230000000  0.5477910000000 1.0
C      1  0.4584570000000  0.4358300000000  0.4757930000000 1.0
C      1  0.5414440000000  0.4364590000000  0.4767170000000 1.0
C      1  0.4976070000000  0.4371780000000  0.5483790000000 1.0
C      1  0.5937990000000  0.4761620000000  0.5149880000000 1.0
C      1  0.4428270000000  0.4747480000000  0.5722840000000 1.0
C      1  0.4682370000000  0.4752410000000  0.4120900000000 1.0
C      1  0.5934680000000  0.5280520000000  0.5149010000000 1.0
C      1  0.4425600000000  0.5253380000000  0.5731940000000 1.0
C      1  0.4683530000000  0.5271100000000  0.4124190000000 1.0
C      1  0.4565380000000  0.6097420000000  0.4696400000000 1.0
C      1  0.5477370000000  0.6118500000000  0.4786010000000 1.0
C      1  0.4931230000000  0.6093050000000  0.5521480000000 1.0
C      1  0.4569470000000  0.3920090000000  0.4693350000000 1.0
C      1  0.5471940000000  0.3928280000000  0.4818370000000 1.0
C      1  0.4914700000000  0.3926880000000  0.5543570000000 1.0
C      1  0.4818220000000  0.4388710000000  0.4160530000000 1.0
C      1  0.5829880000000  0.4405550000000  0.5267930000000 1.0
C      1  0.4348270000000  0.4399500000000  0.5571190000000 1.0
C      1  0.4819160000000  0.5630840000000  0.4157900000000 1.0
C      1  0.5826250000000  0.5640580000000  0.5249830000000 1.0
C      1  0.4369720000000  0.5604960000000  0.5581420000000 1.0
C      1  0.5142230000000  0.5581050000000  0.4811950000000 1.0
C      1  0.5104920000000  0.5566450000000  0.5206220000000 1.0
C      1  0.4766470000000  0.5582270000000  0.4972530000000 1.0
C      1  0.5131320000000  0.4459250000000  0.4811440000000 1.0
C      1  0.5102780000000  0.4443100000000  0.5221180000000 1.0
C      1  0.4773240000000  0.4450010000000  0.4973300000000 1.0
C      1  0.5812810000000  0.5624840000000  0.4495350000000 1.0
C      1  0.5034620000000  0.5594480000000  0.5949070000000 1.0
C      1  0.4162130000000  0.5630250000000  0.4517370000000 1.0
C      1  0.5810520000000  0.4400350000000  0.4509510000000 1.0
C      1  0.4983960000000  0.4327980000000  0.5983180000000 1.0
C      1  0.4161840000000  0.4421790000000  0.4544820000000 1.0
C      1  0.5326980000000  0.3968000000000  0.5338650000000 1.0
C      1  0.4528580000000  0.3920380000000  0.5161040000000 1.0
C      1  0.5087710000000  0.3912470000000  0.4548180000000 1.0
C      1  0.5355830000000  0.6111110000000  0.5313640000000 1.0
C      1  0.4536100000000  0.6076710000000  0.5158810000000 1.0
C      1  0.5082380000000  0.6116700000000  0.4529570000000 1.0
C      1  0.3788010000000  0.4901530000000  0.4998130000000 1.0
C      1  0.5672590000000  0.4809800000000  0.3920310000000 1.0
C      1  0.5481880000000  0.4775940000000  0.6055780000000 1.0
C      1  0.3828650000000  0.5181600000000  0.4946250000000 1.0
C      1  0.5665570000000  0.5052440000000  0.4046180000000 1.0
C      1  0.5522920000000  0.5046680000000  0.6043220000000 1.0
C      1  0.4844310000000  0.4832330000000  0.5432920000000 1.0
C      1  0.4736380000000  0.4842670000000  0.4626040000000 1.0
C      1  0.5462870000000  0.4852170000000  0.4952100000000 1.0
C      1  0.4840680000000  0.5153450000000  0.5447090000000 1.0
C      1  0.4732550000000  0.5183400000000  0.4632180000000 1.0
C      1  0.5465770000000  0.5190780000000  0.4948440000000 1.0
C      1  0.4774590000000  0.5011370000000  0.3963710000000 1.0
C      1  0.4247480000000  0.4997990000000  0.5748180000000 1.0
C      1  0.6036040000000  0.5022510000000  0.5300990000000 1.0
C      1  0.4992350000000  0.6134140000000  0.5001930000000 1.0
C      1  0.4985150000000  0.3887870000000  0.5020920000000 1.0
END
