TITL C-3578209-2550-570 5.74159059959389e-06 125000 -544.177404776812 0 0 87 (C1) n - 1
REM
REM in /home/bkarasulu/work/CARBON/AIRSS/Generating-Clusters/EDIP-Nigel-Params/with-SteepDescent/Higher-Symm/SD-CG/HFTN-CG
REM
REM
REM
REM
REM
REM ./C.cell (12c818d87b63d06a65506943cc24bca4)
REM
REM compiler GCC version 9.2.1 20190827 (Red Hat 9.2.1-1)
REM options -cpp -mtune=generic -march=x86-64 -g -O0 -fpre-include=/usr/include/finclude/math-vector-fortran.h
REM seed 277439337 -340349883 -594290155 419777757 1989378113 -1157686885 -1659408106 -1822007413 -684630521 -1747744693 1542577042 262860766 -1445575860 353280137 -1356608202 -114434120 -2010312735 -1393077690 -813041211 40618700 -361239736 -141198387 -1835635101 -739644174 518967335 -202357866 -434140821 408099744 -1182978189 -1851509391 364524992 228078337 -75420414
REM
CELL 1.54180   50.00000   50.00000   50.00000   90.00000   90.00000   90.00000
LATT -1
SFAC C  
C      1  0.4256020000000  0.4764200000000  0.4896370000000 1.0
C      1  0.5732670000000  0.4764280000000  0.5109290000000 1.0
C      1  0.5739220000000  0.5229650000000  0.4903090000000 1.0
C      1  0.4251670000000  0.5233870000000  0.5100390000000 1.0
C      1  0.4895030000000  0.5313050000000  0.5345420000000 1.0
C      1  0.5079360000000  0.5333730000000  0.4683350000000 1.0
C      1  0.5056360000000  0.4669680000000  0.5325580000000 1.0
C      1  0.4919370000000  0.4672710000000  0.4681820000000 1.0
C      1  0.5343160000000  0.4317560000000  0.5540960000000 1.0
C      1  0.4659230000000  0.4341110000000  0.4463630000000 1.0
C      1  0.4671390000000  0.5636580000000  0.5534460000000 1.0
C      1  0.5336090000000  0.5652760000000  0.4472400000000 1.0
C      1  0.4591390000000  0.4864900000000  0.4570440000000 1.0
C      1  0.5397790000000  0.4862010000000  0.5435260000000 1.0
C      1  0.5404870000000  0.5138610000000  0.4574560000000 1.0
C      1  0.4590860000000  0.5137840000000  0.5423550000000 1.0
C      1  0.5395330000000  0.5184700000000  0.5834900000000 1.0
C      1  0.4621390000000  0.5170880000000  0.4162010000000 1.0
C      1  0.4629330000000  0.4822830000000  0.5823160000000 1.0
C      1  0.5376480000000  0.4833210000000  0.4165310000000 1.0
C      1  0.4456320000000  0.4407800000000  0.4642470000000 1.0
C      1  0.5538680000000  0.4401770000000  0.5360680000000 1.0
C      1  0.5542600000000  0.5588110000000  0.4647150000000 1.0
C      1  0.4455490000000  0.5587060000000  0.5362460000000 1.0
C      1  0.5167040000000  0.5594040000000  0.4884160000000 1.0
C      1  0.4827680000000  0.5571240000000  0.5123340000000 1.0
C      1  0.4834530000000  0.4410050000000  0.4873020000000 1.0
C      1  0.5159720000000  0.4410050000000  0.5132260000000 1.0
C      1  0.4849950000000  0.4821650000000  0.5166780000000 1.0
C      1  0.5138280000000  0.4823760000000  0.4830940000000 1.0
C      1  0.5127720000000  0.5176580000000  0.5187440000000 1.0
C      1  0.4856940000000  0.5186300000000  0.4834570000000 1.0
C      1  0.4459300000000  0.4330450000000  0.4928360000000 1.0
C      1  0.5534910000000  0.4330900000000  0.5074370000000 1.0
C      1  0.5545460000000  0.5665690000000  0.4931160000000 1.0
C      1  0.4456440000000  0.5665480000000  0.5075750000000 1.0
C      1  0.4363270000000  0.4684210000000  0.4630360000000 1.0
C      1  0.5626110000000  0.4680570000000  0.5375300000000 1.0
C      1  0.5636100000000  0.5312610000000  0.4635590000000 1.0
C      1  0.4357720000000  0.5312530000000  0.5367660000000 1.0
C      1  0.5381780000000  0.4413950000000  0.4577210000000 1.0
C      1  0.4630760000000  0.4423150000000  0.5417710000000 1.0
C      1  0.4609910000000  0.5589620000000  0.4575360000000 1.0
C      1  0.5399710000000  0.5597920000000  0.5431770000000 1.0
C      1  0.5566200000000  0.5369000000000  0.5335040000000 1.0
C      1  0.4432530000000  0.5369940000000  0.4670550000000 1.0
C      1  0.4439100000000  0.4632980000000  0.5326820000000 1.0
C      1  0.5559270000000  0.4632790000000  0.4674410000000 1.0
C      1  0.5058260000000  0.4899390000000  0.5672570000000 1.0
C      1  0.4941480000000  0.4864560000000  0.4327760000000 1.0
C      1  0.4938510000000  0.5174400000000  0.5688340000000 1.0
C      1  0.5055060000000  0.5139800000000  0.4330590000000 1.0
C      1  0.5141780000000  0.4681080000000  0.4191040000000 1.0
C      1  0.4873360000000  0.4689410000000  0.5785570000000 1.0
C      1  0.4855830000000  0.5322620000000  0.4192140000000 1.0
C      1  0.5162380000000  0.5343130000000  0.5814420000000 1.0
C      1  0.4294940000000  0.5465600000000  0.4920750000000 1.0
C      1  0.5702500000000  0.5460970000000  0.5083640000000 1.0
C      1  0.5693920000000  0.4535680000000  0.4924990000000 1.0
C      1  0.4299900000000  0.4533860000000  0.5079610000000 1.0
C      1  0.5000580000000  0.5794960000000  0.5245110000000 1.0
C      1  0.5002700000000  0.5811390000000  0.4748410000000 1.0
C      1  0.5006110000000  0.4176860000000  0.5259020000000 1.0
C      1  0.4990270000000  0.4187710000000  0.4739440000000 1.0
C      1  0.5069770000000  0.5727020000000  0.4473650000000 1.0
C      1  0.4938860000000  0.5715280000000  0.5524140000000 1.0
C      1  0.4926320000000  0.4268760000000  0.4462900000000 1.0
C      1  0.5072070000000  0.4260100000000  0.5539730000000 1.0
C      1  0.5135380000000  0.4483210000000  0.4421900000000 1.0
C      1  0.4894230000000  0.4508410000000  0.5541060000000 1.0
C      1  0.4857640000000  0.5519640000000  0.4423080000000 1.0
C      1  0.5166380000000  0.5543870000000  0.5599210000000 1.0
C      1  0.4637980000000  0.5086310000000  0.5726700000000 1.0
C      1  0.5350910000000  0.5091540000000  0.4272610000000 1.0
C      1  0.5353830000000  0.4925150000000  0.5735490000000 1.0
C      1  0.4645970000000  0.4912250000000  0.4268680000000 1.0
C      1  0.4712450000000  0.5755620000000  0.4800090000000 1.0
C      1  0.5296580000000  0.5766230000000  0.5208860000000 1.0
C      1  0.5277180000000  0.4244990000000  0.4799030000000 1.0
C      1  0.4717530000000  0.4238110000000  0.5201820000000 1.0
C      1  0.4580690000000  0.5113400000000  0.4755940000000 1.0
C      1  0.5410190000000  0.5110610000000  0.5251930000000 1.0
C      1  0.5413810000000  0.4890910000000  0.4758930000000 1.0
C      1  0.4577040000000  0.4891620000000  0.5240100000000 1.0
C      1  0.5572590000000  0.4998940000000  0.5005780000000 1.0
C      1  0.4415260000000  0.5000750000000  0.4997630000000 1.0
C      1  0.4995460000000  0.5003260000000  0.5003110000000 1.0
END
