TITL C-3578196-9646-441 -6.08110948240019e-06 125000 -260.912970505342 0 0 43 (C1) n - 1
REM
REM in /home/bkarasulu/work/CARBON/AIRSS/Generating-Clusters/EDIP-Nigel-Params/with-SteepDescent/Higher-Symm/SD-CG/HFTN-CG
REM
REM
REM
REM
REM
REM ./C.cell (12c818d87b63d06a65506943cc24bca4)
REM
REM compiler GCC version 9.2.1 20190827 (Red Hat 9.2.1-1)
REM options -cpp -mtune=generic -march=x86-64 -g -O0 -fpre-include=/usr/include/finclude/math-vector-fortran.h
REM seed -461262657 592976266 -524511870 1931924834 -1338420470 -48359569 947758221 2095572846 1045054006 -1359180057 -1420860830 -1455356605 -415708786 -1401882317 693537381 221259029 1874029177 1260518231 -2052873726 -795254773 -2140987526 832241581 -529725621 -45662068 -179387102 120206155 966517103 -331452803 -1830693496 1260281984 -1232494638 510074313 -2044761686
REM
CELL 1.54180   50.00000   50.00000   50.00000   90.00000   90.00000   90.00000
LATT -1
SFAC C  
C      1  0.4632320000000  0.5216990000000  0.4890030000000 1.0
C      1  0.5096100000000  0.5450990000000  0.4870190000000 1.0
C      1  0.5412770000000  0.5042140000000  0.4850270000000 1.0
C      1  0.5185180000000  0.4647860000000  0.4857570000000 1.0
C      1  0.4677240000000  0.4719830000000  0.4893680000000 1.0
C      1  0.4501350000000  0.4694620000000  0.5135330000000 1.0
C      1  0.5082920000000  0.4625400000000  0.5144860000000 1.0
C      1  0.5396310000000  0.4953710000000  0.5139030000000 1.0
C      1  0.5173850000000  0.5354010000000  0.5138000000000 1.0
C      1  0.4571570000000  0.5373410000000  0.5136870000000 1.0
C      1  0.5311070000000  0.4569840000000  0.5342200000000 1.0
C      1  0.4692020000000  0.4580300000000  0.5342970000000 1.0
C      1  0.4521560000000  0.5164770000000  0.5343720000000 1.0
C      1  0.5020000000000  0.5508360000000  0.5342920000000 1.0
C      1  0.5516120000000  0.5154770000000  0.5334610000000 1.0
C      1  0.5289030000000  0.5419150000000  0.4649080000000 1.0
C      1  0.4705860000000  0.5403440000000  0.4662240000000 1.0
C      1  0.4522890000000  0.4838530000000  0.4659980000000 1.0
C      1  0.5025530000000  0.4490060000000  0.4664330000000 1.0
C      1  0.5515160000000  0.4834220000000  0.4642040000000 1.0
C      1  0.4371370000000  0.4962400000000  0.5157330000000 1.0
C      1  0.4774050000000  0.5590850000000  0.5165270000000 1.0
C      1  0.5478280000000  0.5391670000000  0.5144190000000 1.0
C      1  0.5524610000000  0.4674080000000  0.5148730000000 1.0
C      1  0.4868490000000  0.4412350000000  0.5152340000000 1.0
C      1  0.4383620000000  0.5053190000000  0.4836930000000 1.0
C      1  0.4791900000000  0.4442810000000  0.4848280000000 1.0
C      1  0.5484040000000  0.4601480000000  0.4849720000000 1.0
C      1  0.5520090000000  0.5325230000000  0.4838040000000 1.0
C      1  0.4854590000000  0.5606060000000  0.4847110000000 1.0
C      1  0.5286750000000  0.4873630000000  0.4416860000000 1.0
C      1  0.5009730000000  0.4719430000000  0.4456020000000 1.0
C      1  0.4771610000000  0.4923510000000  0.4489420000000 1.0
C      1  0.4854090000000  0.5220440000000  0.4454670000000 1.0
C      1  0.5169850000000  0.5234790000000  0.4424690000000 1.0
C      1  0.5281430000000  0.5090100000000  0.5547810000000 1.0
C      1  0.5005380000000  0.5268360000000  0.5538760000000 1.0
C      1  0.4766070000000  0.5077800000000  0.5507760000000 1.0
C      1  0.4860420000000  0.4789480000000  0.5506190000000 1.0
C      1  0.5177260000000  0.4782790000000  0.5541400000000 1.0
C      1  0.5051120000000  0.5010750000000  0.5187520000000 1.0
C      1  0.5113440000000  0.5025430000000  0.4752540000000 1.0
C      1  0.4863100000000  0.4992620000000  0.4939610000000 1.0
END
