TITL C-3578201-9217-686 1.96000844765583e-06 125000 -1014.58283070612 0 0 159 (C1) n - 1
REM
REM in /home/bkarasulu/work/CARBON/AIRSS/Generating-Clusters/EDIP-Nigel-Params/with-SteepDescent/Higher-Symm/SD-CG/HFTN-CG
REM
REM
REM
REM
REM
REM ./C.cell (12c818d87b63d06a65506943cc24bca4)
REM
REM compiler GCC version 9.2.1 20190827 (Red Hat 9.2.1-1)
REM options -cpp -mtune=generic -march=x86-64 -g -O0 -fpre-include=/usr/include/finclude/math-vector-fortran.h
REM seed 800332818 -1042298237 -154123892 -2136556074 1156104463 -1129977469 1972703347 -346230708 1868456088 1750449525 1888113566 -1597305711 -611518938 1724845464 305953928 -1909091656 -1611398529 53497261 -1736862512 -241954054 -1733701725 -1368477018 -2048512179 983673485 -1612105846 -265563163 649263739 215442178 741623450 1978448671 194861904 2069928623 -572306652
REM
CELL 1.54180   50.00000   50.00000   50.00000   90.00000   90.00000   90.00000
LATT -1
SFAC C  
C      1  0.4596720000000  0.5277560000000  0.5231010000000 1.0
C      1  0.4546950000000  0.4436600000000  0.5269850000000 1.0
C      1  0.5228440000000  0.4564680000000  0.5258120000000 1.0
C      1  0.5510420000000  0.5043160000000  0.5288220000000 1.0
C      1  0.4999070000000  0.5585800000000  0.5235410000000 1.0
C      1  0.4480490000000  0.5263310000000  0.4756390000000 1.0
C      1  0.4599690000000  0.4750680000000  0.4716040000000 1.0
C      1  0.5236920000000  0.4396630000000  0.4646460000000 1.0
C      1  0.5585370000000  0.5054640000000  0.4784420000000 1.0
C      1  0.5181430000000  0.5513940000000  0.4748420000000 1.0
C      1  0.5106960000000  0.5492460000000  0.4436790000000 1.0
C      1  0.4744880000000  0.5153150000000  0.4428110000000 1.0
C      1  0.4731230000000  0.4850730000000  0.4454670000000 1.0
C      1  0.5020240000000  0.4765230000000  0.4484650000000 1.0
C      1  0.5189220000000  0.5008130000000  0.4508670000000 1.0
C      1  0.5227670000000  0.5426610000000  0.5326280000000 1.0
C      1  0.4819750000000  0.5164680000000  0.5518080000000 1.0
C      1  0.4825510000000  0.4856630000000  0.5506550000000 1.0
C      1  0.5131280000000  0.4752230000000  0.5508430000000 1.0
C      1  0.5315950000000  0.5002500000000  0.5534580000000 1.0
C      1  0.4396650000000  0.4848500000000  0.5766670000000 1.0
C      1  0.4950850000000  0.4370560000000  0.5739420000000 1.0
C      1  0.5615380000000  0.4732220000000  0.5766500000000 1.0
C      1  0.5443560000000  0.5537510000000  0.5794610000000 1.0
C      1  0.4673000000000  0.5572270000000  0.5744590000000 1.0
C      1  0.4332190000000  0.4839950000000  0.4217260000000 1.0
C      1  0.4917110000000  0.4338360000000  0.4199060000000 1.0
C      1  0.5543960000000  0.4695470000000  0.4355350000000 1.0
C      1  0.5535660000000  0.5506140000000  0.4321030000000 1.0
C      1  0.4648370000000  0.5581750000000  0.4210060000000 1.0
C      1  0.4698320000000  0.3975260000000  0.4859330000000 1.0
C      1  0.5821990000000  0.4430100000000  0.4655360000000 1.0
C      1  0.5933300000000  0.5502210000000  0.4772480000000 1.0
C      1  0.4681770000000  0.5991970000000  0.4893630000000 1.0
C      1  0.3934660000000  0.5090900000000  0.4752100000000 1.0
C      1  0.4773900000000  0.3978810000000  0.5486160000000 1.0
C      1  0.5742750000000  0.4500170000000  0.5209530000000 1.0
C      1  0.5735180000000  0.5574390000000  0.5223340000000 1.0
C      1  0.4665900000000  0.6011550000000  0.5209970000000 1.0
C      1  0.4023500000000  0.4930170000000  0.5095840000000 1.0
C      1  0.4617150000000  0.4730960000000  0.4199380000000 1.0
C      1  0.5099240000000  0.4573090000000  0.4238270000000 1.0
C      1  0.5432920000000  0.4976880000000  0.4312430000000 1.0
C      1  0.5276590000000  0.5509040000000  0.4176500000000 1.0
C      1  0.4616870000000  0.5273240000000  0.4187750000000 1.0
C      1  0.4678180000000  0.4758810000000  0.5766900000000 1.0
C      1  0.5155700000000  0.4587390000000  0.5766420000000 1.0
C      1  0.5477830000000  0.5005650000000  0.5795060000000 1.0
C      1  0.5158330000000  0.5528430000000  0.5876360000000 1.0
C      1  0.4655940000000  0.5268630000000  0.5764360000000 1.0
C      1  0.4942720000000  0.5369360000000  0.4850620000000 1.0
C      1  0.4650600000000  0.5011120000000  0.4879200000000 1.0
C      1  0.4794530000000  0.4505400000000  0.4819380000000 1.0
C      1  0.5073010000000  0.4626260000000  0.4751940000000 1.0
C      1  0.5452740000000  0.5322820000000  0.4869530000000 1.0
C      1  0.4776030000000  0.5482680000000  0.5067130000000 1.0
C      1  0.4602860000000  0.4950530000000  0.5200440000000 1.0
C      1  0.4794690000000  0.4477320000000  0.5120460000000 1.0
C      1  0.5231590000000  0.4745980000000  0.4992730000000 1.0
C      1  0.5322230000000  0.5209440000000  0.5126090000000 1.0
C      1  0.5629730000000  0.5220430000000  0.4378830000000 1.0
C      1  0.4873250000000  0.5672700000000  0.4409550000000 1.0
C      1  0.4337230000000  0.5136950000000  0.4255170000000 1.0
C      1  0.4645940000000  0.4425880000000  0.4243420000000 1.0
C      1  0.5357040000000  0.4467650000000  0.4364300000000 1.0
C      1  0.5608080000000  0.5287320000000  0.5762570000000 1.0
C      1  0.4946060000000  0.5680190000000  0.5725190000000 1.0
C      1  0.4378490000000  0.5137560000000  0.5751220000000 1.0
C      1  0.4684430000000  0.4464940000000  0.5770360000000 1.0
C      1  0.5439510000000  0.4487850000000  0.5757350000000 1.0
C      1  0.4454250000000  0.4307230000000  0.5683580000000 1.0
C      1  0.5470910000000  0.4259320000000  0.5563640000000 1.0
C      1  0.5880020000000  0.5287310000000  0.5646270000000 1.0
C      1  0.5009100000000  0.5956220000000  0.5630530000000 1.0
C      1  0.4152640000000  0.5251940000000  0.5598150000000 1.0
C      1  0.4462460000000  0.4264590000000  0.4417240000000 1.0
C      1  0.5489960000000  0.4196410000000  0.4315400000000 1.0
C      1  0.5919160000000  0.5150570000000  0.4435870000000 1.0
C      1  0.4984150000000  0.5949290000000  0.4462990000000 1.0
C      1  0.4111290000000  0.5317850000000  0.4338860000000 1.0
C      1  0.4449860000000  0.5691660000000  0.5597880000000 1.0
C      1  0.4247760000000  0.4687650000000  0.5575270000000 1.0
C      1  0.4996700000000  0.4181580000000  0.5518030000000 1.0
C      1  0.5885730000000  0.4757280000000  0.5663020000000 1.0
C      1  0.5496810000000  0.5772120000000  0.5636140000000 1.0
C      1  0.4431330000000  0.5670890000000  0.4388130000000 1.0
C      1  0.4185920000000  0.4672540000000  0.4415440000000 1.0
C      1  0.5006210000000  0.4100630000000  0.4344540000000 1.0
C      1  0.5811640000000  0.4638140000000  0.4433430000000 1.0
C      1  0.5471440000000  0.5744050000000  0.4503370000000 1.0
C      1  0.5293560000000  0.4987810000000  0.4038110000000 1.0
C      1  0.5131020000000  0.5237800000000  0.4013190000000 1.0
C      1  0.4824130000000  0.5155380000000  0.3990790000000 1.0
C      1  0.4812410000000  0.4858490000000  0.3983270000000 1.0
C      1  0.5098640000000  0.4761060000000  0.4003180000000 1.0
C      1  0.5273890000000  0.5016030000000  0.6007850000000 1.0
C      1  0.5089660000000  0.5244180000000  0.5950920000000 1.0
C      1  0.4811160000000  0.5168060000000  0.5998050000000 1.0
C      1  0.4820730000000  0.4871740000000  0.6004940000000 1.0
C      1  0.5102400000000  0.4775730000000  0.6003960000000 1.0
C      1  0.4501050000000  0.4058150000000  0.5548160000000 1.0
C      1  0.5485220000000  0.4369400000000  0.5282160000000 1.0
C      1  0.5899910000000  0.5357980000000  0.5349790000000 1.0
C      1  0.4938570000000  0.6046400000000  0.5333850000000 1.0
C      1  0.4125570000000  0.5142410000000  0.5309690000000 1.0
C      1  0.4525590000000  0.4182140000000  0.4706930000000 1.0
C      1  0.5647410000000  0.4167390000000  0.4571930000000 1.0
C      1  0.6024800000000  0.5254190000000  0.4695760000000 1.0
C      1  0.4949850000000  0.6022840000000  0.4748950000000 1.0
C      1  0.3979360000000  0.5318930000000  0.4598800000000 1.0
C      1  0.4232860000000  0.5389510000000  0.4878890000000 1.0
C      1  0.4312540000000  0.4238080000000  0.4905190000000 1.0
C      1  0.5481290000000  0.4300370000000  0.4794620000000 1.0
C      1  0.5867300000000  0.5074450000000  0.4878460000000 1.0
C      1  0.5149700000000  0.5827640000000  0.4859460000000 1.0
C      1  0.4298540000000  0.5358970000000  0.5197250000000 1.0
C      1  0.4410200000000  0.4171100000000  0.5189320000000 1.0
C      1  0.5428320000000  0.4165940000000  0.5057490000000 1.0
C      1  0.5815480000000  0.5098550000000  0.5226970000000 1.0
C      1  0.5098680000000  0.5849430000000  0.5166930000000 1.0
C      1  0.5291530000000  0.5966270000000  0.5673090000000 1.0
C      1  0.4221110000000  0.5526450000000  0.5601340000000 1.0
C      1  0.4200630000000  0.4427800000000  0.5676080000000 1.0
C      1  0.5259100000000  0.4069850000000  0.5578030000000 1.0
C      1  0.5981680000000  0.5024130000000  0.5686150000000 1.0
C      1  0.5266530000000  0.5925240000000  0.4423610000000 1.0
C      1  0.4186500000000  0.5580820000000  0.4289830000000 1.0
C      1  0.4217300000000  0.4396280000000  0.4375430000000 1.0
C      1  0.5271460000000  0.4022970000000  0.4282560000000 1.0
C      1  0.5964390000000  0.4871740000000  0.4429020000000 1.0
C      1  0.5578110000000  0.5772370000000  0.4779160000000 1.0
C      1  0.4595100000000  0.5536340000000  0.4638640000000 1.0
C      1  0.4284190000000  0.4715200000000  0.4699050000000 1.0
C      1  0.4982110000000  0.4215150000000  0.4622550000000 1.0
C      1  0.5511440000000  0.4790270000000  0.4892510000000 1.0
C      1  0.5480940000000  0.5655360000000  0.5362390000000 1.0
C      1  0.4485960000000  0.5805320000000  0.5332400000000 1.0
C      1  0.4382950000000  0.4690500000000  0.5299660000000 1.0
C      1  0.5024220000000  0.4331060000000  0.5239660000000 1.0
C      1  0.5931280000000  0.4643990000000  0.5390320000000 1.0
C      1  0.5140140000000  0.4103190000000  0.5072170000000 1.0
C      1  0.6041030000000  0.4863370000000  0.5230560000000 1.0
C      1  0.5384980000000  0.5899190000000  0.5223530000000 1.0
C      1  0.4246120000000  0.5739470000000  0.5193580000000 1.0
C      1  0.4131980000000  0.4651660000000  0.5144560000000 1.0
C      1  0.4993490000000  0.4002860000000  0.4824800000000 1.0
C      1  0.5992380000000  0.4805870000000  0.4942130000000 1.0
C      1  0.5490220000000  0.5974860000000  0.4958720000000 1.0
C      1  0.4280680000000  0.5690710000000  0.4915660000000 1.0
C      1  0.4182080000000  0.4505120000000  0.4889000000000 1.0
C      1  0.4169400000000  0.4957790000000  0.4826660000000 1.0
C      1  0.5760470000000  0.4614140000000  0.4930660000000 1.0
C      1  0.5687930000000  0.5537520000000  0.4918380000000 1.0
C      1  0.4580740000000  0.5705480000000  0.4893310000000 1.0
C      1  0.4623050000000  0.3961180000000  0.5143900000000 1.0
C      1  0.4948670000000  0.5083940000000  0.4824290000000 1.0
C      1  0.5112950000000  0.5009350000000  0.5049410000000 1.0
C      1  0.5123240000000  0.5244730000000  0.5555860000000 1.0
C      1  0.5023350000000  0.5213120000000  0.4382740000000 1.0
END
