TITL C-3578204-4308-550 2.1915310702935e-06 125000 -1047.36670786762 0 0 166 (C1) n - 1
REM
REM in /home/bkarasulu/work/CARBON/AIRSS/Generating-Clusters/EDIP-Nigel-Params/with-SteepDescent/Higher-Symm/SD-CG/HFTN-CG
REM
REM
REM
REM
REM
REM ./C.cell (12c818d87b63d06a65506943cc24bca4)
REM
REM compiler GCC version 9.2.1 20190827 (Red Hat 9.2.1-1)
REM options -cpp -mtune=generic -march=x86-64 -g -O0 -fpre-include=/usr/include/finclude/math-vector-fortran.h
REM seed -343869840 1591403754 -1058947913 617891257 -100842347 3867703 -414327621 -642817298 1516030128 1424772478 -1724515433 -1143803778 1270449309 -1236692958 742669703 -1742240560 -2016271004 403271329 1415778741 -1547634110 -2040831959 237320236 -1892989091 280458428 113896191 -1417812531 1200647957 -533396062 997346373 -1258998961 1561103624 782818359 -262569214
REM
CELL 1.54180   50.00000   50.00000   50.00000   90.00000   90.00000   90.00000
LATT -1
SFAC C  
C      1  0.4772810000000  0.5228660000000  0.4637180000000 1.0
C      1  0.5381210000000  0.4829640000000  0.4460550000000 1.0
C      1  0.4917360000000  0.5819260000000  0.5656190000000 1.0
C      1  0.5062660000000  0.4210760000000  0.5643890000000 1.0
C      1  0.5482700000000  0.4741850000000  0.4051670000000 1.0
C      1  0.4539110000000  0.5245300000000  0.4117670000000 1.0
C      1  0.5033620000000  0.5390180000000  0.6038000000000 1.0
C      1  0.4948580000000  0.4644040000000  0.5988260000000 1.0
C      1  0.4560450000000  0.5728130000000  0.4835550000000 1.0
C      1  0.5432420000000  0.4267930000000  0.4831200000000 1.0
C      1  0.5241920000000  0.4022990000000  0.5512740000000 1.0
C      1  0.4727870000000  0.5986130000000  0.5511970000000 1.0
C      1  0.4020800000000  0.5538360000000  0.5483530000000 1.0
C      1  0.5968990000000  0.4457450000000  0.5482100000000 1.0
C      1  0.5734220000000  0.4453650000000  0.4450380000000 1.0
C      1  0.4271850000000  0.5529460000000  0.4462820000000 1.0
C      1  0.4451450000000  0.5727890000000  0.5606900000000 1.0
C      1  0.5534430000000  0.4268310000000  0.5598730000000 1.0
C      1  0.4729800000000  0.5467390000000  0.5961540000000 1.0
C      1  0.5241700000000  0.4556590000000  0.5928650000000 1.0
C      1  0.5672480000000  0.4467660000000  0.4752670000000 1.0
C      1  0.4341160000000  0.5513130000000  0.4758040000000 1.0
C      1  0.6035350000000  0.4958980000000  0.4831700000000 1.0
C      1  0.3943410000000  0.5015340000000  0.4848830000000 1.0
C      1  0.5694060000000  0.4719980000000  0.5789740000000 1.0
C      1  0.4274220000000  0.5277260000000  0.5803110000000 1.0
C      1  0.3964030000000  0.5226770000000  0.5034710000000 1.0
C      1  0.6048420000000  0.4742110000000  0.5015200000000 1.0
C      1  0.5107210000000  0.5108640000000  0.3913870000000 1.0
C      1  0.4896490000000  0.4897820000000  0.3986870000000 1.0
C      1  0.5361870000000  0.5027770000000  0.6037190000000 1.0
C      1  0.4608320000000  0.4982900000000  0.6076340000000 1.0
C      1  0.4731510000000  0.4511010000000  0.4645640000000 1.0
C      1  0.5229950000000  0.5475140000000  0.4663700000000 1.0
C      1  0.4289310000000  0.4780450000000  0.5734510000000 1.0
C      1  0.5699710000000  0.5236080000000  0.5725690000000 1.0
C      1  0.4899410000000  0.4155530000000  0.5200490000000 1.0
C      1  0.5076120000000  0.5863930000000  0.5201010000000 1.0
C      1  0.4731560000000  0.5105840000000  0.5062770000000 1.0
C      1  0.5270860000000  0.4778670000000  0.4996460000000 1.0
C      1  0.5579050000000  0.4267430000000  0.4317370000000 1.0
C      1  0.4414490000000  0.5724510000000  0.4327820000000 1.0
C      1  0.4798160000000  0.4615520000000  0.4926010000000 1.0
C      1  0.5167470000000  0.5376690000000  0.4941900000000 1.0
C      1  0.4775660000000  0.4444980000000  0.4181220000000 1.0
C      1  0.5234280000000  0.5569870000000  0.4143080000000 1.0
C      1  0.5666710000000  0.4744170000000  0.5245060000000 1.0
C      1  0.4341630000000  0.5239430000000  0.5293690000000 1.0
C      1  0.4981380000000  0.4416460000000  0.5062540000000 1.0
C      1  0.4993950000000  0.5594490000000  0.5061990000000 1.0
C      1  0.5828600000000  0.5453380000000  0.5285930000000 1.0
C      1  0.4155790000000  0.4524780000000  0.5337190000000 1.0
C      1  0.4865980000000  0.4930710000000  0.4423760000000 1.0
C      1  0.5325980000000  0.5101670000000  0.4339310000000 1.0
C      1  0.5234190000000  0.5989040000000  0.4977280000000 1.0
C      1  0.4740620000000  0.4019510000000  0.4981750000000 1.0
C      1  0.4666490000000  0.4986490000000  0.5644560000000 1.0
C      1  0.5389270000000  0.4978790000000  0.5605490000000 1.0
C      1  0.5322370000000  0.4317500000000  0.4227970000000 1.0
C      1  0.4666040000000  0.5695610000000  0.4217800000000 1.0
C      1  0.5254730000000  0.4573090000000  0.4120000000000 1.0
C      1  0.4748400000000  0.5443220000000  0.4117720000000 1.0
C      1  0.4849980000000  0.4170370000000  0.4259510000000 1.0
C      1  0.5135150000000  0.5806760000000  0.4283110000000 1.0
C      1  0.5094180000000  0.5105750000000  0.6121270000000 1.0
C      1  0.4890180000000  0.4904710000000  0.6121460000000 1.0
C      1  0.4942160000000  0.5454510000000  0.5318390000000 1.0
C      1  0.5034260000000  0.4575110000000  0.5314900000000 1.0
C      1  0.5770480000000  0.4449360000000  0.5690310000000 1.0
C      1  0.4209190000000  0.5549610000000  0.5701770000000 1.0
C      1  0.4397980000000  0.5735700000000  0.5308230000000 1.0
C      1  0.5597370000000  0.4250460000000  0.5303130000000 1.0
C      1  0.4446320000000  0.5103690000000  0.5011770000000 1.0
C      1  0.5545210000000  0.4827680000000  0.4971460000000 1.0
C      1  0.6033500000000  0.4927320000000  0.4553170000000 1.0
C      1  0.3974310000000  0.5039410000000  0.4571580000000 1.0
C      1  0.5393530000000  0.4198160000000  0.5115180000000 1.0
C      1  0.4598350000000  0.5793210000000  0.5116910000000 1.0
C      1  0.4426480000000  0.4370160000000  0.5121430000000 1.0
C      1  0.5519420000000  0.5638210000000  0.5145410000000 1.0
C      1  0.5416260000000  0.5030430000000  0.3965440000000 1.0
C      1  0.4620080000000  0.4972180000000  0.4057720000000 1.0
C      1  0.5675180000000  0.5475630000000  0.5548660000000 1.0
C      1  0.4278970000000  0.4519400000000  0.5597710000000 1.0
C      1  0.5657430000000  0.5593540000000  0.4446140000000 1.0
C      1  0.4330070000000  0.4399220000000  0.4445370000000 1.0
C      1  0.5478280000000  0.5822150000000  0.4926510000000 1.0
C      1  0.4491100000000  0.4173280000000  0.4915600000000 1.0
C      1  0.5076850000000  0.4911400000000  0.5721180000000 1.0
C      1  0.4954110000000  0.5193650000000  0.5713120000000 1.0
C      1  0.5389140000000  0.5259040000000  0.4566250000000 1.0
C      1  0.4615780000000  0.4739170000000  0.4475730000000 1.0
C      1  0.5619280000000  0.5242830000000  0.4054650000000 1.0
C      1  0.4410870000000  0.4771770000000  0.4087950000000 1.0
C      1  0.4022510000000  0.4767370000000  0.5249820000000 1.0
C      1  0.6004160000000  0.5211020000000  0.5241040000000 1.0
C      1  0.4477100000000  0.4746270000000  0.5958900000000 1.0
C      1  0.5497800000000  0.5262940000000  0.5939000000000 1.0
C      1  0.4585470000000  0.5255870000000  0.5494770000000 1.0
C      1  0.5425980000000  0.4729610000000  0.5440610000000 1.0
C      1  0.5125150000000  0.5384060000000  0.5536430000000 1.0
C      1  0.4894520000000  0.4669180000000  0.5556510000000 1.0
C      1  0.5798670000000  0.4960520000000  0.5635370000000 1.0
C      1  0.4171550000000  0.5038180000000  0.5647860000000 1.0
C      1  0.5037320000000  0.4839110000000  0.4839140000000 1.0
C      1  0.4942240000000  0.5131120000000  0.4871940000000 1.0
C      1  0.5928860000000  0.4925590000000  0.5335800000000 1.0
C      1  0.4026930000000  0.5040580000000  0.5371750000000 1.0
C      1  0.4348210000000  0.4814030000000  0.4953550000000 1.0
C      1  0.5657450000000  0.5249820000000  0.4984780000000 1.0
C      1  0.5510770000000  0.5478510000000  0.4200410000000 1.0
C      1  0.4483720000000  0.4505050000000  0.4193320000000 1.0
C      1  0.4975440000000  0.4625000000000  0.4056720000000 1.0
C      1  0.5023670000000  0.5411390000000  0.3988710000000 1.0
C      1  0.5373270000000  0.5252680000000  0.5431490000000 1.0
C      1  0.4605350000000  0.4735380000000  0.5430630000000 1.0
C      1  0.4525750000000  0.5249770000000  0.5969920000000 1.0
C      1  0.5456400000000  0.4752210000000  0.5973980000000 1.0
C      1  0.5398340000000  0.5634700000000  0.5652240000000 1.0
C      1  0.4575220000000  0.4399020000000  0.5646940000000 1.0
C      1  0.5276810000000  0.4439410000000  0.5654710000000 1.0
C      1  0.4717090000000  0.5574200000000  0.5678420000000 1.0
C      1  0.4864530000000  0.5851860000000  0.4320230000000 1.0
C      1  0.5124860000000  0.4144000000000  0.4318060000000 1.0
C      1  0.5040390000000  0.5170620000000  0.4300100000000 1.0
C      1  0.5098530000000  0.4760980000000  0.4555670000000 1.0
C      1  0.4542930000000  0.4275840000000  0.4630640000000 1.0
C      1  0.5432990000000  0.5705890000000  0.4645020000000 1.0
C      1  0.4105240000000  0.5483040000000  0.4973880000000 1.0
C      1  0.5909900000000  0.4481460000000  0.4961840000000 1.0
C      1  0.4804860000000  0.4239220000000  0.5493890000000 1.0
C      1  0.5177950000000  0.5814310000000  0.5504820000000 1.0
C      1  0.5958750000000  0.5446550000000  0.4838420000000 1.0
C      1  0.4073670000000  0.4556510000000  0.4837560000000 1.0
C      1  0.5178490000000  0.4034280000000  0.5230940000000 1.0
C      1  0.4795830000000  0.5977800000000  0.5229060000000 1.0
C      1  0.4468210000000  0.5231460000000  0.4728590000000 1.0
C      1  0.5632140000000  0.4851520000000  0.4679010000000 1.0
C      1  0.5312750000000  0.5497050000000  0.5918950000000 1.0
C      1  0.4672530000000  0.4524920000000  0.5908790000000 1.0
C      1  0.5062690000000  0.5974590000000  0.4728140000000 1.0
C      1  0.4918640000000  0.4021800000000  0.4736150000000 1.0
C      1  0.4922250000000  0.5499290000000  0.4520770000000 1.0
C      1  0.5034090000000  0.4454030000000  0.4536390000000 1.0
C      1  0.4786920000000  0.5229360000000  0.5299560000000 1.0
C      1  0.5208930000000  0.4773330000000  0.5261560000000 1.0
C      1  0.4113210000000  0.5076350000000  0.4333530000000 1.0
C      1  0.5912520000000  0.4907090000000  0.4302190000000 1.0
C      1  0.4211920000000  0.5517870000000  0.5259220000000 1.0
C      1  0.5793220000000  0.4460190000000  0.5246220000000 1.0
C      1  0.5118030000000  0.4277150000000  0.4775870000000 1.0
C      1  0.4857880000000  0.5721590000000  0.4753730000000 1.0
C      1  0.6091820000000  0.5217080000000  0.4959160000000 1.0
C      1  0.3923550000000  0.4754640000000  0.4977620000000 1.0
C      1  0.5639400000000  0.5178810000000  0.4686350000000 1.0
C      1  0.4371070000000  0.4867350000000  0.4623520000000 1.0
C      1  0.4188020000000  0.4621980000000  0.4586000000000 1.0
C      1  0.5839710000000  0.5387940000000  0.4577330000000 1.0
C      1  0.5704980000000  0.4701000000000  0.4273280000000 1.0
C      1  0.4317660000000  0.5277370000000  0.4316090000000 1.0
C      1  0.4718650000000  0.4066230000000  0.4505330000000 1.0
C      1  0.5266810000000  0.5912480000000  0.4515760000000 1.0
C      1  0.5420050000000  0.5363440000000  0.5124560000000 1.0
C      1  0.4548640000000  0.4640440000000  0.5106010000000 1.0
C      1  0.5858110000000  0.5135540000000  0.4153980000000 1.0
C      1  0.4158860000000  0.4862920000000  0.4162880000000 1.0
END
