TITL C-3577077-324-310 -1.39182772652838e-05 125000 -1052.90435411468 0 0 167 (C1) n - 1
REM
REM in /home/bkarasulu/work/CARBON/AIRSS/Generating-Clusters/EDIP-Nigel-Params/with-SteepDescent/Higher-Symm/SD-CG/HFTN-CG
REM
REM
REM
REM
REM
REM ./C.cell (12c818d87b63d06a65506943cc24bca4)
REM
REM compiler GCC version 9.2.1 20190827 (Red Hat 9.2.1-1)
REM options -cpp -mtune=generic -march=x86-64 -g -O0 -fpre-include=/usr/include/finclude/math-vector-fortran.h
REM seed 1136153755 281859768 -602703430 -746462058 719259322 -1322927244 -484087136 753945791 -1543693256 -2003936786 -460479595 -1702038771 -307095936 -52905670 -55279559 688716112 1311686366 -1372989356 2110474950 -427305563 971875219 269672650 192225900 273792581 -1366739659 1866805725 59581594 1796106188 -1950705352 1714958354 -1612556104 -1691338265 -251443916
REM
CELL 1.54180   50.00000   50.00000   50.00000   90.00000   90.00000   90.00000
LATT -1
SFAC C  
C      1  0.5170440000000  0.4340340000000  0.4172360000000 1.0
C      1  0.5742260000000  0.4297470000000  0.4615350000000 1.0
C      1  0.5713050000000  0.4415270000000  0.5313000000000 1.0
C      1  0.5188590000000  0.4333520000000  0.5800630000000 1.0
C      1  0.4478060000000  0.4341110000000  0.5656270000000 1.0
C      1  0.4168210000000  0.4300890000000  0.5002630000000 1.0
C      1  0.4476080000000  0.4306200000000  0.4341690000000 1.0
C      1  0.5453930000000  0.4290550000000  0.4568640000000 1.0
C      1  0.5586560000000  0.4350510000000  0.5069480000000 1.0
C      1  0.5298480000000  0.4313970000000  0.5535720000000 1.0
C      1  0.4758830000000  0.4319550000000  0.5568720000000 1.0
C      1  0.4404000000000  0.4290700000000  0.5171090000000 1.0
C      1  0.4490130000000  0.4287070000000  0.4630270000000 1.0
C      1  0.4959780000000  0.4306710000000  0.4367280000000 1.0
C      1  0.5896190000000  0.4647800000000  0.5341580000000 1.0
C      1  0.5298130000000  0.4511930000000  0.6012770000000 1.0
C      1  0.4390780000000  0.4564140000000  0.5858310000000 1.0
C      1  0.3941190000000  0.4496520000000  0.5074220000000 1.0
C      1  0.4271140000000  0.4482670000000  0.4202700000000 1.0
C      1  0.5170000000000  0.4548970000000  0.3948440000000 1.0
C      1  0.5942260000000  0.4461490000000  0.4444290000000 1.0
C      1  0.5971510000000  0.4638730000000  0.5636720000000 1.0
C      1  0.5071740000000  0.4636370000000  0.6156590000000 1.0
C      1  0.4196670000000  0.4746790000000  0.5732200000000 1.0
C      1  0.3857510000000  0.4635540000000  0.4815130000000 1.0
C      1  0.4423280000000  0.4616760000000  0.3975820000000 1.0
C      1  0.5450610000000  0.4668990000000  0.3934040000000 1.0
C      1  0.6124940000000  0.4635650000000  0.4631420000000 1.0
C      1  0.5205400000000  0.5729670000000  0.5294430000000 1.0
C      1  0.4909190000000  0.5680960000000  0.5271130000000 1.0
C      1  0.4660040000000  0.5654300000000  0.5099390000000 1.0
C      1  0.4661650000000  0.5617160000000  0.4807280000000 1.0
C      1  0.4900890000000  0.5692210000000  0.4660860000000 1.0
C      1  0.5338160000000  0.5868340000000  0.4769200000000 1.0
C      1  0.5408910000000  0.5860460000000  0.5078840000000 1.0
C      1  0.3945770000000  0.5440320000000  0.5081070000000 1.0
C      1  0.4236620000000  0.5379870000000  0.4212680000000 1.0
C      1  0.5197250000000  0.5458310000000  0.4007400000000 1.0
C      1  0.5860790000000  0.5453520000000  0.4552150000000 1.0
C      1  0.5834690000000  0.5382940000000  0.5385960000000 1.0
C      1  0.5280680000000  0.5431830000000  0.6013150000000 1.0
C      1  0.4502210000000  0.5509540000000  0.5880700000000 1.0
C      1  0.5344680000000  0.5629740000000  0.5554870000000 1.0
C      1  0.4874330000000  0.5585330000000  0.5558730000000 1.0
C      1  0.4394550000000  0.5581940000000  0.5233640000000 1.0
C      1  0.4413020000000  0.5533590000000  0.4659990000000 1.0
C      1  0.5043470000000  0.5511400000000  0.4455100000000 1.0
C      1  0.5506140000000  0.5722360000000  0.4573080000000 1.0
C      1  0.5673800000000  0.5725640000000  0.5091480000000 1.0
C      1  0.5461210000000  0.4957670000000  0.3889090000000 1.0
C      1  0.6151620000000  0.4928600000000  0.4576660000000 1.0
C      1  0.6002590000000  0.4915550000000  0.5682980000000 1.0
C      1  0.5093860000000  0.4919670000000  0.6198460000000 1.0
C      1  0.4261630000000  0.5019220000000  0.5806530000000 1.0
C      1  0.3752090000000  0.4906620000000  0.4861310000000 1.0
C      1  0.4356350000000  0.4889830000000  0.3931950000000 1.0
C      1  0.5373550000000  0.4676700000000  0.4861300000000 1.0
C      1  0.5310300000000  0.4678360000000  0.5188160000000 1.0
C      1  0.5032250000000  0.4614140000000  0.5348560000000 1.0
C      1  0.4707320000000  0.4604330000000  0.5232950000000 1.0
C      1  0.4608340000000  0.4594060000000  0.4922910000000 1.0
C      1  0.4797330000000  0.4604520000000  0.4648970000000 1.0
C      1  0.5146750000000  0.4601150000000  0.4636280000000 1.0
C      1  0.4856790000000  0.5316500000000  0.4319720000000 1.0
C      1  0.5252550000000  0.5330120000000  0.4617150000000 1.0
C      1  0.5626520000000  0.5109380000000  0.4889670000000 1.0
C      1  0.5433370000000  0.5327260000000  0.5560400000000 1.0
C      1  0.4823550000000  0.5292190000000  0.5572780000000 1.0
C      1  0.4368640000000  0.5285830000000  0.5270370000000 1.0
C      1  0.4370210000000  0.5236300000000  0.4667640000000 1.0
C      1  0.4623970000000  0.5728040000000  0.5688280000000 1.0
C      1  0.4145940000000  0.5657840000000  0.5066690000000 1.0
C      1  0.4409260000000  0.5602130000000  0.4366410000000 1.0
C      1  0.5166240000000  0.5658030000000  0.4227060000000 1.0
C      1  0.5791710000000  0.5728790000000  0.4617830000000 1.0
C      1  0.5751730000000  0.5657520000000  0.5352420000000 1.0
C      1  0.5206260000000  0.5669670000000  0.5827590000000 1.0
C      1  0.5600010000000  0.5289670000000  0.4596530000000 1.0
C      1  0.5826140000000  0.5136950000000  0.5187910000000 1.0
C      1  0.5357110000000  0.5199450000000  0.5834610000000 1.0
C      1  0.4581780000000  0.5231710000000  0.5779350000000 1.0
C      1  0.4077510000000  0.5211640000000  0.5222960000000 1.0
C      1  0.4248850000000  0.5144600000000  0.4410180000000 1.0
C      1  0.5022030000000  0.5214430000000  0.4083260000000 1.0
C      1  0.3876340000000  0.5117270000000  0.4708460000000 1.0
C      1  0.4560710000000  0.5088740000000  0.3959660000000 1.0
C      1  0.5566410000000  0.5149020000000  0.4087870000000 1.0
C      1  0.6126220000000  0.5119300000000  0.4803350000000 1.0
C      1  0.5810880000000  0.5090710000000  0.5782510000000 1.0
C      1  0.4923710000000  0.5115830000000  0.6083980000000 1.0
C      1  0.4159530000000  0.5238420000000  0.5657660000000 1.0
C      1  0.4869960000000  0.4206210000000  0.5314890000000 1.0
C      1  0.4674040000000  0.4192980000000  0.5090170000000 1.0
C      1  0.4718180000000  0.4193090000000  0.4792960000000 1.0
C      1  0.4972390000000  0.4198610000000  0.4642220000000 1.0
C      1  0.5246710000000  0.4190130000000  0.4754330000000 1.0
C      1  0.5336310000000  0.4198760000000  0.5042200000000 1.0
C      1  0.5167400000000  0.4203050000000  0.5293740000000 1.0
C      1  0.5582670000000  0.5012480000000  0.5944210000000 1.0
C      1  0.4654090000000  0.5040670000000  0.6010890000000 1.0
C      1  0.3944930000000  0.5192800000000  0.5481620000000 1.0
C      1  0.3978550000000  0.5042390000000  0.4453820000000 1.0
C      1  0.4842450000000  0.5050130000000  0.3892360000000 1.0
C      1  0.5616340000000  0.5094510000000  0.4373720000000 1.0
C      1  0.6087410000000  0.5024700000000  0.5082100000000 1.0
C      1  0.3902160000000  0.5395240000000  0.4798820000000 1.0
C      1  0.4467830000000  0.5358300000000  0.4003880000000 1.0
C      1  0.5486920000000  0.5422120000000  0.4040050000000 1.0
C      1  0.6047250000000  0.5398110000000  0.4765310000000 1.0
C      1  0.5802260000000  0.5344350000000  0.5664370000000 1.0
C      1  0.4998000000000  0.5399170000000  0.6109790000000 1.0
C      1  0.4242230000000  0.5512780000000  0.5727070000000 1.0
C      1  0.5807430000000  0.4366440000000  0.4883270000000 1.0
C      1  0.5577200000000  0.4369260000000  0.5551220000000 1.0
C      1  0.4906130000000  0.4340090000000  0.5815550000000 1.0
C      1  0.4300860000000  0.4374340000000  0.5432200000000 1.0
C      1  0.4218240000000  0.4329940000000  0.4716240000000 1.0
C      1  0.4727110000000  0.4354720000000  0.4210620000000 1.0
C      1  0.5433970000000  0.4339310000000  0.4286870000000 1.0
C      1  0.4833520000000  0.4548300000000  0.6008870000000 1.0
C      1  0.4248010000000  0.4670030000000  0.5443690000000 1.0
C      1  0.4137030000000  0.4616850000000  0.4680980000000 1.0
C      1  0.4690550000000  0.4629280000000  0.4108320000000 1.0
C      1  0.5515610000000  0.4615650000000  0.4221460000000 1.0
C      1  0.5935740000000  0.4635320000000  0.4864350000000 1.0
C      1  0.5712710000000  0.4530010000000  0.5756490000000 1.0
C      1  0.4691630000000  0.4830640000000  0.4445880000000 1.0
C      1  0.5264400000000  0.4836200000000  0.4427220000000 1.0
C      1  0.5695910000000  0.4820790000000  0.4767520000000 1.0
C      1  0.5442910000000  0.4895070000000  0.5357220000000 1.0
C      1  0.4994410000000  0.4844370000000  0.5562720000000 1.0
C      1  0.4529390000000  0.4810230000000  0.5369710000000 1.0
C      1  0.4343050000000  0.4765910000000  0.4874570000000 1.0
C      1  0.5326720000000  0.5005450000000  0.4951900000000 1.0
C      1  0.5299160000000  0.5146130000000  0.5367410000000 1.0
C      1  0.5002040000000  0.5100850000000  0.5409160000000 1.0
C      1  0.4550730000000  0.5076850000000  0.5154170000000 1.0
C      1  0.4441190000000  0.5040620000000  0.4875170000000 1.0
C      1  0.4842560000000  0.5080090000000  0.4509470000000 1.0
C      1  0.5121970000000  0.5040260000000  0.4625100000000 1.0
C      1  0.4914600000000  0.5654280000000  0.5939630000000 1.0
C      1  0.4363410000000  0.5705580000000  0.5510030000000 1.0
C      1  0.4172200000000  0.5659610000000  0.4774380000000 1.0
C      1  0.4651160000000  0.5513760000000  0.4193690000000 1.0
C      1  0.5439930000000  0.5704330000000  0.4290940000000 1.0
C      1  0.5881630000000  0.5721300000000  0.4896320000000 1.0
C      1  0.5597570000000  0.5771470000000  0.5560740000000 1.0
C      1  0.5179290000000  0.4942150000000  0.4139740000000 1.0
C      1  0.5790900000000  0.4885410000000  0.4474520000000 1.0
C      1  0.5740710000000  0.4919900000000  0.5388390000000 1.0
C      1  0.5201080000000  0.4895680000000  0.5826470000000 1.0
C      1  0.4704040000000  0.4839590000000  0.5621710000000 1.0
C      1  0.4062700000000  0.4939080000000  0.5067750000000 1.0
C      1  0.4397910000000  0.4892670000000  0.4315590000000 1.0
C      1  0.4917630000000  0.4744130000000  0.3939370000000 1.0
C      1  0.5796460000000  0.4663520000000  0.4285530000000 1.0
C      1  0.6073450000000  0.4728200000000  0.5110570000000 1.0
C      1  0.5524520000000  0.4696780000000  0.5925930000000 1.0
C      1  0.4632410000000  0.4744660000000  0.5901590000000 1.0
C      1  0.4019730000000  0.4720440000000  0.5258480000000 1.0
C      1  0.4157050000000  0.4704020000000  0.4385990000000 1.0
C      1  0.4871520000000  0.5064710000000  0.5132270000000 1.0
C      1  0.5192160000000  0.5420610000000  0.4887170000000 1.0
C      1  0.4983140000000  0.5271770000000  0.4983860000000 1.0
C      1  0.5106700000000  0.5703500000000  0.4877790000000 1.0
C      1  0.4999850000000  0.4469010000000  0.4986100000000 1.0
C      1  0.4963640000000  0.4808520000000  0.4961190000000 1.0
END
