TITL C-3578199-7832-660 3.43879497418705e-06 125000 -633.712270364497 0 0 103 (C1) n - 1
REM
REM in /home/bkarasulu/work/CARBON/AIRSS/Generating-Clusters/EDIP-Nigel-Params/with-SteepDescent/Higher-Symm/SD-CG/HFTN-CG
REM
REM
REM
REM
REM
REM ./C.cell (12c818d87b63d06a65506943cc24bca4)
REM
REM compiler GCC version 9.2.1 20190827 (Red Hat 9.2.1-1)
REM options -cpp -mtune=generic -march=x86-64 -g -O0 -fpre-include=/usr/include/finclude/math-vector-fortran.h
REM seed -805563310 270444202 1672750097 -743062691 -765423626 -158664925 -964581682 -1517461669 821912100 -275407220 2076731309 -900854970 -1565861383 -1201495779 2095604490 866481127 -1771217605 -1251984739 474608667 413170234 1822799111 -1886849860 -1924960426 1360922411 -293631084 303416698 -1163815429 1525161492 1890995 777966160 1723427148 546274704 1772508122
REM
CELL 1.54180   50.00000   50.00000   50.00000   90.00000   90.00000   90.00000
LATT -1
SFAC C  
C      1  0.5209900000000  0.4603250000000  0.4178560000000 1.0
C      1  0.4803430000000  0.5336700000000  0.4163080000000 1.0
C      1  0.5221840000000  0.5420770000000  0.5855670000000 1.0
C      1  0.4927220000000  0.4507400000000  0.5836440000000 1.0
C      1  0.4553440000000  0.5182960000000  0.4165130000000 1.0
C      1  0.5452250000000  0.4745260000000  0.4111870000000 1.0
C      1  0.5427690000000  0.5213090000000  0.5910200000000 1.0
C      1  0.4839200000000  0.4784490000000  0.5832700000000 1.0
C      1  0.4850640000000  0.4339110000000  0.4918780000000 1.0
C      1  0.5076390000000  0.5941200000000  0.5130190000000 1.0
C      1  0.4870260000000  0.5908320000000  0.4962690000000 1.0
C      1  0.5044340000000  0.4209030000000  0.5083980000000 1.0
C      1  0.4069800000000  0.4910050000000  0.5092470000000 1.0
C      1  0.5728840000000  0.5114940000000  0.4914610000000 1.0
C      1  0.5896860000000  0.4903340000000  0.4977910000000 1.0
C      1  0.4013720000000  0.5123360000000  0.4937270000000 1.0
C      1  0.4486530000000  0.4367530000000  0.5673390000000 1.0
C      1  0.5591690000000  0.5654380000000  0.5669520000000 1.0
C      1  0.4560500000000  0.5724960000000  0.4352260000000 1.0
C      1  0.5488480000000  0.4299220000000  0.4453090000000 1.0
C      1  0.4430910000000  0.4622350000000  0.5565440000000 1.0
C      1  0.5673870000000  0.5394620000000  0.5586920000000 1.0
C      1  0.5679460000000  0.4518990000000  0.4470070000000 1.0
C      1  0.4341670000000  0.5559150000000  0.4403310000000 1.0
C      1  0.4700650000000  0.4884330000000  0.5300680000000 1.0
C      1  0.5407220000000  0.5008610000000  0.5361340000000 1.0
C      1  0.4483320000000  0.4985950000000  0.4692200000000 1.0
C      1  0.5381570000000  0.4961430000000  0.4606410000000 1.0
C      1  0.5005650000000  0.4646490000000  0.5346130000000 1.0
C      1  0.4980920000000  0.5402390000000  0.5355920000000 1.0
C      1  0.4971600000000  0.4631120000000  0.4561020000000 1.0
C      1  0.4975480000000  0.5360110000000  0.4647040000000 1.0
C      1  0.5672240000000  0.4545350000000  0.5190200000000 1.0
C      1  0.4306960000000  0.5436360000000  0.5104390000000 1.0
C      1  0.5597950000000  0.5534030000000  0.4869920000000 1.0
C      1  0.4237320000000  0.4554120000000  0.4815100000000 1.0
C      1  0.4509040000000  0.5641350000000  0.5125210000000 1.0
C      1  0.5495800000000  0.4317960000000  0.5196230000000 1.0
C      1  0.5316220000000  0.5609340000000  0.4888710000000 1.0
C      1  0.4425920000000  0.4341340000000  0.4797870000000 1.0
C      1  0.4799510000000  0.5594250000000  0.4289640000000 1.0
C      1  0.5215850000000  0.4382190000000  0.4379850000000 1.0
C      1  0.4764320000000  0.4336380000000  0.5637430000000 1.0
C      1  0.5307820000000  0.5632340000000  0.5656540000000 1.0
C      1  0.5688470000000  0.4657180000000  0.4227950000000 1.0
C      1  0.4321920000000  0.5310890000000  0.4272580000000 1.0
C      1  0.4576260000000  0.4841250000000  0.5725100000000 1.0
C      1  0.5689010000000  0.5218860000000  0.5805170000000 1.0
C      1  0.5176520000000  0.5413880000000  0.4172000000000 1.0
C      1  0.4707890000000  0.4681240000000  0.4165460000000 1.0
C      1  0.5224690000000  0.4492670000000  0.5797990000000 1.0
C      1  0.4701450000000  0.5363290000000  0.5778230000000 1.0
C      1  0.5419580000000  0.5255810000000  0.4170410000000 1.0
C      1  0.4518690000000  0.4898100000000  0.4126950000000 1.0
C      1  0.4496390000000  0.5129880000000  0.5705850000000 1.0
C      1  0.5396850000000  0.4708110000000  0.5902540000000 1.0
C      1  0.5318360000000  0.4465210000000  0.4749120000000 1.0
C      1  0.4700920000000  0.5540940000000  0.4660230000000 1.0
C      1  0.5251890000000  0.5534250000000  0.5372480000000 1.0
C      1  0.4837690000000  0.4397380000000  0.5348870000000 1.0
C      1  0.4382480000000  0.5270690000000  0.4652210000000 1.0
C      1  0.5553740000000  0.4665610000000  0.4701490000000 1.0
C      1  0.5505760000000  0.5308910000000  0.5344520000000 1.0
C      1  0.4495110000000  0.4646550000000  0.5263200000000 1.0
C      1  0.4585640000000  0.5703290000000  0.5389960000000 1.0
C      1  0.5376470000000  0.4272660000000  0.5442260000000 1.0
C      1  0.4560990000000  0.4328060000000  0.4545070000000 1.0
C      1  0.5261650000000  0.5733910000000  0.4620580000000 1.0
C      1  0.5747830000000  0.4654100000000  0.5439380000000 1.0
C      1  0.4245380000000  0.5293110000000  0.5336610000000 1.0
C      1  0.4171730000000  0.4658560000000  0.4558820000000 1.0
C      1  0.5648670000000  0.5425400000000  0.4612010000000 1.0
C      1  0.5290350000000  0.4929890000000  0.5104820000000 1.0
C      1  0.4757870000000  0.5069100000000  0.5071700000000 1.0
C      1  0.5363480000000  0.5103370000000  0.4882400000000 1.0
C      1  0.4750610000000  0.4943080000000  0.4805640000000 1.0
C      1  0.4955190000000  0.5279110000000  0.5106570000000 1.0
C      1  0.5124290000000  0.4694500000000  0.5076870000000 1.0
C      1  0.5153740000000  0.5341280000000  0.4894550000000 1.0
C      1  0.4923110000000  0.4625210000000  0.4861920000000 1.0
C      1  0.4511810000000  0.5197110000000  0.5414400000000 1.0
C      1  0.5492190000000  0.4762840000000  0.5531220000000 1.0
C      1  0.4422890000000  0.4788500000000  0.4487570000000 1.0
C      1  0.5488680000000  0.5230510000000  0.4462530000000 1.0
C      1  0.5270900000000  0.4537080000000  0.5510660000000 1.0
C      1  0.4707580000000  0.5449370000000  0.5475750000000 1.0
C      1  0.4669260000000  0.4585630000000  0.4450250000000 1.0
C      1  0.5188910000000  0.5486750000000  0.4469960000000 1.0
C      1  0.4673690000000  0.5723860000000  0.4900790000000 1.0
C      1  0.5309910000000  0.4269100000000  0.4980010000000 1.0
C      1  0.4589940000000  0.4340590000000  0.5048230000000 1.0
C      1  0.5271550000000  0.5747230000000  0.5151710000000 1.0
C      1  0.5743280000000  0.4673790000000  0.4940960000000 1.0
C      1  0.4185410000000  0.5331790000000  0.4865650000000 1.0
C      1  0.4252010000000  0.4701380000000  0.5071830000000 1.0
C      1  0.5673200000000  0.5345660000000  0.5083340000000 1.0
C      1  0.5425600000000  0.5011890000000  0.4037000000000 1.0
C      1  0.4968050000000  0.5265630000000  0.5844060000000 1.0
C      1  0.5287720000000  0.4961850000000  0.5967100000000 1.0
C      1  0.4980270000000  0.4768410000000  0.4136180000000 1.0
C      1  0.5094220000000  0.4902760000000  0.4480530000000 1.0
C      1  0.5002300000000  0.4996780000000  0.5938850000000 1.0
C      1  0.4906010000000  0.5083280000000  0.4598130000000 1.0
END
