TITL C-3578198-8939-672 -5.72090503725295e-07 125000 -813.165225922085 0 0 128 (C1) n - 1
REM
REM in /home/bkarasulu/work/CARBON/AIRSS/Generating-Clusters/EDIP-Nigel-Params/with-SteepDescent/Higher-Symm/SD-CG/HFTN-CG
REM
REM
REM
REM
REM
REM ./C.cell (12c818d87b63d06a65506943cc24bca4)
REM
REM compiler GCC version 9.2.1 20190827 (Red Hat 9.2.1-1)
REM options -cpp -mtune=generic -march=x86-64 -g -O0 -fpre-include=/usr/include/finclude/math-vector-fortran.h
REM seed -2128034185 434597273 279734061 473394419 298743569 -1892000601 -1013704555 1000754278 -1264092219 981952399 -1894579987 -1109221875 968934202 585648146 566870149 85072663 1964965745 -410815867 503205305 184985018 -1949385170 40821943 -574428838 -212292696 -262873193 -303266515 -1250391242 940465759 980001710 -163360157 301702483 -1278706738 276816442
REM
CELL 1.54180   50.00000   50.00000   50.00000   90.00000   90.00000   90.00000
LATT -1
SFAC C  
C      1  0.4837320000000  0.4239480000000  0.4697970000000 1.0
C      1  0.5215070000000  0.4161780000000  0.4672500000000 1.0
C      1  0.5381470000000  0.4229240000000  0.4920130000000 1.0
C      1  0.5298970000000  0.4256230000000  0.5222400000000 1.0
C      1  0.5012730000000  0.4218970000000  0.5358840000000 1.0
C      1  0.4724490000000  0.4254380000000  0.5219860000000 1.0
C      1  0.4630130000000  0.4213700000000  0.4922950000000 1.0
C      1  0.4621050000000  0.5140530000000  0.4247940000000 1.0
C      1  0.5443090000000  0.5136050000000  0.4146200000000 1.0
C      1  0.5844340000000  0.5133480000000  0.4787420000000 1.0
C      1  0.5714730000000  0.5176500000000  0.5568900000000 1.0
C      1  0.5019300000000  0.5126190000000  0.5898740000000 1.0
C      1  0.4380340000000  0.5151150000000  0.5554680000000 1.0
C      1  0.4099440000000  0.5166990000000  0.4799750000000 1.0
C      1  0.4507010000000  0.5023940000000  0.4704810000000 1.0
C      1  0.4912890000000  0.4883310000000  0.4556440000000 1.0
C      1  0.5409200000000  0.5014360000000  0.4571990000000 1.0
C      1  0.5445700000000  0.4851730000000  0.5010410000000 1.0
C      1  0.5312940000000  0.5014360000000  0.5479140000000 1.0
C      1  0.4879470000000  0.4854890000000  0.5440100000000 1.0
C      1  0.4456520000000  0.5001190000000  0.5144300000000 1.0
C      1  0.4544720000000  0.4739920000000  0.5038960000000 1.0
C      1  0.4655220000000  0.4767930000000  0.4688090000000 1.0
C      1  0.5126150000000  0.4667310000000  0.4599220000000 1.0
C      1  0.5405650000000  0.4760720000000  0.4711480000000 1.0
C      1  0.5274560000000  0.4643710000000  0.5199980000000 1.0
C      1  0.5173380000000  0.4763350000000  0.5458460000000 1.0
C      1  0.4763440000000  0.4639050000000  0.5228960000000 1.0
C      1  0.5182000000000  0.5201230000000  0.5268480000000 1.0
C      1  0.4901380000000  0.5110740000000  0.5284590000000 1.0
C      1  0.4670520000000  0.5211870000000  0.5126430000000 1.0
C      1  0.4701720000000  0.5242590000000  0.4816320000000 1.0
C      1  0.4959250000000  0.5138070000000  0.4700930000000 1.0
C      1  0.5239850000000  0.5212430000000  0.4747840000000 1.0
C      1  0.5310950000000  0.5117380000000  0.5017810000000 1.0
C      1  0.4231660000000  0.4990280000000  0.4579880000000 1.0
C      1  0.4868710000000  0.4944620000000  0.4243390000000 1.0
C      1  0.5609700000000  0.4967300000000  0.4349600000000 1.0
C      1  0.5782700000000  0.4938950000000  0.5032770000000 1.0
C      1  0.5502370000000  0.4991600000000  0.5711300000000 1.0
C      1  0.4802180000000  0.4924890000000  0.5772170000000 1.0
C      1  0.4224130000000  0.4995250000000  0.5341380000000 1.0
C      1  0.5218660000000  0.4557760000000  0.5686760000000 1.0
C      1  0.4587240000000  0.4522080000000  0.5614000000000 1.0
C      1  0.4293490000000  0.4562250000000  0.5047220000000 1.0
C      1  0.4522380000000  0.4564220000000  0.4494280000000 1.0
C      1  0.5148780000000  0.4519560000000  0.4328250000000 1.0
C      1  0.5636810000000  0.4557270000000  0.4636270000000 1.0
C      1  0.5697090000000  0.4545580000000  0.5279590000000 1.0
C      1  0.5303080000000  0.5488070000000  0.6066290000000 1.0
C      1  0.4561680000000  0.5551680000000  0.5730980000000 1.0
C      1  0.3936790000000  0.5573790000000  0.5006680000000 1.0
C      1  0.4315410000000  0.5516260000000  0.4199670000000 1.0
C      1  0.5118910000000  0.5448200000000  0.4180080000000 1.0
C      1  0.5998050000000  0.5480590000000  0.4481780000000 1.0
C      1  0.5763320000000  0.5586900000000  0.5321340000000 1.0
C      1  0.5284080000000  0.4694250000000  0.4122630000000 1.0
C      1  0.5904260000000  0.4697170000000  0.4639950000000 1.0
C      1  0.5831090000000  0.4733820000000  0.5453780000000 1.0
C      1  0.5167400000000  0.4688190000000  0.5951840000000 1.0
C      1  0.4387180000000  0.4710020000000  0.5708150000000 1.0
C      1  0.4051400000000  0.4719990000000  0.4946950000000 1.0
C      1  0.4466440000000  0.4700100000000  0.4232530000000 1.0
C      1  0.5834880000000  0.5628240000000  0.4859210000000 1.0
C      1  0.5364130000000  0.5530100000000  0.5568970000000 1.0
C      1  0.4991580000000  0.5694240000000  0.5840300000000 1.0
C      1  0.4352950000000  0.5572290000000  0.5329780000000 1.0
C      1  0.4323790000000  0.5618780000000  0.4703540000000 1.0
C      1  0.4681560000000  0.5655920000000  0.4221890000000 1.0
C      1  0.5497400000000  0.5510520000000  0.4480360000000 1.0
C      1  0.5031740000000  0.4324350000000  0.5643350000000 1.0
C      1  0.4501720000000  0.4338730000000  0.5415200000000 1.0
C      1  0.4351360000000  0.4327480000000  0.4871130000000 1.0
C      1  0.4708230000000  0.4338270000000  0.4445740000000 1.0
C      1  0.5318170000000  0.4277790000000  0.4398620000000 1.0
C      1  0.5643240000000  0.4344840000000  0.4843770000000 1.0
C      1  0.5532250000000  0.4350000000000  0.5402170000000 1.0
C      1  0.5583200000000  0.4431210000000  0.4377260000000 1.0
C      1  0.5826710000000  0.4461980000000  0.5044450000000 1.0
C      1  0.5495120000000  0.4472360000000  0.5669080000000 1.0
C      1  0.4793600000000  0.4436130000000  0.5787510000000 1.0
C      1  0.4254660000000  0.4474570000000  0.5321590000000 1.0
C      1  0.4276100000000  0.4463530000000  0.4611660000000 1.0
C      1  0.4877510000000  0.4447150000000  0.4230950000000 1.0
C      1  0.5285310000000  0.5525580000000  0.4709380000000 1.0
C      1  0.5358740000000  0.5644110000000  0.5032400000000 1.0
C      1  0.5195880000000  0.5513640000000  0.5300700000000 1.0
C      1  0.4882990000000  0.5637190000000  0.5351460000000 1.0
C      1  0.4613120000000  0.5514310000000  0.5179930000000 1.0
C      1  0.4588550000000  0.5610090000000  0.4870860000000 1.0
C      1  0.5026150000000  0.5648550000000  0.4596500000000 1.0
C      1  0.5280920000000  0.5653640000000  0.5825750000000 1.0
C      1  0.4817230000000  0.5602020000000  0.5640750000000 1.0
C      1  0.4102960000000  0.5593140000000  0.5213640000000 1.0
C      1  0.4349450000000  0.5688370000000  0.4422740000000 1.0
C      1  0.4957270000000  0.5620900000000  0.4317580000000 1.0
C      1  0.5756510000000  0.5642710000000  0.4488750000000 1.0
C      1  0.5651250000000  0.5592790000000  0.5071500000000 1.0
C      1  0.5188330000000  0.4973500000000  0.4096910000000 1.0
C      1  0.5872760000000  0.4972360000000  0.4535360000000 1.0
C      1  0.5859610000000  0.5014000000000  0.5349810000000 1.0
C      1  0.5268480000000  0.4968290000000  0.5942190000000 1.0
C      1  0.4495560000000  0.4981480000000  0.5769330000000 1.0
C      1  0.4027540000000  0.5002260000000  0.5040720000000 1.0
C      1  0.4373320000000  0.4978530000000  0.4283920000000 1.0
C      1  0.4077900000000  0.5462840000000  0.4789770000000 1.0
C      1  0.4566160000000  0.5395680000000  0.4116100000000 1.0
C      1  0.5393150000000  0.5418120000000  0.4214470000000 1.0
C      1  0.5985090000000  0.5392240000000  0.4761050000000 1.0
C      1  0.5653170000000  0.5467020000000  0.5544460000000 1.0
C      1  0.5035160000000  0.5374860000000  0.6050500000000 1.0
C      1  0.4358290000000  0.5438180000000  0.5585310000000 1.0
C      1  0.4716460000000  0.5884030000000  0.4870040000000 1.0
C      1  0.4957450000000  0.5904270000000  0.4708870000000 1.0
C      1  0.5179650000000  0.6030360000000  0.4824890000000 1.0
C      1  0.5307500000000  0.5937560000000  0.5051140000000 1.0
C      1  0.5169520000000  0.6012120000000  0.5281060000000 1.0
C      1  0.4904540000000  0.5929910000000  0.5307630000000 1.0
C      1  0.4728390000000  0.6021690000000  0.5113410000000 1.0
C      1  0.5659700000000  0.4723000000000  0.5693260000000 1.0
C      1  0.4870420000000  0.4677900000000  0.5940960000000 1.0
C      1  0.4195860000000  0.4719990000000  0.5483760000000 1.0
C      1  0.4109510000000  0.4711080000000  0.4657240000000 1.0
C      1  0.4744270000000  0.4693560000000  0.4125490000000 1.0
C      1  0.5561870000000  0.4684350000000  0.4213570000000 1.0
C      1  0.5950360000000  0.4703030000000  0.4933010000000 1.0
C      1  0.5029110000000  0.4465160000000  0.4797570000000 1.0
C      1  0.5013790000000  0.4559650000000  0.5077360000000 1.0
END
