TITL C-3578199-7832-114 1.11769722043441e-06 125000 -821.11395183101 0 0 134 (C1) n - 1
REM
REM in /home/bkarasulu/work/CARBON/AIRSS/Generating-Clusters/EDIP-Nigel-Params/with-SteepDescent/Higher-Symm/SD-CG/HFTN-CG
REM
REM
REM
REM
REM
REM ./C.cell (12c818d87b63d06a65506943cc24bca4)
REM
REM compiler GCC version 9.2.1 20190827 (Red Hat 9.2.1-1)
REM options -cpp -mtune=generic -march=x86-64 -g -O0 -fpre-include=/usr/include/finclude/math-vector-fortran.h
REM seed -526955179 714827682 -1048355253 -1466238503 -702138786 1111807194 -1162913417 -1889538237 1952957709 -1670771757 -494522097 2128915075 815368399 1401365484 1553076166 266717652 1957013344 -1175721546 -1421072241 791512741 388497757 1085662234 -1756083307 -466423845 2059461453 297163982 -1134343994 1044449431 1733548568 -1018527462 -2103564277 -1294986769 -1247356367
REM
CELL 1.54180   50.00000   50.00000   50.00000   90.00000   90.00000   90.00000
LATT -1
SFAC C  
C      1  0.4861080000000  0.5936990000000  0.5095620000000 1.0
C      1  0.4857640000000  0.4073690000000  0.4914250000000 1.0
C      1  0.5157970000000  0.6014550000000  0.5018540000000 1.0
C      1  0.5143630000000  0.4012500000000  0.5015340000000 1.0
C      1  0.4847840000000  0.5101830000000  0.5923670000000 1.0
C      1  0.4860180000000  0.4984250000000  0.4009750000000 1.0
C      1  0.5144720000000  0.5014850000000  0.6005960000000 1.0
C      1  0.5160730000000  0.5023600000000  0.4010920000000 1.0
C      1  0.5857130000000  0.4523230000000  0.5255010000000 1.0
C      1  0.5887720000000  0.5477030000000  0.4749130000000 1.0
C      1  0.4214490000000  0.4483480000000  0.4752540000000 1.0
C      1  0.4247080000000  0.5461150000000  0.5250250000000 1.0
C      1  0.5864830000000  0.5255170000000  0.4532420000000 1.0
C      1  0.5882890000000  0.4737230000000  0.5478150000000 1.0
C      1  0.4242520000000  0.4723030000000  0.4586680000000 1.0
C      1  0.4244980000000  0.5245110000000  0.5441420000000 1.0
C      1  0.4569360000000  0.4463760000000  0.5745070000000 1.0
C      1  0.4488320000000  0.5575970000000  0.4240770000000 1.0
C      1  0.5492910000000  0.4422910000000  0.4240440000000 1.0
C      1  0.5492640000000  0.5559930000000  0.5762930000000 1.0
C      1  0.4482410000000  0.5780250000000  0.4416150000000 1.0
C      1  0.4680130000000  0.4294310000000  0.5545540000000 1.0
C      1  0.5485440000000  0.4227610000000  0.4444290000000 1.0
C      1  0.5494740000000  0.5759160000000  0.5566060000000 1.0
C      1  0.5429400000000  0.4574840000000  0.5164400000000 1.0
C      1  0.5471830000000  0.5363390000000  0.4803800000000 1.0
C      1  0.4658340000000  0.4501280000000  0.4750280000000 1.0
C      1  0.4689170000000  0.5467040000000  0.5221630000000 1.0
C      1  0.5435740000000  0.5167190000000  0.4579150000000 1.0
C      1  0.5468190000000  0.4796370000000  0.5363630000000 1.0
C      1  0.4680380000000  0.4723530000000  0.4539370000000 1.0
C      1  0.4687830000000  0.5244390000000  0.5445740000000 1.0
C      1  0.5694530000000  0.4540230000000  0.4748980000000 1.0
C      1  0.5699770000000  0.5446130000000  0.5242690000000 1.0
C      1  0.4307470000000  0.4482620000000  0.5271050000000 1.0
C      1  0.4314930000000  0.5469300000000  0.4745250000000 1.0
C      1  0.5693600000000  0.4748180000000  0.4538140000000 1.0
C      1  0.5697520000000  0.5235940000000  0.5450070000000 1.0
C      1  0.4315250000000  0.5240720000000  0.4545240000000 1.0
C      1  0.4318530000000  0.4734470000000  0.5432150000000 1.0
C      1  0.4501280000000  0.4449700000000  0.4246320000000 1.0
C      1  0.4525360000000  0.5535990000000  0.5732890000000 1.0
C      1  0.5465570000000  0.4513650000000  0.5694160000000 1.0
C      1  0.5481950000000  0.5510700000000  0.4309140000000 1.0
C      1  0.4512460000000  0.4230500000000  0.4437210000000 1.0
C      1  0.4532350000000  0.5740090000000  0.5530660000000 1.0
C      1  0.5474130000000  0.5696480000000  0.4523830000000 1.0
C      1  0.5465330000000  0.4299370000000  0.5504640000000 1.0
C      1  0.4359570000000  0.4691470000000  0.4324150000000 1.0
C      1  0.4388650000000  0.5288250000000  0.5685260000000 1.0
C      1  0.5676080000000  0.4701400000000  0.5682300000000 1.0
C      1  0.5679900000000  0.5305110000000  0.4310160000000 1.0
C      1  0.4368510000000  0.4255430000000  0.4680320000000 1.0
C      1  0.4390720000000  0.5703250000000  0.5287660000000 1.0
C      1  0.5680820000000  0.5682990000000  0.4716060000000 1.0
C      1  0.5667820000000  0.4301420000000  0.5302300000000 1.0
C      1  0.5525120000000  0.5288460000000  0.5694800000000 1.0
C      1  0.5541800000000  0.4698880000000  0.4281030000000 1.0
C      1  0.4488650000000  0.5303000000000  0.4291750000000 1.0
C      1  0.4474680000000  0.4722360000000  0.5696160000000 1.0
C      1  0.5529950000000  0.5693650000000  0.5294300000000 1.0
C      1  0.5533430000000  0.4288320000000  0.4716570000000 1.0
C      1  0.4523610000000  0.4274280000000  0.5300810000000 1.0
C      1  0.4469630000000  0.5726440000000  0.4690860000000 1.0
C      1  0.5241740000000  0.5285220000000  0.3966030000000 1.0
C      1  0.5216020000000  0.4751350000000  0.6059180000000 1.0
C      1  0.4739310000000  0.5308110000000  0.6095660000000 1.0
C      1  0.4759120000000  0.4731110000000  0.3949470000000 1.0
C      1  0.5188640000000  0.3956860000000  0.5282200000000 1.0
C      1  0.5224030000000  0.6062010000000  0.4752940000000 1.0
C      1  0.4747900000000  0.6102800000000  0.5304620000000 1.0
C      1  0.4768300000000  0.3910120000000  0.4692420000000 1.0
C      1  0.5367730000000  0.5863310000000  0.5135340000000 1.0
C      1  0.5355290000000  0.4154180000000  0.4892970000000 1.0
C      1  0.4660880000000  0.5878900000000  0.4863060000000 1.0
C      1  0.4641680000000  0.4108340000000  0.5106360000000 1.0
C      1  0.5356190000000  0.5128940000000  0.5856130000000 1.0
C      1  0.5361380000000  0.4854690000000  0.4124380000000 1.0
C      1  0.4641670000000  0.4898500000000  0.5853140000000 1.0
C      1  0.4685900000000  0.5156090000000  0.4153850000000 1.0
C      1  0.5739500000000  0.5309960000000  0.4969470000000 1.0
C      1  0.5811860000000  0.4661730000000  0.4993290000000 1.0
C      1  0.4197160000000  0.5354020000000  0.4989750000000 1.0
C      1  0.4170370000000  0.4504720000000  0.5027020000000 1.0
C      1  0.5736980000000  0.4962070000000  0.5313010000000 1.0
C      1  0.5815880000000  0.4990920000000  0.4663960000000 1.0
C      1  0.4212780000000  0.4987670000000  0.5297480000000 1.0
C      1  0.4217420000000  0.4991020000000  0.4700570000000 1.0
C      1  0.4877850000000  0.5355750000000  0.4489720000000 1.0
C      1  0.4898590000000  0.4670710000000  0.5615610000000 1.0
C      1  0.5124220000000  0.5468380000000  0.5694250000000 1.0
C      1  0.5133470000000  0.4542600000000  0.4320470000000 1.0
C      1  0.4863810000000  0.4549560000000  0.5313660000000 1.0
C      1  0.4894770000000  0.5625890000000  0.4700500000000 1.0
C      1  0.5126550000000  0.5699070000000  0.5468300000000 1.0
C      1  0.5125450000000  0.4308520000000  0.4553470000000 1.0
C      1  0.5021710000000  0.4176860000000  0.5672070000000 1.0
C      1  0.5004590000000  0.5779610000000  0.4457690000000 1.0
C      1  0.4979510000000  0.4126570000000  0.4336370000000 1.0
C      1  0.4975680000000  0.5888180000000  0.5667270000000 1.0
C      1  0.5014120000000  0.5606800000000  0.4227320000000 1.0
C      1  0.5008330000000  0.4437140000000  0.5806980000000 1.0
C      1  0.4974710000000  0.4351420000000  0.4127910000000 1.0
C      1  0.4972510000000  0.5667330000000  0.5884430000000 1.0
C      1  0.4765860000000  0.4951980000000  0.4700030000000 1.0
C      1  0.4657360000000  0.4994000000000  0.5308570000000 1.0
C      1  0.5230050000000  0.4966520000000  0.5338840000000 1.0
C      1  0.5205810000000  0.5001690000000  0.4687040000000 1.0
C      1  0.4583090000000  0.4662990000000  0.4973500000000 1.0
C      1  0.4683070000000  0.5336210000000  0.4958820000000 1.0
C      1  0.5231800000000  0.5339620000000  0.4971870000000 1.0
C      1  0.5205760000000  0.4684570000000  0.4996740000000 1.0
C      1  0.5084540000000  0.5581190000000  0.4949100000000 1.0
C      1  0.5070120000000  0.4441370000000  0.5096820000000 1.0
C      1  0.4938120000000  0.5653430000000  0.5207620000000 1.0
C      1  0.4927260000000  0.4353650000000  0.4812290000000 1.0
C      1  0.5072520000000  0.4942790000000  0.5574560000000 1.0
C      1  0.5080870000000  0.5109520000000  0.4434490000000 1.0
C      1  0.4932830000000  0.5211490000000  0.5640690000000 1.0
C      1  0.4950540000000  0.4798140000000  0.4392290000000 1.0
C      1  0.4716050000000  0.5963030000000  0.5546480000000 1.0
C      1  0.4723260000000  0.4027830000000  0.4440250000000 1.0
C      1  0.5262190000000  0.5898730000000  0.4528910000000 1.0
C      1  0.5239910000000  0.4119490000000  0.5500010000000 1.0
C      1  0.4710260000000  0.5549100000000  0.5955740000000 1.0
C      1  0.4715690000000  0.4473100000000  0.4047330000000 1.0
C      1  0.5266730000000  0.4521270000000  0.5909160000000 1.0
C      1  0.5259940000000  0.5506440000000  0.4128140000000 1.0
C      1  0.4748380000000  0.4773140000000  0.5164460000000 1.0
C      1  0.4679080000000  0.5226970000000  0.4687070000000 1.0
C      1  0.5228160000000  0.4724460000000  0.4722840000000 1.0
C      1  0.5249580000000  0.5219940000000  0.5223230000000 1.0
C      1  0.5885400000000  0.4952570000000  0.4956100000000 1.0
C      1  0.4168930000000  0.5059350000000  0.4992830000000 1.0
END
