TITL C-3578203-1966-177 -1.21748060494442e-06 125000 -660.709795043605 0 0 104 (C1) n - 1
REM
REM in /home/bkarasulu/work/CARBON/AIRSS/Generating-Clusters/EDIP-Nigel-Params/with-SteepDescent/Higher-Symm/SD-CG/HFTN-CG
REM
REM
REM
REM
REM
REM ./C.cell (12c818d87b63d06a65506943cc24bca4)
REM
REM compiler GCC version 9.2.1 20190827 (Red Hat 9.2.1-1)
REM options -cpp -mtune=generic -march=x86-64 -g -O0 -fpre-include=/usr/include/finclude/math-vector-fortran.h
REM seed 1114725251 916465543 1538075129 -1030982476 1446104458 947529191 -556923418 1071868091 -866149994 -387879678 922990764 -464206315 1908191817 -1449046142 -561897141 -1599538897 272017342 -318856891 728350808 -1059086687 388493287 456986039 1083659735 1605510135 18255843 1849643084 -177620781 536871665 198685915 457159723 1816145187 -268822952 1357866932
REM
CELL 1.54180   50.00000   50.00000   50.00000   90.00000   90.00000   90.00000
LATT -1
SFAC C  
C      1  0.4833990000000  0.5293090000000  0.5556500000000 1.0
C      1  0.5508530000000  0.4840690000000  0.5162400000000 1.0
C      1  0.5164130000000  0.5535140000000  0.4860830000000 1.0
C      1  0.5126530000000  0.5160410000000  0.4472620000000 1.0
C      1  0.4839180000000  0.4720880000000  0.4447830000000 1.0
C      1  0.5123060000000  0.4847520000000  0.5531490000000 1.0
C      1  0.4524360000000  0.4829580000000  0.4848710000000 1.0
C      1  0.5508780000000  0.5159530000000  0.4830960000000 1.0
C      1  0.4500710000000  0.5137990000000  0.5190730000000 1.0
C      1  0.4731230000000  0.5593880000000  0.5154260000000 1.0
C      1  0.5173910000000  0.4474040000000  0.5163960000000 1.0
C      1  0.4859440000000  0.4448270000000  0.4846570000000 1.0
C      1  0.4832300000000  0.4726440000000  0.5551650000000 1.0
C      1  0.5514340000000  0.5147860000000  0.5162900000000 1.0
C      1  0.5175410000000  0.4472710000000  0.4838620000000 1.0
C      1  0.5127500000000  0.4841340000000  0.4466790000000 1.0
C      1  0.4841680000000  0.5283350000000  0.4458920000000 1.0
C      1  0.5125930000000  0.5165730000000  0.5529680000000 1.0
C      1  0.4504660000000  0.5141700000000  0.4813270000000 1.0
C      1  0.5507960000000  0.4845970000000  0.4833330000000 1.0
C      1  0.4521290000000  0.4827340000000  0.5147270000000 1.0
C      1  0.4858300000000  0.4448720000000  0.5154900000000 1.0
C      1  0.5280540000000  0.5542150000000  0.5151100000000 1.0
C      1  0.4845310000000  0.5556450000000  0.4868270000000 1.0
C      1  0.4621310000000  0.5154030000000  0.4309640000000 1.0
C      1  0.4263080000000  0.4692440000000  0.5223800000000 1.0
C      1  0.5329710000000  0.4243650000000  0.4721390000000 1.0
C      1  0.5284230000000  0.5288050000000  0.5756660000000 1.0
C      1  0.4606440000000  0.4869610000000  0.5699530000000 1.0
C      1  0.5280200000000  0.4698960000000  0.4244770000000 1.0
C      1  0.5752100000000  0.4730670000000  0.4698410000000 1.0
C      1  0.4122420000000  0.5339170000000  0.4887210000000 1.0
C      1  0.5761140000000  0.5257390000000  0.5294320000000 1.0
C      1  0.4728210000000  0.4205570000000  0.5272030000000 1.0
C      1  0.5174280000000  0.5750340000000  0.5334650000000 1.0
C      1  0.4707460000000  0.5775740000000  0.4713870000000 1.0
C      1  0.4622100000000  0.4866920000000  0.4294130000000 1.0
C      1  0.4115480000000  0.5356430000000  0.5182940000000 1.0
C      1  0.5329350000000  0.5744940000000  0.4712130000000 1.0
C      1  0.5277410000000  0.4708410000000  0.5753250000000 1.0
C      1  0.4608320000000  0.5157920000000  0.5697310000000 1.0
C      1  0.5277370000000  0.5294130000000  0.4246600000000 1.0
C      1  0.5751490000000  0.5267970000000  0.4679200000000 1.0
C      1  0.4270900000000  0.4695000000000  0.4757750000000 1.0
C      1  0.5752880000000  0.4727210000000  0.5299610000000 1.0
C      1  0.4885900000000  0.5779150000000  0.5332770000000 1.0
C      1  0.5328500000000  0.4246490000000  0.5283380000000 1.0
C      1  0.4730140000000  0.4204150000000  0.4730430000000 1.0
C      1  0.5287230000000  0.5751240000000  0.5594970000000 1.0
C      1  0.5563230000000  0.5265930000000  0.5737800000000 1.0
C      1  0.5785100000000  0.5535280000000  0.5267570000000 1.0
C      1  0.4750030000000  0.5776840000000  0.4437120000000 1.0
C      1  0.5321030000000  0.4254420000000  0.4440330000000 1.0
C      1  0.4752670000000  0.4227470000000  0.5550980000000 1.0
C      1  0.4369860000000  0.5276890000000  0.4346950000000 1.0
C      1  0.5559030000000  0.4719020000000  0.4253550000000 1.0
C      1  0.4340710000000  0.4780310000000  0.5661400000000 1.0
C      1  0.4242590000000  0.5560440000000  0.4760850000000 1.0
C      1  0.5766910000000  0.4451540000000  0.4722890000000 1.0
C      1  0.4285150000000  0.4414520000000  0.5266080000000 1.0
C      1  0.5319060000000  0.4260450000000  0.5564260000000 1.0
C      1  0.5556260000000  0.4732560000000  0.5741470000000 1.0
C      1  0.5768570000000  0.4447770000000  0.5282520000000 1.0
C      1  0.4755770000000  0.4222080000000  0.4451650000000 1.0
C      1  0.5317760000000  0.5741240000000  0.4431770000000 1.0
C      1  0.4785120000000  0.5792690000000  0.5595950000000 1.0
C      1  0.4358950000000  0.4765580000000  0.4302940000000 1.0
C      1  0.5555290000000  0.5259100000000  0.4242020000000 1.0
C      1  0.4356740000000  0.5272120000000  0.5625720000000 1.0
C      1  0.4290100000000  0.4414950000000  0.4729720000000 1.0
C      1  0.5772380000000  0.5549020000000  0.4672470000000 1.0
C      1  0.4230730000000  0.5606780000000  0.5232680000000 1.0
C      1  0.4884230000000  0.4443340000000  0.4332170000000 1.0
C      1  0.4206610000000  0.4857400000000  0.4523770000000 1.0
C      1  0.4454590000000  0.4215690000000  0.4847920000000 1.0
C      1  0.5170230000000  0.4429220000000  0.5736710000000 1.0
C      1  0.4881410000000  0.5551890000000  0.5712550000000 1.0
C      1  0.5172690000000  0.5574110000000  0.4258110000000 1.0
C      1  0.5751500000000  0.4845440000000  0.5572280000000 1.0
C      1  0.4258870000000  0.5157680000000  0.5374110000000 1.0
C      1  0.5744900000000  0.5140500000000  0.4413490000000 1.0
C      1  0.5594790000000  0.4267290000000  0.5153310000000 1.0
C      1  0.4458450000000  0.5723140000000  0.5116210000000 1.0
C      1  0.5601660000000  0.5708540000000  0.4828440000000 1.0
C      1  0.4887260000000  0.5554040000000  0.4335450000000 1.0
C      1  0.4275350000000  0.5149190000000  0.4590630000000 1.0
C      1  0.4426340000000  0.5768270000000  0.4827380000000 1.0
C      1  0.5172410000000  0.5564310000000  0.5776390000000 1.0
C      1  0.4880460000000  0.4450040000000  0.5669450000000 1.0
C      1  0.5173010000000  0.4420370000000  0.4264550000000 1.0
C      1  0.5755900000000  0.5145660000000  0.5570110000000 1.0
C      1  0.4181170000000  0.4865050000000  0.5443250000000 1.0
C      1  0.5747410000000  0.4841440000000  0.4422840000000 1.0
C      1  0.5569190000000  0.5609930000000  0.5102760000000 1.0
C      1  0.4453150000000  0.4215940000000  0.5151490000000 1.0
C      1  0.5595490000000  0.4267950000000  0.4851440000000 1.0
C      1  0.5241740000000  0.5263120000000  0.4738730000000 1.0
C      1  0.5246670000000  0.4744650000000  0.5269800000000 1.0
C      1  0.4757870000000  0.4698770000000  0.5267540000000 1.0
C      1  0.4753000000000  0.5298410000000  0.4740990000000 1.0
C      1  0.4723110000000  0.5323140000000  0.5279280000000 1.0
C      1  0.5248680000000  0.4742120000000  0.4729080000000 1.0
C      1  0.4762620000000  0.4699450000000  0.4732320000000 1.0
C      1  0.5258340000000  0.5262650000000  0.5267740000000 1.0
END
