TITL C-3577076-40-633 -7.15733694925158e-07 125000 -371.86424252881 0 0 61 (C1) n - 1
REM
REM in /home/bkarasulu/work/CARBON/AIRSS/Generating-Clusters/EDIP-Nigel-Params/with-SteepDescent/Higher-Symm/SD-CG/HFTN-CG
REM
REM
REM
REM
REM
REM ./C.cell (12c818d87b63d06a65506943cc24bca4)
REM
REM compiler GCC version 9.2.1 20190827 (Red Hat 9.2.1-1)
REM options -cpp -mtune=generic -march=x86-64 -g -O0 -fpre-include=/usr/include/finclude/math-vector-fortran.h
REM seed -1560157070 -1414785201 -669055143 339715847 2122810476 1904068267 481420814 -1534441207 629384408 821182346 -728791871 976989647 -687183663 -1123347979 -807696865 -2001722433 770246650 20381531 -818236820 -1857999828 -1947276670 -1798986029 -960726390 -57060427 -584198204 585899655 -1965779563 -233201049 -1050349155 -2077648879 1324760524 -68793700 -896131391
REM
CELL 1.54180   50.00000   50.00000   50.00000   90.00000   90.00000   90.00000
LATT -1
SFAC C  
C      1  0.5331470000000  0.4767090000000  0.5462120000000 1.0
C      1  0.5407790000000  0.4927120000000  0.4668970000000 1.0
C      1  0.5229690000000  0.5022060000000  0.5628830000000 1.0
C      1  0.5257920000000  0.4989430000000  0.4401800000000 1.0
C      1  0.5622470000000  0.4546060000000  0.5111680000000 1.0
C      1  0.5690190000000  0.4554900000000  0.4851760000000 1.0
C      1  0.5209720000000  0.4853860000000  0.4874560000000 1.0
C      1  0.5215950000000  0.4967520000000  0.5153570000000 1.0
C      1  0.4630330000000  0.4513790000000  0.5347260000000 1.0
C      1  0.4563200000000  0.4467130000000  0.4622920000000 1.0
C      1  0.5016710000000  0.5451480000000  0.5522380000000 1.0
C      1  0.5067290000000  0.5414250000000  0.4547090000000 1.0
C      1  0.4883660000000  0.4173930000000  0.4848710000000 1.0
C      1  0.4965640000000  0.4262440000000  0.5087030000000 1.0
C      1  0.5319320000000  0.5387280000000  0.4874420000000 1.0
C      1  0.5178170000000  0.5282530000000  0.5143220000000 1.0
C      1  0.4574830000000  0.4698580000000  0.5566140000000 1.0
C      1  0.4546530000000  0.4687080000000  0.4425270000000 1.0
C      1  0.4341240000000  0.5144180000000  0.4744670000000 1.0
C      1  0.4353460000000  0.5181810000000  0.5273450000000 1.0
C      1  0.4787470000000  0.5466400000000  0.4875140000000 1.0
C      1  0.4856010000000  0.5322240000000  0.5131820000000 1.0
C      1  0.4985400000000  0.4559600000000  0.5736700000000 1.0
C      1  0.4930700000000  0.4511470000000  0.4227300000000 1.0
C      1  0.5125730000000  0.4522940000000  0.5492000000000 1.0
C      1  0.4940680000000  0.4289240000000  0.4380410000000 1.0
C      1  0.4954150000000  0.4895750000000  0.5278730000000 1.0
C      1  0.4957880000000  0.4827820000000  0.4736930000000 1.0
C      1  0.5655270000000  0.5020210000000  0.5158930000000 1.0
C      1  0.5720730000000  0.5048250000000  0.4868110000000 1.0
C      1  0.4917360000000  0.4457910000000  0.5279200000000 1.0
C      1  0.4786310000000  0.4279550000000  0.4612280000000 1.0
C      1  0.5331100000000  0.5688540000000  0.4906250000000 1.0
C      1  0.5326680000000  0.5640660000000  0.5219110000000 1.0
C      1  0.5051630000000  0.5667830000000  0.5327100000000 1.0
C      1  0.5075250000000  0.5699010000000  0.4726290000000 1.0
C      1  0.4796920000000  0.4751580000000  0.4285780000000 1.0
C      1  0.4803110000000  0.4774860000000  0.5723890000000 1.0
C      1  0.4931600000000  0.4995550000000  0.5564300000000 1.0
C      1  0.4958640000000  0.4943570000000  0.4462800000000 1.0
C      1  0.5681600000000  0.4784590000000  0.4695350000000 1.0
C      1  0.5578000000000  0.4765510000000  0.5278180000000 1.0
C      1  0.4782110000000  0.5276470000000  0.5562300000000 1.0
C      1  0.4831060000000  0.5227780000000  0.4510820000000 1.0
C      1  0.4402790000000  0.4514610000000  0.4862330000000 1.0
C      1  0.4430220000000  0.4564100000000  0.5141630000000 1.0
C      1  0.5271120000000  0.5314570000000  0.5570760000000 1.0
C      1  0.5310100000000  0.5280040000000  0.4421980000000 1.0
C      1  0.4472400000000  0.4878870000000  0.4742060000000 1.0
C      1  0.4493970000000  0.4924570000000  0.5269260000000 1.0
C      1  0.4860630000000  0.5806740000000  0.5176440000000 1.0
C      1  0.4823460000000  0.5758440000000  0.4903930000000 1.0
C      1  0.4564800000000  0.5353300000000  0.5377250000000 1.0
C      1  0.4560180000000  0.5299960000000  0.4622800000000 1.0
C      1  0.5669100000000  0.5249880000000  0.5312280000000 1.0
C      1  0.5589670000000  0.5303790000000  0.4764600000000 1.0
C      1  0.5484080000000  0.5435180000000  0.5403810000000 1.0
C      1  0.5578560000000  0.5340820000000  0.4487570000000 1.0
C      1  0.4746330000000  0.5024470000000  0.5130970000000 1.0
C      1  0.4732410000000  0.4957660000000  0.4849370000000 1.0
C      1  0.4270650000000  0.5224470000000  0.5007760000000 1.0
END
