TITL C-3577084-3642-367 -7.78615000040262e-06 125000 -883.54056828779 0 0 146 (C1) n - 1
REM
REM in /home/bkarasulu/work/CARBON/AIRSS/Generating-Clusters/EDIP-Nigel-Params/with-SteepDescent/Higher-Symm/SD-CG/HFTN-CG
REM
REM
REM
REM
REM
REM ./C.cell (12c818d87b63d06a65506943cc24bca4)
REM
REM compiler GCC version 9.2.1 20190827 (Red Hat 9.2.1-1)
REM options -cpp -mtune=generic -march=x86-64 -g -O0 -fpre-include=/usr/include/finclude/math-vector-fortran.h
REM seed -87701461 1898363529 1340489493 1659894897 361357121 1062948631 1831687714 1321800306 -1646896005 880838148 604987353 1013645498 1182078738 8377238 -1563673026 -1112506180 -1829310758 847510025 -2000852581 2040207442 -1093966196 503734423 801174072 -1114694248 328509323 -365465793 1995218481 -2103183733 445238493 1273923965 1589021851 621070700 587960053
REM
CELL 1.54180   50.00000   50.00000   50.00000   90.00000   90.00000   90.00000
LATT -1
SFAC C  
C      1  0.5155600000000  0.4009650000000  0.4707120000000 1.0
C      1  0.5155950000000  0.5745200000000  0.4287770000000 1.0
C      1  0.5157290000000  0.5240600000000  0.6001590000000 1.0
C      1  0.4851260000000  0.4010280000000  0.4706580000000 1.0
C      1  0.4851610000000  0.5746520000000  0.4286590000000 1.0
C      1  0.4852960000000  0.5240820000000  0.6000030000000 1.0
C      1  0.5149940000000  0.4197480000000  0.5247750000000 1.0
C      1  0.5150430000000  0.5615510000000  0.5570310000000 1.0
C      1  0.5149960000000  0.5182340000000  0.4179750000000 1.0
C      1  0.4857980000000  0.4196790000000  0.5247480000000 1.0
C      1  0.4858550000000  0.5615350000000  0.5566090000000 1.0
C      1  0.4858030000000  0.5185480000000  0.4177840000000 1.0
C      1  0.5976950000000  0.5001350000000  0.5286870000000 1.0
C      1  0.5975690000000  0.4749090000000  0.4856780000000 1.0
C      1  0.5974560000000  0.5245210000000  0.4851650000000 1.0
C      1  0.4033180000000  0.5001690000000  0.5284660000000 1.0
C      1  0.4033040000000  0.4748470000000  0.4857710000000 1.0
C      1  0.4031590000000  0.5247660000000  0.4851800000000 1.0
C      1  0.5969260000000  0.4998380000000  0.4704920000000 1.0
C      1  0.5975780000000  0.4746310000000  0.5144600000000 1.0
C      1  0.5975300000000  0.5251070000000  0.5144060000000 1.0
C      1  0.4032150000000  0.4999030000000  0.4706790000000 1.0
C      1  0.4038440000000  0.4745260000000  0.5144830000000 1.0
C      1  0.4034480000000  0.5252450000000  0.5143680000000 1.0
C      1  0.5733830000000  0.4358960000000  0.5386990000000 1.0
C      1  0.5734260000000  0.4981810000000  0.4246210000000 1.0
C      1  0.5733800000000  0.5656110000000  0.5358300000000 1.0
C      1  0.4273790000000  0.4356060000000  0.5388880000000 1.0
C      1  0.4274650000000  0.4982110000000  0.4249270000000 1.0
C      1  0.4274450000000  0.5656320000000  0.5358290000000 1.0
C      1  0.5706410000000  0.4368740000000  0.4673880000000 1.0
C      1  0.5708450000000  0.5033450000000  0.5708730000000 1.0
C      1  0.5706090000000  0.5593710000000  0.4614590000000 1.0
C      1  0.4301120000000  0.4368260000000  0.4673960000000 1.0
C      1  0.4302480000000  0.5033230000000  0.5705080000000 1.0
C      1  0.4300610000000  0.5596370000000  0.4613310000000 1.0
C      1  0.5287490000000  0.4458840000000  0.5683770000000 1.0
C      1  0.5286770000000  0.4675620000000  0.4187170000000 1.0
C      1  0.5286320000000  0.5861370000000  0.5124000000000 1.0
C      1  0.4721730000000  0.4458170000000  0.5682620000000 1.0
C      1  0.4721520000000  0.4676020000000  0.4187890000000 1.0
C      1  0.4721250000000  0.5862660000000  0.5123060000000 1.0
C      1  0.5319690000000  0.4398330000000  0.4303610000000 1.0
C      1  0.5319940000000  0.4697470000000  0.5866850000000 1.0
C      1  0.5318100000000  0.5899070000000  0.4825350000000 1.0
C      1  0.4689710000000  0.4398380000000  0.4304100000000 1.0
C      1  0.4689360000000  0.4697840000000  0.5864340000000 1.0
C      1  0.4688270000000  0.5901550000000  0.4824850000000 1.0
C      1  0.4761920000000  0.5051990000000  0.6195710000000 1.0
C      1  0.4761780000000  0.3934780000000  0.4444870000000 1.0
C      1  0.4762110000000  0.6010850000000  0.4352330000000 1.0
C      1  0.5246210000000  0.5051400000000  0.6197790000000 1.0
C      1  0.5246150000000  0.3934390000000  0.4445670000000 1.0
C      1  0.5246480000000  0.6009270000000  0.4353300000000 1.0
C      1  0.4747770000000  0.5071600000000  0.3936030000000 1.0
C      1  0.4748950000000  0.4042510000000  0.5466670000000 1.0
C      1  0.4748350000000  0.5881720000000  0.5591010000000 1.0
C      1  0.5259310000000  0.5070810000000  0.3936040000000 1.0
C      1  0.5260460000000  0.4043730000000  0.5466380000000 1.0
C      1  0.5260260000000  0.5882060000000  0.5592440000000 1.0
C      1  0.4850350000000  0.6004370000000  0.5347850000000 1.0
C      1  0.4851000000000  0.4192940000000  0.5693870000000 1.0
C      1  0.4849930000000  0.4799670000000  0.3952620000000 1.0
C      1  0.5157860000000  0.6003380000000  0.5348560000000 1.0
C      1  0.5158550000000  0.4193340000000  0.5694030000000 1.0
C      1  0.5157430000000  0.4798830000000  0.3951870000000 1.0
C      1  0.4855070000000  0.6034270000000  0.4622050000000 1.0
C      1  0.4855580000000  0.4155990000000  0.4289340000000 1.0
C      1  0.4855120000000  0.4806480000000  0.6081850000000 1.0
C      1  0.5152810000000  0.6033630000000  0.4622660000000 1.0
C      1  0.5153330000000  0.4155970000000  0.4290050000000 1.0
C      1  0.5152910000000  0.4806250000000  0.6083160000000 1.0
C      1  0.4421790000000  0.5689870000000  0.5602660000000 1.0
C      1  0.4421660000000  0.4127660000000  0.5296040000000 1.0
C      1  0.4420980000000  0.5176950000000  0.4096640000000 1.0
C      1  0.5587330000000  0.5690820000000  0.5603330000000 1.0
C      1  0.5586950000000  0.4130040000000  0.5294260000000 1.0
C      1  0.5586260000000  0.5176520000000  0.4095350000000 1.0
C      1  0.4369120000000  0.5686700000000  0.4358330000000 1.0
C      1  0.4368580000000  0.4102030000000  0.4723400000000 1.0
C      1  0.4370700000000  0.5208660000000  0.5911110000000 1.0
C      1  0.5638470000000  0.5684230000000  0.4359420000000 1.0
C      1  0.5637870000000  0.4102740000000  0.4723060000000 1.0
C      1  0.5640030000000  0.5209260000000  0.5914350000000 1.0
C      1  0.4607350000000  0.5273470000000  0.4312170000000 1.0
C      1  0.4607930000000  0.5454730000000  0.5576440000000 1.0
C      1  0.4606440000000  0.4268520000000  0.5103970000000 1.0
C      1  0.5401180000000  0.5271490000000  0.4313560000000 1.0
C      1  0.5401450000000  0.5455360000000  0.5579350000000 1.0
C      1  0.5400350000000  0.4269410000000  0.5103860000000 1.0
C      1  0.4618020000000  0.5314000000000  0.5836980000000 1.0
C      1  0.4616320000000  0.5569440000000  0.4304400000000 1.0
C      1  0.4615810000000  0.4113050000000  0.4851940000000 1.0
C      1  0.5392740000000  0.5314470000000  0.5839820000000 1.0
C      1  0.5391150000000  0.5567510000000  0.4304840000000 1.0
C      1  0.5390590000000  0.4114700000000  0.4851430000000 1.0
C      1  0.4092400000000  0.5432280000000  0.5365860000000 1.0
C      1  0.4092760000000  0.4461380000000  0.5188590000000 1.0
C      1  0.4092690000000  0.5099670000000  0.4439680000000 1.0
C      1  0.5915850000000  0.5432170000000  0.5365180000000 1.0
C      1  0.5916060000000  0.4464640000000  0.5190040000000 1.0
C      1  0.5915310000000  0.5102630000000  0.4437380000000 1.0
C      1  0.4070320000000  0.5434610000000  0.4636570000000 1.0
C      1  0.4069450000000  0.4469430000000  0.4799530000000 1.0
C      1  0.4071160000000  0.5092610000000  0.5554900000000 1.0
C      1  0.5938290000000  0.5435360000000  0.4639300000000 1.0
C      1  0.5937110000000  0.4469370000000  0.4801440000000 1.0
C      1  0.5938630000000  0.5094040000000  0.5556570000000 1.0
C      1  0.5539920000000  0.4922010000000  0.5315850000000 1.0
C      1  0.5539470000000  0.4765450000000  0.4772720000000 1.0
C      1  0.5538780000000  0.5309990000000  0.4909160000000 1.0
C      1  0.4469180000000  0.4919970000000  0.5312080000000 1.0
C      1  0.4468850000000  0.4764930000000  0.4772780000000 1.0
C      1  0.4468910000000  0.5311960000000  0.4906440000000 1.0
C      1  0.5526340000000  0.5112310000000  0.4612960000000 1.0
C      1  0.5517170000000  0.4608880000000  0.5094480000000 1.0
C      1  0.5517860000000  0.5276960000000  0.5291400000000 1.0
C      1  0.4492420000000  0.5112610000000  0.4610490000000 1.0
C      1  0.4482170000000  0.4607050000000  0.5091730000000 1.0
C      1  0.4487690000000  0.5276290000000  0.5287710000000 1.0
C      1  0.5592280000000  0.4483830000000  0.4438880000000 1.0
C      1  0.5591160000000  0.5739710000000  0.4831200000000 1.0
C      1  0.5592950000000  0.4772560000000  0.5725870000000 1.0
C      1  0.4416560000000  0.4483020000000  0.4439340000000 1.0
C      1  0.4415550000000  0.5741810000000  0.4830750000000 1.0
C      1  0.4416490000000  0.4772250000000  0.5723120000000 1.0
C      1  0.5552940000000  0.4540700000000  0.5527700000000 1.0
C      1  0.5551740000000  0.5685040000000  0.5131070000000 1.0
C      1  0.5552460000000  0.4770710000000  0.4336260000000 1.0
C      1  0.4455940000000  0.4539820000000  0.5526030000000 1.0
C      1  0.4455710000000  0.5686200000000  0.5130550000000 1.0
C      1  0.4456210000000  0.4770220000000  0.4336960000000 1.0
C      1  0.5156950000000  0.5060490000000  0.4712530000000 1.0
C      1  0.5160330000000  0.5210600000000  0.5191250000000 1.0
C      1  0.5157890000000  0.4721770000000  0.5083770000000 1.0
C      1  0.4848380000000  0.5060080000000  0.4717370000000 1.0
C      1  0.4851960000000  0.5212240000000  0.5194960000000 1.0
C      1  0.4849690000000  0.4721580000000  0.5086650000000 1.0
C      1  0.5243120000000  0.4933400000000  0.5275360000000 1.0
C      1  0.5242030000000  0.5270650000000  0.4910350000000 1.0
C      1  0.5241820000000  0.4788490000000  0.4801540000000 1.0
C      1  0.4766530000000  0.4935280000000  0.5278190000000 1.0
C      1  0.4766170000000  0.5272120000000  0.4915820000000 1.0
C      1  0.4765300000000  0.4787420000000  0.4805760000000 1.0
C      1  0.5642840000000  0.4998090000000  0.5001400000000 1.0
C      1  0.4365560000000  0.5000960000000  0.4996040000000 1.0
END
