TITL C-3577088-510-388 2.72361042983889e-07 125000 -1174.1703197943 0 0 186 (C1) n - 1
REM
REM in /home/bkarasulu/work/CARBON/AIRSS/Generating-Clusters/EDIP-Nigel-Params/with-SteepDescent/Higher-Symm/SD-CG/HFTN-CG
REM
REM
REM
REM
REM
REM ./C.cell (12c818d87b63d06a65506943cc24bca4)
REM
REM compiler GCC version 9.2.1 20190827 (Red Hat 9.2.1-1)
REM options -cpp -mtune=generic -march=x86-64 -g -O0 -fpre-include=/usr/include/finclude/math-vector-fortran.h
REM seed -1500221781 1991491711 -811371433 -1698369401 2102388535 426973071 -542925858 -2132140557 1428059126 -117359963 175949443 1143644022 -776120916 445739823 1721138682 -1644343426 -524495119 -754914849 377423416 172964394 -1712463893 -110565077 -667054292 -1683323009 1786235926 -1643435407 -1576281035 685912241 1415683842 -100660398 -305814891 977665513 -64297438
REM
CELL 1.54180   50.00000   50.00000   50.00000   90.00000   90.00000   90.00000
LATT -1
SFAC C  
C      1  0.5789480000000  0.5758000000000  0.5223450000000 1.0
C      1  0.5776890000000  0.4460670000000  0.5563510000000 1.0
C      1  0.5797770000000  0.4815750000000  0.4198560000000 1.0
C      1  0.4213630000000  0.4246080000000  0.5221670000000 1.0
C      1  0.4222960000000  0.5535970000000  0.5561150000000 1.0
C      1  0.4201170000000  0.5208500000000  0.4224660000000 1.0
C      1  0.5087820000000  0.5136110000000  0.4017980000000 1.0
C      1  0.5105460000000  0.5743730000000  0.5598100000000 1.0
C      1  0.5067340000000  0.4121170000000  0.5385510000000 1.0
C      1  0.4911610000000  0.4874340000000  0.4012950000000 1.0
C      1  0.4892360000000  0.4255790000000  0.5608740000000 1.0
C      1  0.4930430000000  0.5872820000000  0.5370640000000 1.0
C      1  0.5152190000000  0.6052680000000  0.4767930000000 1.0
C      1  0.5121010000000  0.4682000000000  0.6109810000000 1.0
C      1  0.5141050000000  0.4254590000000  0.4162990000000 1.0
C      1  0.4843820000000  0.3930390000000  0.4784160000000 1.0
C      1  0.4874860000000  0.5324370000000  0.6104910000000 1.0
C      1  0.4872230000000  0.5772020000000  0.4186500000000 1.0
C      1  0.4576370000000  0.5579240000000  0.4756010000000 1.0
C      1  0.4568020000000  0.4916310000000  0.5673260000000 1.0
C      1  0.4578420000000  0.4505830000000  0.4584730000000 1.0
C      1  0.5409840000000  0.4398320000000  0.4775370000000 1.0
C      1  0.5431010000000  0.5085010000000  0.5674460000000 1.0
C      1  0.5426520000000  0.5498680000000  0.4586770000000 1.0
C      1  0.4543440000000  0.4925550000000  0.4309660000000 1.0
C      1  0.4572110000000  0.5582940000000  0.5273270000000 1.0
C      1  0.4510990000000  0.4504340000000  0.5414420000000 1.0
C      1  0.5449180000000  0.5067990000000  0.4303210000000 1.0
C      1  0.5421800000000  0.4413870000000  0.5284990000000 1.0
C      1  0.5492010000000  0.5497260000000  0.5413220000000 1.0
C      1  0.4406760000000  0.4297120000000  0.4434660000000 1.0
C      1  0.4401520000000  0.5819550000000  0.4675690000000 1.0
C      1  0.4377610000000  0.4873010000000  0.5908230000000 1.0
C      1  0.5592360000000  0.5715340000000  0.4441390000000 1.0
C      1  0.5589900000000  0.4167030000000  0.4687330000000 1.0
C      1  0.5619190000000  0.5131080000000  0.5910430000000 1.0
C      1  0.4620940000000  0.4126080000000  0.5658800000000 1.0
C      1  0.4631780000000  0.4891010000000  0.3882110000000 1.0
C      1  0.4652580000000  0.5974810000000  0.5458190000000 1.0
C      1  0.5376160000000  0.5874460000000  0.5649150000000 1.0
C      1  0.5368040000000  0.5123940000000  0.3877270000000 1.0
C      1  0.5347670000000  0.4022390000000  0.5473460000000 1.0
C      1  0.5384230000000  0.4591090000000  0.6030920000000 1.0
C      1  0.5402620000000  0.4355650000000  0.4101230000000 1.0
C      1  0.5414220000000  0.6062680000000  0.4883730000000 1.0
C      1  0.4612080000000  0.5414640000000  0.6024010000000 1.0
C      1  0.4606460000000  0.5663880000000  0.4150520000000 1.0
C      1  0.4582140000000  0.3924800000000  0.4900100000000 1.0
C      1  0.5688310000000  0.4165350000000  0.5156600000000 1.0
C      1  0.5734840000000  0.5315110000000  0.4184480000000 1.0
C      1  0.5687960000000  0.5558480000000  0.5659430000000 1.0
C      1  0.4310460000000  0.5836570000000  0.5148130000000 1.0
C      1  0.4287440000000  0.4678420000000  0.4166870000000 1.0
C      1  0.4311420000000  0.4443530000000  0.5659960000000 1.0
C      1  0.4682070000000  0.4427990000000  0.4108610000000 1.0
C      1  0.4692430000000  0.6022150000000  0.4946290000000 1.0
C      1  0.4660290000000  0.4534640000000  0.5970630000000 1.0
C      1  0.5324300000000  0.5579480000000  0.4111580000000 1.0
C      1  0.5305040000000  0.3963560000000  0.4963950000000 1.0
C      1  0.5335980000000  0.5470170000000  0.5966400000000 1.0
C      1  0.5969970000000  0.4412710000000  0.5356290000000 1.0
C      1  0.5923370000000  0.5076560000000  0.4248660000000 1.0
C      1  0.5999050000000  0.5622050000000  0.5352160000000 1.0
C      1  0.4021970000000  0.5581990000000  0.5364170000000 1.0
C      1  0.4013430000000  0.5002380000000  0.4289270000000 1.0
C      1  0.4001880000000  0.4376250000000  0.5351440000000 1.0
C      1  0.3941690000000  0.5134250000000  0.5161210000000 1.0
C      1  0.3927520000000  0.4755420000000  0.5036150000000 1.0
C      1  0.3934310000000  0.5052340000000  0.4777440000000 1.0
C      1  0.6043850000000  0.4866100000000  0.5151730000000 1.0
C      1  0.6072500000000  0.5239630000000  0.5038080000000 1.0
C      1  0.6054460000000  0.4937490000000  0.4766660000000 1.0
C      1  0.4702750000000  0.5092180000000  0.5203960000000 1.0
C      1  0.4705480000000  0.4886590000000  0.4981640000000 1.0
C      1  0.4672560000000  0.5076200000000  0.4760890000000 1.0
C      1  0.5301180000000  0.4906780000000  0.5214210000000 1.0
C      1  0.5313260000000  0.5104200000000  0.4985290000000 1.0
C      1  0.5366900000000  0.4895880000000  0.4773630000000 1.0
C      1  0.5465040000000  0.3914250000000  0.4724270000000 1.0
C      1  0.5472170000000  0.5813320000000  0.4204190000000 1.0
C      1  0.5498150000000  0.5281290000000  0.6120910000000 1.0
C      1  0.4532910000000  0.6070070000000  0.4706350000000 1.0
C      1  0.4531000000000  0.4194960000000  0.4199910000000 1.0
C      1  0.4496980000000  0.4725470000000  0.6121510000000 1.0
C      1  0.5039600000000  0.3817970000000  0.4984690000000 1.0
C      1  0.5052940000000  0.5637560000000  0.3984140000000 1.0
C      1  0.5063560000000  0.5558420000000  0.6073310000000 1.0
C      1  0.4956800000000  0.6168060000000  0.4965040000000 1.0
C      1  0.4944980000000  0.4373430000000  0.3968420000000 1.0
C      1  0.4932060000000  0.4447670000000  0.6080920000000 1.0
C      1  0.5360230000000  0.6009230000000  0.5156080000000 1.0
C      1  0.5309540000000  0.4457750000000  0.5779570000000 1.0
C      1  0.5345150000000  0.4622630000000  0.4026780000000 1.0
C      1  0.4636770000000  0.3983170000000  0.5171140000000 1.0
C      1  0.4687770000000  0.5543900000000  0.5770680000000 1.0
C      1  0.4676630000000  0.5379560000000  0.4136880000000 1.0
C      1  0.5871610000000  0.4511570000000  0.4892210000000 1.0
C      1  0.5894420000000  0.5369280000000  0.4611590000000 1.0
C      1  0.5871110000000  0.5183790000000  0.5474500000000 1.0
C      1  0.4120300000000  0.5488320000000  0.4900800000000 1.0
C      1  0.4106050000000  0.4643940000000  0.4603120000000 1.0
C      1  0.4131270000000  0.4815310000000  0.5471360000000 1.0
C      1  0.5202890000000  0.5477510000000  0.5505540000000 1.0
C      1  0.5145490000000  0.4345090000000  0.5199550000000 1.0
C      1  0.5173710000000  0.5169670000000  0.4303820000000 1.0
C      1  0.4798650000000  0.4522130000000  0.5510820000000 1.0
C      1  0.4849190000000  0.5646250000000  0.5188040000000 1.0
C      1  0.4828970000000  0.4833420000000  0.4299630000000 1.0
C      1  0.5700510000000  0.4738890000000  0.5483480000000 1.0
C      1  0.5768210000000  0.4696170000000  0.4462870000000 1.0
C      1  0.5746290000000  0.5602600000000  0.4988180000000 1.0
C      1  0.4300090000000  0.5258830000000  0.5475690000000 1.0
C      1  0.4276400000000  0.5280330000000  0.4507530000000 1.0
C      1  0.4257040000000  0.4398970000000  0.4983010000000 1.0
C      1  0.5939210000000  0.4902800000000  0.5429710000000 1.0
C      1  0.5972540000000  0.4673030000000  0.4663410000000 1.0
C      1  0.5974010000000  0.5465940000000  0.4875150000000 1.0
C      1  0.4059350000000  0.5094790000000  0.5430700000000 1.0
C      1  0.4033660000000  0.5318020000000  0.4675400000000 1.0
C      1  0.4028690000000  0.4533230000000  0.4866190000000 1.0
C      1  0.4751080000000  0.5445130000000  0.4523850000000 1.0
C      1  0.4753720000000  0.5171710000000  0.5656800000000 1.0
C      1  0.4755120000000  0.4426890000000  0.4817810000000 1.0
C      1  0.5252220000000  0.4527440000000  0.4553730000000 1.0
C      1  0.5243760000000  0.4829230000000  0.5660740000000 1.0
C      1  0.5246060000000  0.5564830000000  0.4818960000000 1.0
C      1  0.4394890000000  0.5376240000000  0.4926320000000 1.0
C      1  0.4418080000000  0.4792840000000  0.5362390000000 1.0
C      1  0.4381210000000  0.4737180000000  0.4687880000000 1.0
C      1  0.5587680000000  0.4622400000000  0.4932830000000 1.0
C      1  0.5585830000000  0.5209390000000  0.5364340000000 1.0
C      1  0.5620440000000  0.5271440000000  0.4686560000000 1.0
C      1  0.4791800000000  0.4547510000000  0.4365200000000 1.0
C      1  0.4795500000000  0.5738130000000  0.4911600000000 1.0
C      1  0.4772380000000  0.4705260000000  0.5743940000000 1.0
C      1  0.5216840000000  0.5455060000000  0.4367110000000 1.0
C      1  0.5195790000000  0.4244120000000  0.4926790000000 1.0
C      1  0.5225980000000  0.5296880000000  0.5740810000000 1.0
C      1  0.5818750000000  0.5293760000000  0.5759480000000 1.0
C      1  0.5800960000000  0.4215600000000  0.4887810000000 1.0
C      1  0.5819240000000  0.5543090000000  0.4373150000000 1.0
C      1  0.4180000000000  0.4708280000000  0.5756960000000 1.0
C      1  0.4193520000000  0.5782680000000  0.4884150000000 1.0
C      1  0.4187190000000  0.4481650000000  0.4360020000000 1.0
C      1  0.4517070000000  0.6031020000000  0.5197220000000 1.0
C      1  0.4486130000000  0.4308090000000  0.5856720000000 1.0
C      1  0.4500560000000  0.4635730000000  0.3974780000000 1.0
C      1  0.5483830000000  0.3965100000000  0.5212490000000 1.0
C      1  0.5510190000000  0.5695990000000  0.5851450000000 1.0
C      1  0.5508060000000  0.5369490000000  0.3978800000000 1.0
C      1  0.4481180000000  0.5298020000000  0.5213510000000 1.0
C      1  0.4433340000000  0.4735690000000  0.5043700000000 1.0
C      1  0.4451280000000  0.5017330000000  0.4578370000000 1.0
C      1  0.5515190000000  0.4696580000000  0.5230400000000 1.0
C      1  0.5577100000000  0.5261570000000  0.5047620000000 1.0
C      1  0.5561660000000  0.4993480000000  0.4567050000000 1.0
C      1  0.5104190000000  0.5311020000000  0.4885640000000 1.0
C      1  0.5098530000000  0.4892670000000  0.5409390000000 1.0
C      1  0.5120840000000  0.4750630000000  0.4688430000000 1.0
C      1  0.4910940000000  0.4672370000000  0.4892850000000 1.0
C      1  0.4898770000000  0.5107100000000  0.5406750000000 1.0
C      1  0.4895350000000  0.5236740000000  0.4681880000000 1.0
C      1  0.3941690000000  0.4878380000000  0.4535150000000 1.0
C      1  0.3949600000000  0.5430510000000  0.5134340000000 1.0
C      1  0.3942920000000  0.4650790000000  0.5316000000000 1.0
C      1  0.6040340000000  0.5126900000000  0.4531260000000 1.0
C      1  0.6038520000000  0.4569190000000  0.5126090000000 1.0
C      1  0.6059540000000  0.5347130000000  0.5317410000000 1.0
C      1  0.4933430000000  0.5698300000000  0.5840780000000 1.0
C      1  0.4909340000000  0.3910050000000  0.5236320000000 1.0
C      1  0.4915210000000  0.5373290000000  0.3956470000000 1.0
C      1  0.5063520000000  0.4304340000000  0.5851440000000 1.0
C      1  0.5087300000000  0.6081800000000  0.5218280000000 1.0
C      1  0.5075360000000  0.4637330000000  0.3920790000000 1.0
C      1  0.4461680000000  0.4120760000000  0.5370540000000 1.0
C      1  0.4478560000000  0.5142570000000  0.4091400000000 1.0
C      1  0.4499240000000  0.5686070000000  0.5567410000000 1.0
C      1  0.5535950000000  0.5880630000000  0.5362490000000 1.0
C      1  0.5518770000000  0.4870780000000  0.4045670000000 1.0
C      1  0.5497560000000  0.4311840000000  0.5577410000000 1.0
C      1  0.5045700000000  0.5765970000000  0.4731480000000 1.0
C      1  0.5025900000000  0.4845900000000  0.5868060000000 1.0
C      1  0.5038770000000  0.4362610000000  0.4433390000000 1.0
C      1  0.4950160000000  0.4215410000000  0.4740260000000 1.0
C      1  0.4971020000000  0.5157900000000  0.5865270000000 1.0
C      1  0.4970990000000  0.5634240000000  0.4443350000000 1.0
END
