TITL C-3577089-586-327 2.0173059407055e-06 125000 -1194.9339895637 0 0 193 (C1) n - 1
REM
REM in /home/bkarasulu/work/CARBON/AIRSS/Generating-Clusters/EDIP-Nigel-Params/with-SteepDescent/Higher-Symm/SD-CG/HFTN-CG
REM
REM
REM
REM
REM
REM ./C.cell (12c818d87b63d06a65506943cc24bca4)
REM
REM compiler GCC version 9.2.1 20190827 (Red Hat 9.2.1-1)
REM options -cpp -mtune=generic -march=x86-64 -g -O0 -fpre-include=/usr/include/finclude/math-vector-fortran.h
REM seed 1624011982 -1555827845 1930388816 -1038595962 950693428 655574010 477804741 577755493 880306383 1083787203 -1988855481 -638323067 -78495878 1168662665 1694777202 259213790 502966146 366942124 1043084715 1664425555 10049456 562895601 -1633855745 271718459 -1260773895 -2028436080 1648866022 831952040 -1685066413 -953411872 -433760775 462730731 -2126392760
REM
CELL 1.54180   50.00000   50.00000   50.00000   90.00000   90.00000   90.00000
LATT -1
SFAC C  
C      1  0.5816040000000  0.4650040000000  0.5687130000000 1.0
C      1  0.4190270000000  0.5338580000000  0.5686650000000 1.0
C      1  0.5859300000000  0.4716650000000  0.4319850000000 1.0
C      1  0.4178020000000  0.5283500000000  0.4305060000000 1.0
C      1  0.5815840000000  0.5299510000000  0.5687850000000 1.0
C      1  0.4166070000000  0.4716020000000  0.5692960000000 1.0
C      1  0.5816850000000  0.5352920000000  0.4305590000000 1.0
C      1  0.4174980000000  0.4656840000000  0.4315590000000 1.0
C      1  0.4455360000000  0.4830680000000  0.3980240000000 1.0
C      1  0.5574620000000  0.5175070000000  0.3978540000000 1.0
C      1  0.4451860000000  0.4872110000000  0.6039240000000 1.0
C      1  0.5560960000000  0.5127800000000  0.6008540000000 1.0
C      1  0.4448250000000  0.5125340000000  0.3989870000000 1.0
C      1  0.5571900000000  0.4884350000000  0.4027440000000 1.0
C      1  0.4451460000000  0.5164870000000  0.6000880000000 1.0
C      1  0.5561640000000  0.4832590000000  0.6001660000000 1.0
C      1  0.4500310000000  0.5965550000000  0.4657360000000 1.0
C      1  0.5481690000000  0.4063150000000  0.4656310000000 1.0
C      1  0.4499280000000  0.5995510000000  0.5327290000000 1.0
C      1  0.5502800000000  0.3997400000000  0.5323920000000 1.0
C      1  0.4488640000000  0.4002650000000  0.4671010000000 1.0
C      1  0.5501040000000  0.6005810000000  0.4667650000000 1.0
C      1  0.4501670000000  0.4040910000000  0.5337510000000 1.0
C      1  0.5490910000000  0.5947910000000  0.5339070000000 1.0
C      1  0.4861750000000  0.5289270000000  0.4677660000000 1.0
C      1  0.5132500000000  0.4807490000000  0.4776810000000 1.0
C      1  0.4854570000000  0.5290600000000  0.5286150000000 1.0
C      1  0.5148130000000  0.4739980000000  0.5253390000000 1.0
C      1  0.4844530000000  0.4726780000000  0.4734590000000 1.0
C      1  0.5151260000000  0.5343270000000  0.4682750000000 1.0
C      1  0.4852530000000  0.4711110000000  0.5329570000000 1.0
C      1  0.5145950000000  0.5211960000000  0.5255770000000 1.0
C      1  0.5175020000000  0.5788400000000  0.4861830000000 1.0
C      1  0.4804330000000  0.4221850000000  0.4884780000000 1.0
C      1  0.5125350000000  0.5783020000000  0.5165590000000 1.0
C      1  0.4877880000000  0.4206040000000  0.5185980000000 1.0
C      1  0.5105540000000  0.4218830000000  0.4817260000000 1.0
C      1  0.4868430000000  0.5792910000000  0.4816050000000 1.0
C      1  0.5179530000000  0.4214880000000  0.5118500000000 1.0
C      1  0.4819700000000  0.5779850000000  0.5120870000000 1.0
C      1  0.4381570000000  0.4739820000000  0.5270290000000 1.0
C      1  0.5616860000000  0.5272220000000  0.5262620000000 1.0
C      1  0.4378000000000  0.4681790000000  0.4768030000000 1.0
C      1  0.5624280000000  0.5297670000000  0.4757310000000 1.0
C      1  0.4383480000000  0.5294540000000  0.5234800000000 1.0
C      1  0.5621560000000  0.4661400000000  0.5234020000000 1.0
C      1  0.4387450000000  0.5261500000000  0.4728390000000 1.0
C      1  0.5602220000000  0.4750360000000  0.4730530000000 1.0
C      1  0.3871940000000  0.5286040000000  0.5249520000000 1.0
C      1  0.6132580000000  0.4708780000000  0.5250360000000 1.0
C      1  0.3865460000000  0.5282070000000  0.4750250000000 1.0
C      1  0.6133450000000  0.4722790000000  0.4756060000000 1.0
C      1  0.3860700000000  0.4721670000000  0.5245480000000 1.0
C      1  0.6138520000000  0.5289030000000  0.5243520000000 1.0
C      1  0.3865230000000  0.4712070000000  0.4747190000000 1.0
C      1  0.6129950000000  0.5286380000000  0.4746040000000 1.0
C      1  0.5324400000000  0.4711970000000  0.4024250000000 1.0
C      1  0.4689050000000  0.5304740000000  0.3976070000000 1.0
C      1  0.5323650000000  0.4646890000000  0.6000720000000 1.0
C      1  0.4689310000000  0.5350510000000  0.6005630000000 1.0
C      1  0.5332420000000  0.5355500000000  0.3977020000000 1.0
C      1  0.4698980000000  0.4650820000000  0.4004430000000 1.0
C      1  0.5316760000000  0.5303470000000  0.6002620000000 1.0
C      1  0.4696860000000  0.4695230000000  0.6023480000000 1.0
C      1  0.4743030000000  0.4867910000000  0.5560120000000 1.0
C      1  0.5269890000000  0.5119160000000  0.5536430000000 1.0
C      1  0.4724890000000  0.4830050000000  0.4478080000000 1.0
C      1  0.5283610000000  0.5204160000000  0.4455590000000 1.0
C      1  0.4729620000000  0.5180090000000  0.5534940000000 1.0
C      1  0.5283070000000  0.4817970000000  0.5527580000000 1.0
C      1  0.4747000000000  0.5141800000000  0.4443560000000 1.0
C      1  0.5256190000000  0.4902440000000  0.4493870000000 1.0
C      1  0.6093600000000  0.4459990000000  0.4858010000000 1.0
C      1  0.3905810000000  0.5543460000000  0.4854690000000 1.0
C      1  0.6100080000000  0.4443690000000  0.5154910000000 1.0
C      1  0.3905790000000  0.5549960000000  0.5152100000000 1.0
C      1  0.6095180000000  0.5552300000000  0.4840020000000 1.0
C      1  0.3894720000000  0.4448090000000  0.4846260000000 1.0
C      1  0.6098310000000  0.5549580000000  0.5137030000000 1.0
C      1  0.3898560000000  0.4458390000000  0.5143710000000 1.0
C      1  0.5851710000000  0.4423550000000  0.4422550000000 1.0
C      1  0.4149880000000  0.5575590000000  0.4412600000000 1.0
C      1  0.5850860000000  0.4361360000000  0.5601010000000 1.0
C      1  0.4152450000000  0.5627660000000  0.5599170000000 1.0
C      1  0.5849130000000  0.5640560000000  0.4395200000000 1.0
C      1  0.4142140000000  0.4367520000000  0.4399540000000 1.0
C      1  0.5854330000000  0.5587030000000  0.5576250000000 1.0
C      1  0.4142750000000  0.4425080000000  0.5584370000000 1.0
C      1  0.5351780000000  0.4573180000000  0.4784650000000 1.0
C      1  0.4632400000000  0.5449270000000  0.4780940000000 1.0
C      1  0.5350200000000  0.4530390000000  0.5109600000000 1.0
C      1  0.4643260000000  0.5433070000000  0.5114790000000 1.0
C      1  0.5370430000000  0.5450730000000  0.4871130000000 1.0
C      1  0.4644730000000  0.4552980000000  0.4891140000000 1.0
C      1  0.5359760000000  0.5434040000000  0.5195450000000 1.0
C      1  0.4624780000000  0.4552340000000  0.5223550000000 1.0
C      1  0.4125350000000  0.5662760000000  0.4710820000000 1.0
C      1  0.5873900000000  0.4340410000000  0.4716640000000 1.0
C      1  0.4116010000000  0.5693680000000  0.5299260000000 1.0
C      1  0.5880540000000  0.4307940000000  0.5298610000000 1.0
C      1  0.4103720000000  0.4301950000000  0.4698820000000 1.0
C      1  0.5885610000000  0.5700790000000  0.4694620000000 1.0
C      1  0.4118340000000  0.4337400000000  0.5286520000000 1.0
C      1  0.5875790000000  0.5665300000000  0.5278680000000 1.0
C      1  0.4754400000000  0.6054710000000  0.4746500000000 1.0
C      1  0.5225090000000  0.3967140000000  0.4734880000000 1.0
C      1  0.4729580000000  0.6054210000000  0.5188330000000 1.0
C      1  0.5280780000000  0.3937690000000  0.5172440000000 1.0
C      1  0.4712490000000  0.3943670000000  0.4818620000000 1.0
C      1  0.5269840000000  0.6063880000000  0.4807140000000 1.0
C      1  0.4759910000000  0.3950620000000  0.5257920000000 1.0
C      1  0.5238790000000  0.6040770000000  0.5248140000000 1.0
C      1  0.4859860000000  0.4714230000000  0.4246190000000 1.0
C      1  0.5155870000000  0.5284250000000  0.4200760000000 1.0
C      1  0.4875330000000  0.4791860000000  0.5811920000000 1.0
C      1  0.5139180000000  0.5215150000000  0.5787920000000 1.0
C      1  0.4873920000000  0.5218970000000  0.4185040000000 1.0
C      1  0.5141540000000  0.4780190000000  0.4246470000000 1.0
C      1  0.4861490000000  0.5293750000000  0.5772010000000 1.0
C      1  0.5148950000000  0.4705790000000  0.5771000000000 1.0
C      1  0.4578230000000  0.4148640000000  0.4432570000000 1.0
C      1  0.5415510000000  0.5864990000000  0.4423770000000 1.0
C      1  0.4592990000000  0.4280580000000  0.5503130000000 1.0
C      1  0.5388850000000  0.5702900000000  0.5490960000000 1.0
C      1  0.4599780000000  0.5727940000000  0.4490250000000 1.0
C      1  0.5385880000000  0.4306840000000  0.4501360000000 1.0
C      1  0.4583500000000  0.5851290000000  0.5568120000000 1.0
C      1  0.5413170000000  0.4141220000000  0.5564290000000 1.0
C      1  0.5821180000000  0.4751040000000  0.4041490000000 1.0
C      1  0.4199010000000  0.5250390000000  0.4024590000000 1.0
C      1  0.5807080000000  0.4703630000000  0.5964510000000 1.0
C      1  0.4203720000000  0.5290730000000  0.5964840000000 1.0
C      1  0.5816200000000  0.5307730000000  0.4026400000000 1.0
C      1  0.4214410000000  0.4700230000000  0.4039580000000 1.0
C      1  0.5804900000000  0.5261270000000  0.5968600000000 1.0
C      1  0.4211050000000  0.4742800000000  0.5971370000000 1.0
C      1  0.4288410000000  0.5870590000000  0.4846790000000 1.0
C      1  0.5701220000000  0.4139360000000  0.4848260000000 1.0
C      1  0.4282860000000  0.5887460000000  0.5154910000000 1.0
C      1  0.5718460000000  0.4109550000000  0.5154380000000 1.0
C      1  0.4271700000000  0.4109170000000  0.4842730000000 1.0
C      1  0.5715720000000  0.5891980000000  0.4839660000000 1.0
C      1  0.4284580000000  0.4131410000000  0.5149810000000 1.0
C      1  0.5709290000000  0.5871690000000  0.5147460000000 1.0
C      1  0.4472660000000  0.4339680000000  0.4020330000000 1.0
C      1  0.5528800000000  0.5684650000000  0.4008850000000 1.0
C      1  0.4474470000000  0.4385640000000  0.5958740000000 1.0
C      1  0.5523760000000  0.5624970000000  0.5949900000000 1.0
C      1  0.4476260000000  0.5621550000000  0.4035150000000 1.0
C      1  0.5522680000000  0.4382180000000  0.4046060000000 1.0
C      1  0.4475680000000  0.5669450000000  0.5983770000000 1.0
C      1  0.5523380000000  0.4319520000000  0.5981780000000 1.0
C      1  0.5153280000000  0.5829810000000  0.4269620000000 1.0
C      1  0.4840880000000  0.4175950000000  0.4277210000000 1.0
C      1  0.5140150000000  0.5758500000000  0.5690560000000 1.0
C      1  0.4850580000000  0.4232390000000  0.5694530000000 1.0
C      1  0.5136380000000  0.4249180000000  0.4304700000000 1.0
C      1  0.4853920000000  0.5775080000000  0.4295200000000 1.0
C      1  0.5149610000000  0.4171960000000  0.5718550000000 1.0
C      1  0.4844490000000  0.5825300000000  0.5722760000000 1.0
C      1  0.5604050000000  0.5201600000000  0.4478800000000 1.0
C      1  0.4392050000000  0.4792960000000  0.4492980000000 1.0
C      1  0.5597150000000  0.5149910000000  0.5522900000000 1.0
C      1  0.4391600000000  0.4859750000000  0.5533750000000 1.0
C      1  0.5639990000000  0.4874480000000  0.4467170000000 1.0
C      1  0.4401220000000  0.5139080000000  0.4466430000000 1.0
C      1  0.5603240000000  0.4784490000000  0.5504800000000 1.0
C      1  0.4404790000000  0.5195270000000  0.5512050000000 1.0
C      1  0.4378560000000  0.4305310000000  0.5702470000000 1.0
C      1  0.5609680000000  0.5695160000000  0.5686640000000 1.0
C      1  0.4362680000000  0.4224530000000  0.4260790000000 1.0
C      1  0.5635040000000  0.5792210000000  0.4254700000000 1.0
C      1  0.4366410000000  0.5778640000000  0.5739600000000 1.0
C      1  0.5631140000000  0.4212600000000  0.5736600000000 1.0
C      1  0.4382770000000  0.5700650000000  0.4292920000000 1.0
C      1  0.5608130000000  0.4312940000000  0.4309120000000 1.0
C      1  0.5874430000000  0.4823890000000  0.5154330000000 1.0
C      1  0.4123660000000  0.5164430000000  0.5146020000000 1.0
C      1  0.5875660000000  0.4846300000000  0.4844690000000 1.0
C      1  0.4122450000000  0.5157310000000  0.4837780000000 1.0
C      1  0.5880320000000  0.5164630000000  0.5158100000000 1.0
C      1  0.4118680000000  0.4843010000000  0.5155790000000 1.0
C      1  0.5879510000000  0.5165420000000  0.4852420000000 1.0
C      1  0.4121260000000  0.4828560000000  0.4846890000000 1.0
C      1  0.5246650000000  0.5676790000000  0.5948790000000 1.0
C      1  0.4749520000000  0.4322050000000  0.5952630000000 1.0
C      1  0.5249030000000  0.5729450000000  0.4013280000000 1.0
C      1  0.4748650000000  0.4272960000000  0.4017900000000 1.0
C      1  0.5244030000000  0.4271610000000  0.5975750000000 1.0
C      1  0.4753160000000  0.5728100000000  0.5981900000000 1.0
C      1  0.5243840000000  0.4336750000000  0.4048750000000 1.0
C      1  0.4752180000000  0.5678610000000  0.4039860000000 1.0
C      1  0.5162850000000  0.4968580000000  0.5060080000000 1.0
END
