TITL C-3578208-4450-496 -2.94869711039065e-07 125000 -237.110745787217 0 0 40 (C1) n - 1
REM
REM in /home/bkarasulu/work/CARBON/AIRSS/Generating-Clusters/EDIP-Nigel-Params/with-SteepDescent/Higher-Symm/SD-CG/HFTN-CG
REM
REM
REM
REM
REM
REM ./C.cell (12c818d87b63d06a65506943cc24bca4)
REM
REM compiler GCC version 9.2.1 20190827 (Red Hat 9.2.1-1)
REM options -cpp -mtune=generic -march=x86-64 -g -O0 -fpre-include=/usr/include/finclude/math-vector-fortran.h
REM seed -1212352655 -866355829 -1606459491 -703632915 596845796 -639156409 1778107579 -1082739442 -1540405635 -487723052 1902723644 -107995805 -1996501294 -1116979350 1602868381 -1998865951 1819167797 -840846833 -825891430 1351899990 -1118651888 812823214 661581491 -1759431302 911218514 956054720 -123118127 -2090944436 523217211 -1349986736 -1506141767 -1578036941 118833676
REM
CELL 1.54180   50.00000   50.00000   50.00000   90.00000   90.00000   90.00000
LATT -1
SFAC C  
C      1  0.5346180000000  0.4964560000000  0.4449410000000 1.0
C      1  0.5512490000000  0.5134460000000  0.4582200000000 1.0
C      1  0.5087230000000  0.4976850000000  0.5475070000000 1.0
C      1  0.4997530000000  0.4731170000000  0.4883810000000 1.0
C      1  0.4712900000000  0.4778810000000  0.5206850000000 1.0
C      1  0.4497620000000  0.5158970000000  0.5154340000000 1.0
C      1  0.5347680000000  0.5490400000000  0.4857470000000 1.0
C      1  0.4780630000000  0.5503000000000  0.4803050000000 1.0
C      1  0.5520900000000  0.5248420000000  0.4842140000000 1.0
C      1  0.5294940000000  0.5517000000000  0.5355560000000 1.0
C      1  0.4889530000000  0.5095700000000  0.4431440000000 1.0
C      1  0.4758020000000  0.5040040000000  0.5660620000000 1.0
C      1  0.5470310000000  0.4567800000000  0.4837750000000 1.0
C      1  0.4998190000000  0.5219780000000  0.4682720000000 1.0
C      1  0.4504990000000  0.4916770000000  0.4681550000000 1.0
C      1  0.5321700000000  0.5122630000000  0.5326940000000 1.0
C      1  0.4398780000000  0.4965910000000  0.5338470000000 1.0
C      1  0.5466120000000  0.5333830000000  0.5464900000000 1.0
C      1  0.5176500000000  0.5470660000000  0.4616410000000 1.0
C      1  0.5393570000000  0.4618850000000  0.5209980000000 1.0
C      1  0.4620020000000  0.4562340000000  0.5025950000000 1.0
C      1  0.4638140000000  0.4661820000000  0.4746450000000 1.0
C      1  0.4733630000000  0.5304140000000  0.5245020000000 1.0
C      1  0.5172470000000  0.5473240000000  0.5101310000000 1.0
C      1  0.5190760000000  0.4509620000000  0.4998320000000 1.0
C      1  0.4984310000000  0.4738250000000  0.5326170000000 1.0
C      1  0.4452440000000  0.5099000000000  0.4885810000000 1.0
C      1  0.4559910000000  0.4871100000000  0.5548250000000 1.0
C      1  0.4985870000000  0.4664630000000  0.4588410000000 1.0
C      1  0.5106270000000  0.5011540000000  0.4892970000000 1.0
C      1  0.4877940000000  0.5485080000000  0.5072200000000 1.0
C      1  0.5080610000000  0.4872640000000  0.4403650000000 1.0
C      1  0.5537650000000  0.4791060000000  0.5024920000000 1.0
C      1  0.5032220000000  0.4470470000000  0.5418520000000 1.0
C      1  0.4752640000000  0.4319610000000  0.5074090000000 1.0
C      1  0.5379190000000  0.5047730000000  0.5022950000000 1.0
C      1  0.4833630000000  0.5265670000000  0.5509330000000 1.0
C      1  0.5014110000000  0.4325380000000  0.5172940000000 1.0
C      1  0.4952250000000  0.5650040000000  0.4630370000000 1.0
C      1  0.4620160000000  0.5021050000000  0.4451670000000 1.0
END
