TITL C-3577088-510-503 -1.3359800791514e-06 125000 -245.191252762166 0 0 40 (C1) n - 1
REM
REM in /home/bkarasulu/work/CARBON/AIRSS/Generating-Clusters/EDIP-Nigel-Params/with-SteepDescent/Higher-Symm/SD-CG/HFTN-CG
REM
REM
REM
REM
REM
REM ./C.cell (12c818d87b63d06a65506943cc24bca4)
REM
REM compiler GCC version 9.2.1 20190827 (Red Hat 9.2.1-1)
REM options -cpp -mtune=generic -march=x86-64 -g -O0 -fpre-include=/usr/include/finclude/math-vector-fortran.h
REM seed 1821741156 -564946121 680613727 290730953 853159837 -1516976606 -1331920384 231910391 -765697450 -1883767543 1097569569 -1936194102 959536373 1487341749 -1637959895 -465556163 -1071776167 817016127 1700913720 1486852445 254419959 103189719 -56972439 1013396841 532744552 -316726807 -903066364 60650510 1768860825 1632808425 -1882124533 -416062774 -1603912232
REM
CELL 1.54180   50.00000   50.00000   50.00000   90.00000   90.00000   90.00000
LATT -1
SFAC C  
C      1  0.5512140000000  0.4918190000000  0.5286040000000 1.0
C      1  0.4490400000000  0.5089270000000  0.4709830000000 1.0
C      1  0.4910300000000  0.5013590000000  0.4889850000000 1.0
C      1  0.5092860000000  0.4988230000000  0.5105350000000 1.0
C      1  0.5384570000000  0.5380980000000  0.5245190000000 1.0
C      1  0.4610610000000  0.4624680000000  0.4745460000000 1.0
C      1  0.5374430000000  0.4493090000000  0.5213780000000 1.0
C      1  0.4634330000000  0.5509420000000  0.4799290000000 1.0
C      1  0.4795470000000  0.4562140000000  0.4527430000000 1.0
C      1  0.5189370000000  0.5443000000000  0.5461540000000 1.0
C      1  0.5470450000000  0.5104950000000  0.4807590000000 1.0
C      1  0.4529840000000  0.4894540000000  0.5181110000000 1.0
C      1  0.5170350000000  0.5418930000000  0.4716740000000 1.0
C      1  0.4832680000000  0.4583780000000  0.5277050000000 1.0
C      1  0.4966300000000  0.5194360000000  0.4662630000000 1.0
C      1  0.5036040000000  0.4809700000000  0.5333910000000 1.0
C      1  0.4936130000000  0.4771920000000  0.4411360000000 1.0
C      1  0.5059620000000  0.5230690000000  0.5587000000000 1.0
C      1  0.4842720000000  0.4363450000000  0.5078830000000 1.0
C      1  0.5165980000000  0.5612200000000  0.4939470000000 1.0
C      1  0.5061660000000  0.4324630000000  0.4888590000000 1.0
C      1  0.4950370000000  0.5627990000000  0.5137170000000 1.0
C      1  0.4675110000000  0.5289470000000  0.4632920000000 1.0
C      1  0.5328480000000  0.4719450000000  0.5369660000000 1.0
C      1  0.4680940000000  0.5551500000000  0.5071810000000 1.0
C      1  0.5315120000000  0.4453310000000  0.4942740000000 1.0
C      1  0.4619040000000  0.4391250000000  0.4908160000000 1.0
C      1  0.5419990000000  0.5609590000000  0.5072080000000 1.0
C      1  0.5439050000000  0.5348780000000  0.4666570000000 1.0
C      1  0.4561660000000  0.4649290000000  0.5316230000000 1.0
C      1  0.4892600000000  0.5025170000000  0.5499680000000 1.0
C      1  0.5104620000000  0.4978620000000  0.4492380000000 1.0
C      1  0.4633800000000  0.5111340000000  0.5356910000000 1.0
C      1  0.5361310000000  0.4888310000000  0.4634070000000 1.0
C      1  0.5394530000000  0.4627280000000  0.4738220000000 1.0
C      1  0.4579620000000  0.5373710000000  0.5262450000000 1.0
C      1  0.5029700000000  0.5671380000000  0.5407200000000 1.0
C      1  0.4945810000000  0.4348400000000  0.4631240000000 1.0
C      1  0.5371910000000  0.5100950000000  0.5108380000000 1.0
C      1  0.4630060000000  0.4902460000000  0.4884100000000 1.0
END
