TITL C-3578205-846-344 3.25008447875354e-06 125000 -1205.37967124917 0 0 192 (C1) n - 1
REM
REM in /home/bkarasulu/work/CARBON/AIRSS/Generating-Clusters/EDIP-Nigel-Params/with-SteepDescent/Higher-Symm/SD-CG/HFTN-CG
REM
REM
REM
REM
REM
REM ./C.cell (12c818d87b63d06a65506943cc24bca4)
REM
REM compiler GCC version 9.2.1 20190827 (Red Hat 9.2.1-1)
REM options -cpp -mtune=generic -march=x86-64 -g -O0 -fpre-include=/usr/include/finclude/math-vector-fortran.h
REM seed 2011001779 -376513439 -1106481407 1870593388 199307734 1331532308 881957088 1110791756 -1596836642 -1484367646 -371550689 -646239482 462150373 766250869 -1127539867 -462619761 -964099781 1577798443 -550214424 -259414608 -1014808345 1995938556 -538258687 1618228988 -849670197 -2050324965 -1675323266 1299260797 42106121 1850421392 557242318 -1314551836 -983551302
REM
CELL 1.54180   50.00000   50.00000   50.00000   90.00000   90.00000   90.00000
LATT -1
SFAC C  
C      1  0.5787250000000  0.5633100000000  0.5338600000000 1.0
C      1  0.5385400000000  0.5708120000000  0.4111250000000 1.0
C      1  0.4127020000000  0.5745600000000  0.4627750000000 1.0
C      1  0.4614840000000  0.5713040000000  0.5870970000000 1.0
C      1  0.5888510000000  0.4244760000000  0.5432460000000 1.0
C      1  0.5436740000000  0.4238680000000  0.4129620000000 1.0
C      1  0.4145170000000  0.4282460000000  0.4598520000000 1.0
C      1  0.4587540000000  0.4246650000000  0.5910750000000 1.0
C      1  0.5775690000000  0.5112410000000  0.4186650000000 1.0
C      1  0.4187010000000  0.5163040000000  0.4187720000000 1.0
C      1  0.4162980000000  0.5144310000000  0.5859550000000 1.0
C      1  0.5809390000000  0.5139510000000  0.5797350000000 1.0
C      1  0.5823000000000  0.4835770000000  0.4185640000000 1.0
C      1  0.4183990000000  0.4872950000000  0.4162870000000 1.0
C      1  0.4178080000000  0.4854910000000  0.5851310000000 1.0
C      1  0.5783220000000  0.4861970000000  0.5757440000000 1.0
C      1  0.5714450000000  0.4802250000000  0.5328260000000 1.0
C      1  0.5386170000000  0.4813050000000  0.4217510000000 1.0
C      1  0.4335410000000  0.4867990000000  0.4571080000000 1.0
C      1  0.4594130000000  0.4814990000000  0.5716920000000 1.0
C      1  0.5655790000000  0.5088550000000  0.5235730000000 1.0
C      1  0.5334380000000  0.5125880000000  0.4175980000000 1.0
C      1  0.4316250000000  0.5171540000000  0.4607120000000 1.0
C      1  0.4555860000000  0.5128200000000  0.5669990000000 1.0
C      1  0.5357030000000  0.5371030000000  0.4398600000000 1.0
C      1  0.4555330000000  0.5338730000000  0.4717490000000 1.0
C      1  0.4697030000000  0.5243530000000  0.5409300000000 1.0
C      1  0.5389090000000  0.5184370000000  0.5133120000000 1.0
C      1  0.5319750000000  0.4639710000000  0.4474810000000 1.0
C      1  0.4566980000000  0.4708950000000  0.4691130000000 1.0
C      1  0.4696850000000  0.4614340000000  0.5493100000000 1.0
C      1  0.5481460000000  0.4610120000000  0.5311770000000 1.0
C      1  0.4589920000000  0.4418410000000  0.4429640000000 1.0
C      1  0.4440600000000  0.4375750000000  0.5457730000000 1.0
C      1  0.5442570000000  0.4370300000000  0.5608920000000 1.0
C      1  0.5592350000000  0.4378760000000  0.4574530000000 1.0
C      1  0.4585890000000  0.5612200000000  0.4486660000000 1.0
C      1  0.4390620000000  0.5670660000000  0.5441320000000 1.0
C      1  0.5356930000000  0.5550030000000  0.5566990000000 1.0
C      1  0.5620770000000  0.5693860000000  0.4529260000000 1.0
C      1  0.5102310000000  0.5293890000000  0.6028840000000 1.0
C      1  0.5980320000000  0.5310840000000  0.4892380000000 1.0
C      1  0.4889530000000  0.5327920000000  0.3988570000000 1.0
C      1  0.4015020000000  0.5320380000000  0.5118940000000 1.0
C      1  0.5100480000000  0.4680550000000  0.6043100000000 1.0
C      1  0.5966000000000  0.4725820000000  0.4930640000000 1.0
C      1  0.4930830000000  0.4726450000000  0.3990180000000 1.0
C      1  0.4019210000000  0.4719910000000  0.5117290000000 1.0
C      1  0.5266940000000  0.4061570000000  0.4857710000000 1.0
C      1  0.4839070000000  0.4088410000000  0.4741670000000 1.0
C      1  0.4734520000000  0.4047990000000  0.5205460000000 1.0
C      1  0.5168610000000  0.4035320000000  0.5290430000000 1.0
C      1  0.5236870000000  0.5943730000000  0.4794090000000 1.0
C      1  0.4800120000000  0.5990520000000  0.4717890000000 1.0
C      1  0.4707380000000  0.5985230000000  0.5190980000000 1.0
C      1  0.5135210000000  0.5900460000000  0.5266330000000 1.0
C      1  0.4934980000000  0.4380140000000  0.4800230000000 1.0
C      1  0.4745550000000  0.4394870000000  0.5047020000000 1.0
C      1  0.5068390000000  0.4326670000000  0.5244410000000 1.0
C      1  0.5191190000000  0.4347970000000  0.4958790000000 1.0
C      1  0.4855310000000  0.5722050000000  0.4823040000000 1.0
C      1  0.4756580000000  0.5690700000000  0.5085570000000 1.0
C      1  0.5012360000000  0.5607390000000  0.5222380000000 1.0
C      1  0.5138600000000  0.5640210000000  0.4799440000000 1.0
C      1  0.5490090000000  0.4774920000000  0.4848190000000 1.0
C      1  0.4905790000000  0.4790560000000  0.4430410000000 1.0
C      1  0.4476120000000  0.4802450000000  0.5135610000000 1.0
C      1  0.5162090000000  0.4714090000000  0.5602390000000 1.0
C      1  0.5524210000000  0.5315980000000  0.4735660000000 1.0
C      1  0.4913920000000  0.5262410000000  0.4466870000000 1.0
C      1  0.4470860000000  0.5293460000000  0.5222200000000 1.0
C      1  0.5191480000000  0.5281200000000  0.5570860000000 1.0
C      1  0.5657480000000  0.4331040000000  0.4884230000000 1.0
C      1  0.4881290000000  0.4325990000000  0.4319000000000 1.0
C      1  0.4303400000000  0.4271190000000  0.5194720000000 1.0
C      1  0.5139150000000  0.4281200000000  0.5714260000000 1.0
C      1  0.5673210000000  0.5718180000000  0.4811740000000 1.0
C      1  0.4883780000000  0.5696650000000  0.4346300000000 1.0
C      1  0.4261150000000  0.5789590000000  0.5195710000000 1.0
C      1  0.5155700000000  0.5719180000000  0.5716520000000 1.0
C      1  0.4434990000000  0.6019920000000  0.5074250000000 1.0
C      1  0.5056500000000  0.5958020000000  0.5550740000000 1.0
C      1  0.5506890000000  0.5940820000000  0.4927200000000 1.0
C      1  0.4931000000000  0.5988310000000  0.4439370000000 1.0
C      1  0.4476120000000  0.4053070000000  0.5074900000000 1.0
C      1  0.5064250000000  0.4010040000000  0.5574350000000 1.0
C      1  0.5547960000000  0.4045200000000  0.4957880000000 1.0
C      1  0.4944920000000  0.4050970000000  0.4463830000000 1.0
C      1  0.4746320000000  0.4863680000000  0.4184370000000 1.0
C      1  0.4215240000000  0.4858830000000  0.5295630000000 1.0
C      1  0.5288940000000  0.4814930000000  0.5856400000000 1.0
C      1  0.5775270000000  0.4845010000000  0.4727740000000 1.0
C      1  0.4743810000000  0.5185270000000  0.4204500000000 1.0
C      1  0.4201030000000  0.5184790000000  0.5308530000000 1.0
C      1  0.5287680000000  0.5154580000000  0.5844010000000 1.0
C      1  0.5801400000000  0.5177780000000  0.4696380000000 1.0
C      1  0.6091410000000  0.4866620000000  0.5330570000000 1.0
C      1  0.5355790000000  0.4792380000000  0.3882910000000 1.0
C      1  0.4037240000000  0.4830940000000  0.4689670000000 1.0
C      1  0.4691860000000  0.4843980000000  0.6034290000000 1.0
C      1  0.5958150000000  0.5159010000000  0.5308990000000 1.0
C      1  0.5366230000000  0.5122330000000  0.3848610000000 1.0
C      1  0.4002600000000  0.5157640000000  0.4708240000000 1.0
C      1  0.4687160000000  0.5162490000000  0.5968650000000 1.0
C      1  0.5589520000000  0.5527640000000  0.5754870000000 1.0
C      1  0.5762340000000  0.5529310000000  0.4341110000000 1.0
C      1  0.4395020000000  0.5557100000000  0.4275120000000 1.0
C      1  0.4221760000000  0.5555520000000  0.5647850000000 1.0
C      1  0.5640650000000  0.4442250000000  0.5813530000000 1.0
C      1  0.5808620000000  0.4434800000000  0.4392700000000 1.0
C      1  0.4396350000000  0.4471280000000  0.4223980000000 1.0
C      1  0.4240180000000  0.4463300000000  0.5645670000000 1.0
C      1  0.5567880000000  0.5274100000000  0.5890760000000 1.0
C      1  0.5868440000000  0.5265800000000  0.4412930000000 1.0
C      1  0.4451040000000  0.5285960000000  0.4201910000000 1.0
C      1  0.4145760000000  0.5278610000000  0.5596580000000 1.0
C      1  0.5579520000000  0.4716160000000  0.5896370000000 1.0
C      1  0.5856060000000  0.4714590000000  0.4446570000000 1.0
C      1  0.4451800000000  0.4748240000000  0.4163340000000 1.0
C      1  0.4180320000000  0.4738490000000  0.5584220000000 1.0
C      1  0.5376300000000  0.5464830000000  0.5020630000000 1.0
C      1  0.5085470000000  0.5513760000000  0.4496610000000 1.0
C      1  0.4502780000000  0.5494990000000  0.4997300000000 1.0
C      1  0.4873300000000  0.5490520000000  0.5472570000000 1.0
C      1  0.5454610000000  0.4525200000000  0.5006200000000 1.0
C      1  0.5024720000000  0.4526870000000  0.4491450000000 1.0
C      1  0.4496420000000  0.4569580000000  0.4949440000000 1.0
C      1  0.4994840000000  0.4481210000000  0.5529260000000 1.0
C      1  0.5028110000000  0.5572660000000  0.5948770000000 1.0
C      1  0.5924910000000  0.5600980000000  0.4920580000000 1.0
C      1  0.4934250000000  0.5615100000000  0.4050320000000 1.0
C      1  0.4075580000000  0.5602180000000  0.5043140000000 1.0
C      1  0.5052310000000  0.4389340000000  0.5994120000000 1.0
C      1  0.5933480000000  0.4434120000000  0.4968180000000 1.0
C      1  0.4974080000000  0.4432800000000  0.4040150000000 1.0
C      1  0.4090610000000  0.4438080000000  0.5045600000000 1.0
C      1  0.3972920000000  0.4336770000000  0.4812180000000 1.0
C      1  0.4809300000000  0.4282710000000  0.6079610000000 1.0
C      1  0.6030040000000  0.4316930000000  0.5201240000000 1.0
C      1  0.5218910000000  0.4317990000000  0.3968810000000 1.0
C      1  0.3932210000000  0.5702690000000  0.4824430000000 1.0
C      1  0.4811530000000  0.5695470000000  0.6070810000000 1.0
C      1  0.5996200000000  0.5710930000000  0.5166920000000 1.0
C      1  0.5164790000000  0.5728210000000  0.3939270000000 1.0
C      1  0.4611110000000  0.4199350000000  0.5625090000000 1.0
C      1  0.5600310000000  0.4205970000000  0.5417260000000 1.0
C      1  0.5403680000000  0.4213100000000  0.4418260000000 1.0
C      1  0.4429840000000  0.4299110000000  0.4669370000000 1.0
C      1  0.4663160000000  0.5721050000000  0.5573920000000 1.0
C      1  0.5492150000000  0.5636070000000  0.5281770000000 1.0
C      1  0.5399330000000  0.5808600000000  0.4381220000000 1.0
C      1  0.4409410000000  0.5753140000000  0.4718910000000 1.0
C      1  0.5006560000000  0.4844650000000  0.6258910000000 1.0
C      1  0.6211780000000  0.4872060000000  0.4966630000000 1.0
C      1  0.5005920000000  0.4885620000000  0.3761440000000 1.0
C      1  0.3812210000000  0.4882090000000  0.5000090000000 1.0
C      1  0.4973220000000  0.5128160000000  0.6227340000000 1.0
C      1  0.6194680000000  0.5156410000000  0.5011980000000 1.0
C      1  0.4996120000000  0.5176150000000  0.3766250000000 1.0
C      1  0.3791910000000  0.5165100000000  0.5030850000000 1.0
C      1  0.5234080000000  0.4023460000000  0.4552200000000 1.0
C      1  0.4542610000000  0.4055330000000  0.4780600000000 1.0
C      1  0.4774670000000  0.4007220000000  0.5492180000000 1.0
C      1  0.5471640000000  0.4009750000000  0.5248800000000 1.0
C      1  0.5226700000000  0.6009290000000  0.4502360000000 1.0
C      1  0.4501410000000  0.6027740000000  0.4771610000000 1.0
C      1  0.4759370000000  0.5989330000000  0.5492640000000 1.0
C      1  0.5431370000000  0.5915680000000  0.5217350000000 1.0
C      1  0.5641360000000  0.5260420000000  0.3964570000000 1.0
C      1  0.4012600000000  0.5302300000000  0.4398220000000 1.0
C      1  0.4394580000000  0.5285010000000  0.5995810000000 1.0
C      1  0.5973680000000  0.5285670000000  0.5599270000000 1.0
C      1  0.5669930000000  0.4666700000000  0.3994150000000 1.0
C      1  0.4025230000000  0.4721040000000  0.4378870000000 1.0
C      1  0.4382130000000  0.4709590000000  0.6027700000000 1.0
C      1  0.5980380000000  0.4711930000000  0.5602010000000 1.0
C      1  0.4366360000000  0.5568730000000  0.5908570000000 1.0
C      1  0.5847760000000  0.5550240000000  0.5607380000000 1.0
C      1  0.5618670000000  0.5533140000000  0.4082600000000 1.0
C      1  0.4117650000000  0.5585310000000  0.4381590000000 1.0
C      1  0.4355270000000  0.4429450000000  0.5921660000000 1.0
C      1  0.5908750000000  0.4426260000000  0.5665330000000 1.0
C      1  0.5690900000000  0.4393930000000  0.4113520000000 1.0
C      1  0.4122090000000  0.4437940000000  0.4346570000000 1.0
C      1  0.5312310000000  0.5136390000000  0.4617100000000 1.0
C      1  0.4806080000000  0.5175310000000  0.4716020000000 1.0
C      1  0.4876640000000  0.5052890000000  0.5268930000000 1.0
C      1  0.5179110000000  0.5086960000000  0.5323940000000 1.0
C      1  0.5241560000000  0.4859770000000  0.4701760000000 1.0
C      1  0.4854560000000  0.4880680000000  0.4713070000000 1.0
C      1  0.4743490000000  0.4783980000000  0.5248240000000 1.0
C      1  0.5273400000000  0.4810670000000  0.5373510000000 1.0
END
