TITL C-3578196-9646-258 7.32186112964197e-07 125000 -593.817129046928 0 0 95 (C1) n - 1
REM
REM in /home/bkarasulu/work/CARBON/AIRSS/Generating-Clusters/EDIP-Nigel-Params/with-SteepDescent/Higher-Symm/SD-CG/HFTN-CG
REM
REM
REM
REM
REM
REM ./C.cell (12c818d87b63d06a65506943cc24bca4)
REM
REM compiler GCC version 9.2.1 20190827 (Red Hat 9.2.1-1)
REM options -cpp -mtune=generic -march=x86-64 -g -O0 -fpre-include=/usr/include/finclude/math-vector-fortran.h
REM seed -1181165028 412071125 -885008978 1869201571 -1978555672 -1242659420 845005077 -1819242675 704463772 -761993963 1740856661 -1527365921 -590971538 211866633 -161756059 753771519 -1777952239 -337039340 -38302157 -946515012 1847101681 1291841736 -851101694 -1738219901 103796905 1851138797 888956442 -1763164829 2042931559 -2120387824 -1902167486 138264133 10088192
REM
CELL 1.54180   50.00000   50.00000   50.00000   90.00000   90.00000   90.00000
LATT -1
SFAC C  
C      1  0.5205100000000  0.4739820000000  0.5654660000000 1.0
C      1  0.4803670000000  0.5245300000000  0.4321940000000 1.0
C      1  0.4415480000000  0.5448900000000  0.5326570000000 1.0
C      1  0.5601450000000  0.4521290000000  0.4663910000000 1.0
C      1  0.4999830000000  0.4589200000000  0.4861730000000 1.0
C      1  0.5021250000000  0.5523760000000  0.5164510000000 1.0
C      1  0.5128020000000  0.4890970000000  0.4165350000000 1.0
C      1  0.4925270000000  0.5132370000000  0.5780590000000 1.0
C      1  0.4387430000000  0.4510500000000  0.4936950000000 1.0
C      1  0.5647860000000  0.5539890000000  0.5112980000000 1.0
C      1  0.5194490000000  0.4749080000000  0.4712480000000 1.0
C      1  0.4874040000000  0.5290350000000  0.5267590000000 1.0
C      1  0.4005100000000  0.4847620000000  0.4685730000000 1.0
C      1  0.5962660000000  0.5158140000000  0.5341280000000 1.0
C      1  0.5696880000000  0.4824250000000  0.5048570000000 1.0
C      1  0.4266350000000  0.5135090000000  0.4991760000000 1.0
C      1  0.5736910000000  0.5309960000000  0.4960930000000 1.0
C      1  0.4203200000000  0.4673360000000  0.5090850000000 1.0
C      1  0.5231480000000  0.5430170000000  0.4995350000000 1.0
C      1  0.4910750000000  0.4765750000000  0.5097240000000 1.0
C      1  0.4900710000000  0.4313120000000  0.4764420000000 1.0
C      1  0.5097350000000  0.5794880000000  0.5272350000000 1.0
C      1  0.4697250000000  0.5469650000000  0.4499690000000 1.0
C      1  0.5282160000000  0.4519820000000  0.5467130000000 1.0
C      1  0.5625840000000  0.5271450000000  0.4702790000000 1.0
C      1  0.4296050000000  0.4707030000000  0.5370300000000 1.0
C      1  0.5042200000000  0.4369430000000  0.5345530000000 1.0
C      1  0.4906770000000  0.5592200000000  0.4685890000000 1.0
C      1  0.5119670000000  0.5385150000000  0.4726800000000 1.0
C      1  0.4795860000000  0.4547830000000  0.5291360000000 1.0
C      1  0.4493000000000  0.4978440000000  0.5700390000000 1.0
C      1  0.5540110000000  0.5030980000000  0.4322440000000 1.0
C      1  0.5687500000000  0.4403210000000  0.5145390000000 1.0
C      1  0.4281090000000  0.5414660000000  0.4865150000000 1.0
C      1  0.5390280000000  0.4787150000000  0.4254480000000 1.0
C      1  0.4654200000000  0.5228140000000  0.5722660000000 1.0
C      1  0.4485520000000  0.4386570000000  0.4467760000000 1.0
C      1  0.5496420000000  0.5668100000000  0.5559590000000 1.0
C      1  0.4942710000000  0.4431310000000  0.4305780000000 1.0
C      1  0.5042660000000  0.5619720000000  0.5696360000000 1.0
C      1  0.4244930000000  0.5257760000000  0.4406490000000 1.0
C      1  0.5734480000000  0.4762440000000  0.5428310000000 1.0
C      1  0.4300020000000  0.4976650000000  0.5477670000000 1.0
C      1  0.5648950000000  0.5011880000000  0.4589690000000 1.0
C      1  0.5356400000000  0.5200460000000  0.5155550000000 1.0
C      1  0.4639970000000  0.4838780000000  0.4646120000000 1.0
C      1  0.4752860000000  0.4329050000000  0.4501730000000 1.0
C      1  0.5241400000000  0.5776550000000  0.5545260000000 1.0
C      1  0.5496380000000  0.4100270000000  0.4994980000000 1.0
C      1  0.4483940000000  0.5839330000000  0.5006190000000 1.0
C      1  0.4735640000000  0.5958730000000  0.5033360000000 1.0
C      1  0.5222900000000  0.4023210000000  0.4954700000000 1.0
C      1  0.4431880000000  0.4602750000000  0.4646550000000 1.0
C      1  0.5599670000000  0.5468760000000  0.5397140000000 1.0
C      1  0.5863770000000  0.5083160000000  0.5088790000000 1.0
C      1  0.4072330000000  0.4903860000000  0.4951650000000 1.0
C      1  0.4837130000000  0.5936930000000  0.5310260000000 1.0
C      1  0.5132530000000  0.4138310000000  0.4699310000000 1.0
C      1  0.4579710000000  0.4369980000000  0.5131980000000 1.0
C      1  0.5431610000000  0.5650250000000  0.4915960000000 1.0
C      1  0.4532600000000  0.4547460000000  0.5480100000000 1.0
C      1  0.5410730000000  0.5443850000000  0.4579990000000 1.0
C      1  0.5388370000000  0.4912440000000  0.4990320000000 1.0
C      1  0.4545930000000  0.5060420000000  0.4846450000000 1.0
C      1  0.4429180000000  0.5351540000000  0.4609500000000 1.0
C      1  0.5569410000000  0.4541860000000  0.5363810000000 1.0
C      1  0.4340930000000  0.4998470000000  0.4362980000000 1.0
C      1  0.5621220000000  0.4980880000000  0.5568040000000 1.0
C      1  0.5753810000000  0.5239730000000  0.5514070000000 1.0
C      1  0.4219220000000  0.4778110000000  0.4521120000000 1.0
C      1  0.5092650000000  0.5175260000000  0.4249280000000 1.0
C      1  0.4941120000000  0.4860450000000  0.5668210000000 1.0
C      1  0.4958830000000  0.5863210000000  0.4843110000000 1.0
C      1  0.5012150000000  0.4122740000000  0.5161610000000 1.0
C      1  0.4668990000000  0.5412440000000  0.5478820000000 1.0
C      1  0.5359750000000  0.4597080000000  0.4496590000000 1.0
C      1  0.5730880000000  0.4771590000000  0.4745190000000 1.0
C      1  0.4307510000000  0.5187840000000  0.5278030000000 1.0
C      1  0.4962590000000  0.4915190000000  0.4571000000000 1.0
C      1  0.5119580000000  0.5149200000000  0.5385990000000 1.0
C      1  0.4781990000000  0.5674120000000  0.5566210000000 1.0
C      1  0.5207210000000  0.4359800000000  0.4409380000000 1.0
C      1  0.5405260000000  0.4920480000000  0.5732810000000 1.0
C      1  0.4634440000000  0.4994890000000  0.4293580000000 1.0
C      1  0.5366030000000  0.5282920000000  0.4313030000000 1.0
C      1  0.4671650000000  0.4739680000000  0.5673240000000 1.0
C      1  0.5173000000000  0.4861400000000  0.5232140000000 1.0
C      1  0.4983260000000  0.5129600000000  0.4778020000000 1.0
C      1  0.4898170000000  0.4719630000000  0.4237280000000 1.0
C      1  0.5122270000000  0.5337050000000  0.5718060000000 1.0
C      1  0.5235120000000  0.5878340000000  0.5002320000000 1.0
C      1  0.4761330000000  0.4175920000000  0.4995950000000 1.0
C      1  0.5531960000000  0.4373910000000  0.4909960000000 1.0
C      1  0.4425890000000  0.5572870000000  0.5059990000000 1.0
C      1  0.4803500000000  0.5076690000000  0.5013450000000 1.0
END
