TITL C-3578207-9274-837 -4.35168076819689e-07 125000 -852.251521588975 0 0 135 (C1) n - 1
REM
REM in /home/bkarasulu/work/CARBON/AIRSS/Generating-Clusters/EDIP-Nigel-Params/with-SteepDescent/Higher-Symm/SD-CG/HFTN-CG
REM
REM
REM
REM
REM
REM ./C.cell (12c818d87b63d06a65506943cc24bca4)
REM
REM compiler GCC version 9.2.1 20190827 (Red Hat 9.2.1-1)
REM options -cpp -mtune=generic -march=x86-64 -g -O0 -fpre-include=/usr/include/finclude/math-vector-fortran.h
REM seed -1815306714 -172573893 -1534657676 533401095 374650929 167984460 -1391591229 -1444774359 -648715591 -1862834712 1245324197 1262214312 -1110348902 757983351 761939571 -308033064 -58097274 1856631256 -796425544 1902692427 -982184028 -49940349 -1734396501 -177294686 -963157384 2021106023 636156493 1891818402 -1151496965 -1052961445 -612037116 -497356432 -1274553782
REM
CELL 1.54180   50.00000   50.00000   50.00000   90.00000   90.00000   90.00000
LATT -1
SFAC C  
C      1  0.4133470000000  0.4610830000000  0.5395550000000 1.0
C      1  0.5785170000000  0.5401800000000  0.5413250000000 1.0
C      1  0.5763730000000  0.4616270000000  0.4549900000000 1.0
C      1  0.4276790000000  0.5413980000000  0.4576300000000 1.0
C      1  0.5600520000000  0.4188060000000  0.5310330000000 1.0
C      1  0.4435350000000  0.5833080000000  0.5277220000000 1.0
C      1  0.4419930000000  0.4172270000000  0.4734530000000 1.0
C      1  0.5596410000000  0.5832330000000  0.4649090000000 1.0
C      1  0.4631450000000  0.5214310000000  0.4757920000000 1.0
C      1  0.5367790000000  0.4785660000000  0.4740080000000 1.0
C      1  0.5373590000000  0.5253960000000  0.5236500000000 1.0
C      1  0.4586130000000  0.4714210000000  0.5312460000000 1.0
C      1  0.5558440000000  0.5288840000000  0.5573700000000 1.0
C      1  0.4323020000000  0.4736800000000  0.5581330000000 1.0
C      1  0.4516800000000  0.5277810000000  0.4451380000000 1.0
C      1  0.5492650000000  0.4714660000000  0.4455980000000 1.0
C      1  0.5146550000000  0.6146040000000  0.4890550000000 1.0
C      1  0.4880610000000  0.3880660000000  0.4953490000000 1.0
C      1  0.4903840000000  0.6152360000000  0.5077050000000 1.0
C      1  0.5138210000000  0.3910200000000  0.5097520000000 1.0
C      1  0.5631620000000  0.4996240000000  0.4277540000000 1.0
C      1  0.4381930000000  0.5010190000000  0.4256260000000 1.0
C      1  0.4252720000000  0.4998660000000  0.5693130000000 1.0
C      1  0.5649620000000  0.5028670000000  0.5694540000000 1.0
C      1  0.5081240000000  0.4854930000000  0.4749100000000 1.0
C      1  0.4936690000000  0.5268580000000  0.4807100000000 1.0
C      1  0.4910750000000  0.4699200000000  0.5200380000000 1.0
C      1  0.5087870000000  0.5177910000000  0.5207340000000 1.0
C      1  0.4803320000000  0.4104940000000  0.5386160000000 1.0
C      1  0.5242260000000  0.5920390000000  0.5314320000000 1.0
C      1  0.5278480000000  0.4040640000000  0.4633660000000 1.0
C      1  0.4797370000000  0.5926560000000  0.4660550000000 1.0
C      1  0.5660390000000  0.4399480000000  0.4923240000000 1.0
C      1  0.4240540000000  0.5851580000000  0.4835460000000 1.0
C      1  0.4287690000000  0.4309180000000  0.5197730000000 1.0
C      1  0.5684610000000  0.5629020000000  0.5044560000000 1.0
C      1  0.5031130000000  0.4445910000000  0.4348880000000 1.0
C      1  0.4998040000000  0.5493360000000  0.4293920000000 1.0
C      1  0.5051250000000  0.4487090000000  0.5737940000000 1.0
C      1  0.5029580000000  0.5471040000000  0.5674330000000 1.0
C      1  0.4192050000000  0.4857250000000  0.4421180000000 1.0
C      1  0.5814260000000  0.5160410000000  0.4446660000000 1.0
C      1  0.5820800000000  0.4859520000000  0.5512460000000 1.0
C      1  0.4119780000000  0.5186870000000  0.5505840000000 1.0
C      1  0.4257370000000  0.5600980000000  0.5277590000000 1.0
C      1  0.5793920000000  0.4413620000000  0.5325540000000 1.0
C      1  0.5796820000000  0.5609720000000  0.4635310000000 1.0
C      1  0.4260380000000  0.4462710000000  0.4699910000000 1.0
C      1  0.5402700000000  0.5695490000000  0.5426930000000 1.0
C      1  0.4652450000000  0.4325270000000  0.5518260000000 1.0
C      1  0.4635710000000  0.5713200000000  0.4558470000000 1.0
C      1  0.5457480000000  0.4233310000000  0.4481570000000 1.0
C      1  0.5120500000000  0.4699690000000  0.5415510000000 1.0
C      1  0.4917790000000  0.5189510000000  0.5442450000000 1.0
C      1  0.4882170000000  0.4729730000000  0.4560780000000 1.0
C      1  0.5148850000000  0.5286470000000  0.4584650000000 1.0
C      1  0.5916690000000  0.5081110000000  0.4710920000000 1.0
C      1  0.4130140000000  0.4947710000000  0.4692410000000 1.0
C      1  0.4074420000000  0.5095040000000  0.5228820000000 1.0
C      1  0.5914610000000  0.4940160000000  0.5244510000000 1.0
C      1  0.4524840000000  0.5397110000000  0.5655300000000 1.0
C      1  0.5516510000000  0.4574560000000  0.5711800000000 1.0
C      1  0.5504070000000  0.5468950000000  0.4264590000000 1.0
C      1  0.4535590000000  0.4554010000000  0.4297080000000 1.0
C      1  0.4083870000000  0.4801740000000  0.5169040000000 1.0
C      1  0.5869130000000  0.5232130000000  0.5179200000000 1.0
C      1  0.5868990000000  0.4786860000000  0.4776740000000 1.0
C      1  0.4125170000000  0.5238330000000  0.4756570000000 1.0
C      1  0.5618730000000  0.5903930000000  0.4928200000000 1.0
C      1  0.4421700000000  0.4092040000000  0.5030310000000 1.0
C      1  0.4407810000000  0.5982310000000  0.5021950000000 1.0
C      1  0.5582760000000  0.4124990000000  0.5026590000000 1.0
C      1  0.5682300000000  0.5662060000000  0.5335790000000 1.0
C      1  0.4368100000000  0.4313120000000  0.5480090000000 1.0
C      1  0.4381140000000  0.5662720000000  0.4682600000000 1.0
C      1  0.5702420000000  0.4343120000000  0.4631110000000 1.0
C      1  0.4562020000000  0.4968250000000  0.5157160000000 1.0
C      1  0.5491110000000  0.5005020000000  0.5138510000000 1.0
C      1  0.5500920000000  0.5022750000000  0.4843940000000 1.0
C      1  0.4571640000000  0.4945550000000  0.4865840000000 1.0
C      1  0.4479310000000  0.5143660000000  0.5815860000000 1.0
C      1  0.5449730000000  0.4851210000000  0.5823050000000 1.0
C      1  0.5474750000000  0.5203560000000  0.4124090000000 1.0
C      1  0.4545810000000  0.4796050000000  0.4123730000000 1.0
C      1  0.5429640000000  0.5462220000000  0.5006380000000 1.0
C      1  0.4438310000000  0.4551430000000  0.5083460000000 1.0
C      1  0.4522670000000  0.5390190000000  0.5016100000000 1.0
C      1  0.5404810000000  0.4571070000000  0.4965970000000 1.0
C      1  0.4142260000000  0.5320500000000  0.5042790000000 1.0
C      1  0.5898980000000  0.4682860000000  0.5065790000000 1.0
C      1  0.5907560000000  0.5338670000000  0.4892300000000 1.0
C      1  0.4118260000000  0.4715100000000  0.4881990000000 1.0
C      1  0.5643750000000  0.4631590000000  0.5451130000000 1.0
C      1  0.4266780000000  0.5444830000000  0.5519310000000 1.0
C      1  0.4282690000000  0.4575890000000  0.4432090000000 1.0
C      1  0.5643880000000  0.5393180000000  0.4517210000000 1.0
C      1  0.5099610000000  0.4044860000000  0.5360480000000 1.0
C      1  0.4945090000000  0.5990850000000  0.5327070000000 1.0
C      1  0.4911440000000  0.3989220000000  0.4680060000000 1.0
C      1  0.5090440000000  0.5980920000000  0.4650010000000 1.0
C      1  0.5297110000000  0.4100910000000  0.4926600000000 1.0
C      1  0.4686130000000  0.6037600000000  0.4911130000000 1.0
C      1  0.4681770000000  0.4002450000000  0.5136230000000 1.0
C      1  0.5359290000000  0.6015040000000  0.5046430000000 1.0
C      1  0.4648350000000  0.5220290000000  0.5269410000000 1.0
C      1  0.5410970000000  0.4726850000000  0.5254350000000 1.0
C      1  0.5429960000000  0.5297790000000  0.4729130000000 1.0
C      1  0.4598620000000  0.4682860000000  0.4711400000000 1.0
C      1  0.5200090000000  0.5145980000000  0.4101380000000 1.0
C      1  0.4813300000000  0.4877560000000  0.4091930000000 1.0
C      1  0.4658470000000  0.4959070000000  0.5934580000000 1.0
C      1  0.5186720000000  0.4953500000000  0.5811830000000 1.0
C      1  0.4714840000000  0.5510240000000  0.4367370000000 1.0
C      1  0.5326450000000  0.4467530000000  0.4355340000000 1.0
C      1  0.5315570000000  0.5486970000000  0.5603060000000 1.0
C      1  0.4766960000000  0.4499790000000  0.5727150000000 1.0
C      1  0.5181140000000  0.4381080000000  0.4936410000000 1.0
C      1  0.4694800000000  0.5657500000000  0.4993360000000 1.0
C      1  0.4652570000000  0.4441800000000  0.4896020000000 1.0
C      1  0.5211290000000  0.5659060000000  0.5027590000000 1.0
C      1  0.5309090000000  0.5798150000000  0.4560490000000 1.0
C      1  0.4688490000000  0.4150760000000  0.4577940000000 1.0
C      1  0.4730510000000  0.5776080000000  0.5363280000000 1.0
C      1  0.5328780000000  0.4220870000000  0.5430920000000 1.0
C      1  0.5301840000000  0.4384410000000  0.5666270000000 1.0
C      1  0.4764000000000  0.5569810000000  0.5589780000000 1.0
C      1  0.4750240000000  0.4357250000000  0.4375290000000 1.0
C      1  0.5258080000000  0.5626560000000  0.4330070000000 1.0
C      1  0.4737760000000  0.4800820000000  0.5711980000000 1.0
C      1  0.4993320000000  0.4920040000000  0.5601560000000 1.0
C      1  0.5130060000000  0.5076430000000  0.4368680000000 1.0
C      1  0.4886790000000  0.4941130000000  0.4359480000000 1.0
C      1  0.4919410000000  0.4457660000000  0.5037950000000 1.0
C      1  0.4956780000000  0.5524250000000  0.4965750000000 1.0
C      1  0.4978200000000  0.4952080000000  0.5019570000000 1.0
END
