TITL C-3578206-1180-318 -1.65205553704609e-06 125000 -1041.98226841582 0 0 166 (C1) n - 1
REM
REM in /home/bkarasulu/work/CARBON/AIRSS/Generating-Clusters/EDIP-Nigel-Params/with-SteepDescent/Higher-Symm/SD-CG/HFTN-CG
REM
REM
REM
REM
REM
REM ./C.cell (12c818d87b63d06a65506943cc24bca4)
REM
REM compiler GCC version 9.2.1 20190827 (Red Hat 9.2.1-1)
REM options -cpp -mtune=generic -march=x86-64 -g -O0 -fpre-include=/usr/include/finclude/math-vector-fortran.h
REM seed -757723523 1905921956 -1393094487 372168588 -365081245 -1328790856 435111352 2060631042 -2064796553 550956004 -909856163 -826872301 -291388253 -1082667065 1182651197 -1171250896 -517474923 -129631598 178097695 -1062650556 1414223668 704700245 482214098 206957749 -625592701 1646442752 -381369385 1716257993 -1181736754 1427821509 -1963523405 -573008237 1842129795
REM
CELL 1.54180   50.00000   50.00000   50.00000   90.00000   90.00000   90.00000
LATT -1
SFAC C  
C      1  0.4835960000000  0.4614450000000  0.6066740000000 1.0
C      1  0.4842970000000  0.5391430000000  0.3975170000000 1.0
C      1  0.5698500000000  0.5264290000000  0.4409710000000 1.0
C      1  0.5671660000000  0.4731670000000  0.5554470000000 1.0
C      1  0.4002110000000  0.5070410000000  0.4286220000000 1.0
C      1  0.4009520000000  0.4932060000000  0.5699420000000 1.0
C      1  0.6020140000000  0.5279520000000  0.4825680000000 1.0
C      1  0.6001930000000  0.4706470000000  0.5147690000000 1.0
C      1  0.4756950000000  0.3819680000000  0.5007980000000 1.0
C      1  0.4755550000000  0.6174140000000  0.4986110000000 1.0
C      1  0.5127670000000  0.4491790000000  0.4886110000000 1.0
C      1  0.5105400000000  0.5545420000000  0.5096520000000 1.0
C      1  0.4741280000000  0.4822250000000  0.5892490000000 1.0
C      1  0.4743380000000  0.5173260000000  0.4136190000000 1.0
C      1  0.4586260000000  0.4013860000000  0.5119410000000 1.0
C      1  0.4576810000000  0.5984070000000  0.4877710000000 1.0
C      1  0.5306760000000  0.5540010000000  0.5347170000000 1.0
C      1  0.5339480000000  0.4480230000000  0.4648870000000 1.0
C      1  0.5031350000000  0.6133340000000  0.5036170000000 1.0
C      1  0.5029500000000  0.3871020000000  0.4955270000000 1.0
C      1  0.5343180000000  0.5224300000000  0.4109870000000 1.0
C      1  0.5331270000000  0.4815940000000  0.6014010000000 1.0
C      1  0.4217090000000  0.5441500000000  0.4739370000000 1.0
C      1  0.4231790000000  0.4562810000000  0.5250450000000 1.0
C      1  0.4254060000000  0.4605000000000  0.4745640000000 1.0
C      1  0.4247360000000  0.5399770000000  0.5243800000000 1.0
C      1  0.4801430000000  0.5246800000000  0.6059410000000 1.0
C      1  0.4824460000000  0.4772190000000  0.3951910000000 1.0
C      1  0.4263650000000  0.5036000000000  0.4190640000000 1.0
C      1  0.4266910000000  0.4967610000000  0.5805730000000 1.0
C      1  0.5041820000000  0.5561850000000  0.4087130000000 1.0
C      1  0.5041730000000  0.4446070000000  0.5965730000000 1.0
C      1  0.5203560000000  0.5028750000000  0.5862540000000 1.0
C      1  0.5215080000000  0.4979620000000  0.4204430000000 1.0
C      1  0.4617920000000  0.5944570000000  0.4590040000000 1.0
C      1  0.4634640000000  0.4055300000000  0.5405380000000 1.0
C      1  0.5633320000000  0.4583580000000  0.4807050000000 1.0
C      1  0.5560990000000  0.5349730000000  0.5169990000000 1.0
C      1  0.5271510000000  0.4590490000000  0.5856330000000 1.0
C      1  0.5225420000000  0.5424290000000  0.4275730000000 1.0
C      1  0.4967480000000  0.4302610000000  0.5718210000000 1.0
C      1  0.4917810000000  0.5772000000000  0.4242970000000 1.0
C      1  0.5991750000000  0.5589200000000  0.5216850000000 1.0
C      1  0.6004740000000  0.4413500000000  0.4721990000000 1.0
C      1  0.5623770000000  0.4169630000000  0.5025610000000 1.0
C      1  0.5600930000000  0.5799660000000  0.4972590000000 1.0
C      1  0.4266010000000  0.4413040000000  0.4976600000000 1.0
C      1  0.4257440000000  0.5588710000000  0.5013270000000 1.0
C      1  0.3891310000000  0.5146000000000  0.5001460000000 1.0
C      1  0.3899520000000  0.4854240000000  0.4989890000000 1.0
C      1  0.5130870000000  0.4771750000000  0.3992310000000 1.0
C      1  0.5106340000000  0.5261290000000  0.6035310000000 1.0
C      1  0.4029580000000  0.5032650000000  0.4566560000000 1.0
C      1  0.4048880000000  0.4970330000000  0.5420620000000 1.0
C      1  0.4012220000000  0.5219160000000  0.5257450000000 1.0
C      1  0.4014060000000  0.4781140000000  0.4732030000000 1.0
C      1  0.5961010000000  0.4469430000000  0.5306480000000 1.0
C      1  0.5968370000000  0.5525690000000  0.4684370000000 1.0
C      1  0.5065200000000  0.3988390000000  0.4689910000000 1.0
C      1  0.5066100000000  0.6015230000000  0.5303240000000 1.0
C      1  0.4655860000000  0.4373560000000  0.4224010000000 1.0
C      1  0.4649630000000  0.5625950000000  0.5769640000000 1.0
C      1  0.5435170000000  0.5727790000000  0.4520470000000 1.0
C      1  0.5435830000000  0.4236690000000  0.5473430000000 1.0
C      1  0.5366350000000  0.4940310000000  0.4733400000000 1.0
C      1  0.5290260000000  0.5100580000000  0.5301830000000 1.0
C      1  0.4220070000000  0.5609860000000  0.4502620000000 1.0
C      1  0.4222180000000  0.4396960000000  0.5488330000000 1.0
C      1  0.5659890000000  0.4991490000000  0.4317000000000 1.0
C      1  0.5660180000000  0.4992820000000  0.5676940000000 1.0
C      1  0.4703610000000  0.5683110000000  0.4454500000000 1.0
C      1  0.4700360000000  0.4323890000000  0.5524380000000 1.0
C      1  0.4861830000000  0.4426400000000  0.4779320000000 1.0
C      1  0.4844940000000  0.5586240000000  0.5212330000000 1.0
C      1  0.4730000000000  0.5029730000000  0.3883030000000 1.0
C      1  0.4718760000000  0.4983760000000  0.6129040000000 1.0
C      1  0.4710740000000  0.4692370000000  0.5153810000000 1.0
C      1  0.4688620000000  0.5311860000000  0.4840150000000 1.0
C      1  0.5084570000000  0.4343310000000  0.5151050000000 1.0
C      1  0.5053510000000  0.5676680000000  0.4832000000000 1.0
C      1  0.5427180000000  0.4556660000000  0.5315920000000 1.0
C      1  0.5485810000000  0.5441210000000  0.4677140000000 1.0
C      1  0.5268590000000  0.5232730000000  0.4748030000000 1.0
C      1  0.5271950000000  0.4810480000000  0.5214130000000 1.0
C      1  0.4268740000000  0.5457820000000  0.5532170000000 1.0
C      1  0.4268040000000  0.4534620000000  0.4459820000000 1.0
C      1  0.4466430000000  0.4955940000000  0.4575900000000 1.0
C      1  0.4490030000000  0.5030100000000  0.5427430000000 1.0
C      1  0.4709070000000  0.4843130000000  0.4694520000000 1.0
C      1  0.4729870000000  0.5152180000000  0.5308860000000 1.0
C      1  0.4838920000000  0.4180940000000  0.4616000000000 1.0
C      1  0.4831500000000  0.5826530000000  0.5382430000000 1.0
C      1  0.4962910000000  0.5060150000000  0.4348460000000 1.0
C      1  0.4971780000000  0.4920730000000  0.5697370000000 1.0
C      1  0.5840440000000  0.5518260000000  0.4426250000000 1.0
C      1  0.5819290000000  0.4484190000000  0.5554970000000 1.0
C      1  0.5163530000000  0.5262570000000  0.5042130000000 1.0
C      1  0.5168380000000  0.4787430000000  0.4937660000000 1.0
C      1  0.5687850000000  0.4504330000000  0.4376070000000 1.0
C      1  0.5675620000000  0.5465600000000  0.5578360000000 1.0
C      1  0.5085250000000  0.5462980000000  0.5588180000000 1.0
C      1  0.5084480000000  0.4538000000000  0.4410620000000 1.0
C      1  0.5395290000000  0.5134870000000  0.5643390000000 1.0
C      1  0.5408140000000  0.4839770000000  0.4423780000000 1.0
C      1  0.5681030000000  0.4249530000000  0.5628770000000 1.0
C      1  0.5682320000000  0.5745540000000  0.4366190000000 1.0
C      1  0.6065760000000  0.4621790000000  0.4887730000000 1.0
C      1  0.6014950000000  0.5324770000000  0.5117240000000 1.0
C      1  0.5501600000000  0.5467460000000  0.5811560000000 1.0
C      1  0.5488250000000  0.4482860000000  0.4184370000000 1.0
C      1  0.4825670000000  0.5051290000000  0.4858670000000 1.0
C      1  0.4866390000000  0.4949980000000  0.5125680000000 1.0
C      1  0.5791840000000  0.4297740000000  0.4565460000000 1.0
C      1  0.5778060000000  0.5672020000000  0.5388430000000 1.0
C      1  0.4634300000000  0.4598680000000  0.4866470000000 1.0
C      1  0.4625040000000  0.5397630000000  0.5136250000000 1.0
C      1  0.5216240000000  0.5475390000000  0.5854690000000 1.0
C      1  0.5218450000000  0.4536880000000  0.4148430000000 1.0
C      1  0.5590180000000  0.5865090000000  0.5260450000000 1.0
C      1  0.5592390000000  0.4128080000000  0.4729360000000 1.0
C      1  0.5895010000000  0.5037660000000  0.4730270000000 1.0
C      1  0.5764500000000  0.4887100000000  0.5150050000000 1.0
C      1  0.4430750000000  0.4292750000000  0.4407710000000 1.0
C      1  0.4423180000000  0.5703450000000  0.5587130000000 1.0
C      1  0.4930760000000  0.5186450000000  0.5527490000000 1.0
C      1  0.4915760000000  0.4798660000000  0.4489010000000 1.0
C      1  0.4453740000000  0.5798930000000  0.5067520000000 1.0
C      1  0.4461650000000  0.4198310000000  0.4927920000000 1.0
C      1  0.5148680000000  0.4043020000000  0.5174940000000 1.0
C      1  0.5145910000000  0.5966500000000  0.4807120000000 1.0
C      1  0.4642740000000  0.5338180000000  0.5823130000000 1.0
C      1  0.4644460000000  0.4662700000000  0.4169430000000 1.0
C      1  0.4899620000000  0.5700120000000  0.5637900000000 1.0
C      1  0.4906030000000  0.4297980000000  0.4356730000000 1.0
C      1  0.5673960000000  0.4893220000000  0.4859550000000 1.0
C      1  0.5803120000000  0.5169500000000  0.5253960000000 1.0
C      1  0.4446700000000  0.5244100000000  0.4688990000000 1.0
C      1  0.4465350000000  0.4758610000000  0.5296130000000 1.0
C      1  0.5663150000000  0.5513790000000  0.4914780000000 1.0
C      1  0.5645920000000  0.4457980000000  0.5095800000000 1.0
C      1  0.4799840000000  0.3858200000000  0.5511800000000 1.0
C      1  0.4788060000000  0.6150760000000  0.4503700000000 1.0
C      1  0.5189110000000  0.4126460000000  0.5627740000000 1.0
C      1  0.5158440000000  0.5896750000000  0.4355160000000 1.0
C      1  0.3971270000000  0.5265170000000  0.4738890000000 1.0
C      1  0.3988900000000  0.4739730000000  0.5249710000000 1.0
C      1  0.5068280000000  0.5306480000000  0.4517140000000 1.0
C      1  0.5095130000000  0.4648430000000  0.5574570000000 1.0
C      1  0.5818710000000  0.5206000000000  0.5550480000000 1.0
C      1  0.5799010000000  0.4762540000000  0.4408250000000 1.0
C      1  0.4450420000000  0.5534850000000  0.4355140000000 1.0
C      1  0.4452700000000  0.4471980000000  0.5633260000000 1.0
C      1  0.5450770000000  0.4042420000000  0.5224210000000 1.0
C      1  0.5442790000000  0.5927140000000  0.4762390000000 1.0
C      1  0.4400120000000  0.5211910000000  0.5673310000000 1.0
C      1  0.4392520000000  0.4782110000000  0.4314800000000 1.0
C      1  0.5061660000000  0.3938380000000  0.5446750000000 1.0
C      1  0.5060190000000  0.6088330000000  0.4544940000000 1.0
C      1  0.4529920000000  0.5868670000000  0.5351350000000 1.0
C      1  0.4539670000000  0.4129950000000  0.4644980000000 1.0
C      1  0.4868550000000  0.5506000000000  0.4659140000000 1.0
C      1  0.4888820000000  0.4496950000000  0.5329880000000 1.0
C      1  0.4473230000000  0.5251680000000  0.4247710000000 1.0
C      1  0.4474660000000  0.4745750000000  0.5767840000000 1.0
C      1  0.5331940000000  0.5918050000000  0.5387740000000 1.0
C      1  0.5326670000000  0.4097800000000  0.4618900000000 1.0
END
