TITL C-3577090-796-203 -0.0014820542749932 125000 -148.054289933248 0 0 26 (C1) n - 1
REM
REM in /home/bkarasulu/work/CARBON/AIRSS/Generating-Clusters/EDIP-Nigel-Params/with-SteepDescent/Higher-Symm/SD-CG/HFTN-CG
REM
REM
REM
REM
REM
REM ./C.cell (12c818d87b63d06a65506943cc24bca4)
REM
REM compiler GCC version 9.2.1 20190827 (Red Hat 9.2.1-1)
REM options -cpp -mtune=generic -march=x86-64 -g -O0 -fpre-include=/usr/include/finclude/math-vector-fortran.h
REM seed 1465798782 1164794196 -471743956 983889209 -2063766235 -2128602200 -2032653456 963178123 -709465433 -60079806 1522208681 -1388171976 -148373084 -424119986 1387098706 1059626343 595461964 -622544523 -823029656 2055686219 1313633422 1961042554 727989149 -1636539700 -1095079247 1625564680 -566438705 -1031677172 827847067 -255733733 -1168507197 -575190150 -888440682
REM
CELL 1.54180   50.00000   50.00000   50.00000   90.00000   90.00000   90.00000
LATT -1
SFAC C  
C      1  0.5430610000000  0.4654470000000  0.4866060000000 1.0
C      1  0.5474620000000  0.5095540000000  0.4935880000000 1.0
C      1  0.5242620000000  0.5493360000000  0.4932010000000 1.0
C      1  0.4769620000000  0.5487480000000  0.4942760000000 1.0
C      1  0.4473750000000  0.5121020000000  0.4897920000000 1.0
C      1  0.4640170000000  0.4691680000000  0.4893810000000 1.0
C      1  0.5015220000000  0.4442720000000  0.4842980000000 1.0
C      1  0.5166720000000  0.5363030000000  0.4671000000000 1.0
C      1  0.4850880000000  0.5341610000000  0.4702340000000 1.0
C      1  0.4640880000000  0.5109310000000  0.4647470000000 1.0
C      1  0.4806330000000  0.4845620000000  0.4710440000000 1.0
C      1  0.5025010000000  0.4639380000000  0.4617330000000 1.0
C      1  0.5292880000000  0.4778380000000  0.4633890000000 1.0
C      1  0.5266840000000  0.5066130000000  0.4734230000000 1.0
C      1  0.4779520000000  0.4470750000000  0.4995760000000 1.0
C      1  0.5264660000000  0.4451090000000  0.4971700000000 1.0
C      1  0.5549950000000  0.4846270000000  0.5038760000000 1.0
C      1  0.5441900000000  0.5341180000000  0.5067710000000 1.0
C      1  0.5006270000000  0.5563180000000  0.5074380000000 1.0
C      1  0.4554960000000  0.5344370000000  0.5054600000000 1.0
C      1  0.4461360000000  0.4865100000000  0.5023110000000 1.0
C      1  0.5001400000000  0.4983620000000  0.5164620000000 1.0
C      1  0.4973300000000  0.4528130000000  0.4373510000000 1.0
C      1  0.4997330000000  0.5022050000000  0.4882010000000 1.0
C      1  0.4989130000000  0.4953850000000  0.5684120000000 1.0
C      1  0.4992100000000  0.4974750000000  0.5429290000000 1.0
END
