TITL C-3577080-309-678 -0.0156315556619131 125000 -115.798733685388 0 0 21 (C1) n - 1
REM
REM in /home/bkarasulu/work/CARBON/AIRSS/Generating-Clusters/EDIP-Nigel-Params/with-SteepDescent/Higher-Symm/SD-CG/HFTN-CG
REM
REM
REM
REM
REM
REM ./C.cell (12c818d87b63d06a65506943cc24bca4)
REM
REM compiler GCC version 9.2.1 20190827 (Red Hat 9.2.1-1)
REM options -cpp -mtune=generic -march=x86-64 -g -O0 -fpre-include=/usr/include/finclude/math-vector-fortran.h
REM seed -679000264 -2010332034 678709316 -2101437559 -1541615669 1111416952 468225617 -452208269 230006485 -170199903 926383393 1897071295 1760567619 -506839910 244597426 1941305048 -2112929592 -1628081129 899896232 2127069453 -72448673 669975576 -1800220715 -1521388227 1714551097 826375233 1672404521 1912512615 -1768929697 -2124937627 -1578976136 -1157335331 1334822995
REM
CELL 1.54180   50.00000   50.00000   50.00000   90.00000   90.00000   90.00000
LATT -1
SFAC C  
C      1  0.4518340000000  0.5154260000000  0.4900760000000 1.0
C      1  0.5617360000000  0.4733170000000  0.4874350000000 1.0
C      1  0.4494600000000  0.4971780000000  0.5106940000000 1.0
C      1  0.5537180000000  0.4974060000000  0.4765210000000 1.0
C      1  0.5066950000000  0.4547460000000  0.5007190000000 1.0
C      1  0.5025360000000  0.5395910000000  0.5091780000000 1.0
C      1  0.5392570000000  0.5156830000000  0.4908730000000 1.0
C      1  0.4689370000000  0.4786840000000  0.5160060000000 1.0
C      1  0.4737420000000  0.5966400000000  0.5411480000000 1.0
C      1  0.4984020000000  0.4116910000000  0.4443410000000 1.0
C      1  0.4876800000000  0.3952120000000  0.4279890000000 1.0
C      1  0.4718390000000  0.6184530000000  0.5543570000000 1.0
C      1  0.5209170000000  0.4463400000000  0.4786900000000 1.0
C      1  0.4777490000000  0.5507710000000  0.5134430000000 1.0
C      1  0.4759080000000  0.5734080000000  0.5287470000000 1.0
C      1  0.5086630000000  0.4297790000000  0.4606450000000 1.0
C      1  0.5439540000000  0.4607680000000  0.4703350000000 1.0
C      1  0.4542940000000  0.5352590000000  0.5092290000000 1.0
C      1  0.4959300000000  0.4736350000000  0.5175880000000 1.0
C      1  0.5205730000000  0.5189050000000  0.5107690000000 1.0
C      1  0.5116330000000  0.4956940000000  0.5225690000000 1.0
END
