TITL C-3577078-809-312 1.00249161151601e-06 125000 -502.752680459034 0 0 82 (C1) n - 1
REM
REM in /home/bkarasulu/work/CARBON/AIRSS/Generating-Clusters/EDIP-Nigel-Params/with-SteepDescent/Higher-Symm/SD-CG/HFTN-CG
REM
REM
REM
REM
REM
REM ./C.cell (12c818d87b63d06a65506943cc24bca4)
REM
REM compiler GCC version 9.2.1 20190827 (Red Hat 9.2.1-1)
REM options -cpp -mtune=generic -march=x86-64 -g -O0 -fpre-include=/usr/include/finclude/math-vector-fortran.h
REM seed 1004348556 -6685704 1217571641 775364940 2060963170 688647888 377586471 -2053679763 -549834184 -448700244 -912380307 -362872846 104487478 1919924188 1547939673 537651879 1952284596 1675323905 -227377867 8792604 1693241891 -1145601881 -1933612550 -258962094 -939809888 -1718885687 -1430823871 544134279 -118068573 -574567538 1357984269 -1921499512 1394835836
REM
CELL 1.54180   50.00000   50.00000   50.00000   90.00000   90.00000   90.00000
LATT -1
SFAC C  
C      1  0.4238630000000  0.5179570000000  0.5519290000000 1.0
C      1  0.4323110000000  0.5536990000000  0.4642250000000 1.0
C      1  0.4448300000000  0.4607820000000  0.4573740000000 1.0
C      1  0.4893370000000  0.5516460000000  0.5505360000000 1.0
C      1  0.5036760000000  0.5720220000000  0.4781220000000 1.0
C      1  0.4861510000000  0.5195630000000  0.4741660000000 1.0
C      1  0.5434660000000  0.4345620000000  0.5321080000000 1.0
C      1  0.5081290000000  0.4686250000000  0.5387660000000 1.0
C      1  0.5626920000000  0.4609150000000  0.4949970000000 1.0
C      1  0.5505020000000  0.5057030000000  0.5520260000000 1.0
C      1  0.5732850000000  0.5164750000000  0.5349370000000 1.0
C      1  0.4870940000000  0.4917590000000  0.4304000000000 1.0
C      1  0.5868160000000  0.4915610000000  0.5251370000000 1.0
C      1  0.5143570000000  0.4810180000000  0.4282040000000 1.0
C      1  0.5111550000000  0.4530740000000  0.4354920000000 1.0
C      1  0.4419120000000  0.4737370000000  0.5600820000000 1.0
C      1  0.4687340000000  0.4956640000000  0.4698550000000 1.0
C      1  0.4876100000000  0.4504460000000  0.5173690000000 1.0
C      1  0.5503840000000  0.5050380000000  0.4375140000000 1.0
C      1  0.5681880000000  0.5296370000000  0.4853060000000 1.0
C      1  0.4221050000000  0.5306320000000  0.4766330000000 1.0
C      1  0.5414520000000  0.4823520000000  0.4988420000000 1.0
C      1  0.4536740000000  0.5464990000000  0.5119210000000 1.0
C      1  0.5815520000000  0.5061650000000  0.4759660000000 1.0
C      1  0.4520470000000  0.5217280000000  0.5521560000000 1.0
C      1  0.5363070000000  0.4327570000000  0.4724370000000 1.0
C      1  0.4804160000000  0.4790750000000  0.5811270000000 1.0
C      1  0.5339400000000  0.5264580000000  0.4516250000000 1.0
C      1  0.4287530000000  0.5276220000000  0.5052200000000 1.0
C      1  0.4601600000000  0.5479390000000  0.5423440000000 1.0
C      1  0.4888950000000  0.5437720000000  0.4376190000000 1.0
C      1  0.4686560000000  0.5004890000000  0.5373250000000 1.0
C      1  0.5525240000000  0.5454310000000  0.4666970000000 1.0
C      1  0.5262270000000  0.5315190000000  0.4994570000000 1.0
C      1  0.4582260000000  0.4881440000000  0.5024550000000 1.0
C      1  0.5507060000000  0.5619980000000  0.5126080000000 1.0
C      1  0.4814590000000  0.5615750000000  0.4616740000000 1.0
C      1  0.5407550000000  0.5666810000000  0.4835750000000 1.0
C      1  0.4467220000000  0.4484750000000  0.5501680000000 1.0
C      1  0.4736720000000  0.5180950000000  0.4318470000000 1.0
C      1  0.4306660000000  0.4759280000000  0.5004590000000 1.0
C      1  0.5037130000000  0.5250760000000  0.5597850000000 1.0
C      1  0.5287600000000  0.4883240000000  0.5254090000000 1.0
C      1  0.5681250000000  0.4458680000000  0.5213940000000 1.0
C      1  0.4674350000000  0.4703720000000  0.4397260000000 1.0
C      1  0.4826540000000  0.4264980000000  0.4749300000000 1.0
C      1  0.4521620000000  0.5734020000000  0.5002070000000 1.0
C      1  0.5050150000000  0.5672490000000  0.5299250000000 1.0
C      1  0.5339530000000  0.5680170000000  0.5368030000000 1.0
C      1  0.5278210000000  0.4262950000000  0.4997820000000 1.0
C      1  0.5315690000000  0.4534940000000  0.5520580000000 1.0
C      1  0.5200540000000  0.4821740000000  0.4784980000000 1.0
C      1  0.5815170000000  0.4844740000000  0.4963310000000 1.0
C      1  0.5328730000000  0.5271040000000  0.5646640000000 1.0
C      1  0.4535180000000  0.4797290000000  0.5850250000000 1.0
C      1  0.5165910000000  0.5408190000000  0.4336740000000 1.0
C      1  0.4204820000000  0.4900980000000  0.5485380000000 1.0
C      1  0.4594580000000  0.4462430000000  0.4796250000000 1.0
C      1  0.4834180000000  0.4451820000000  0.4419090000000 1.0
C      1  0.5028090000000  0.5542340000000  0.5024550000000 1.0
C      1  0.4283740000000  0.5079840000000  0.4594650000000 1.0
C      1  0.5174030000000  0.5157490000000  0.5249910000000 1.0
C      1  0.5141130000000  0.4528000000000  0.4668240000000 1.0
C      1  0.5585810000000  0.4510220000000  0.4665960000000 1.0
C      1  0.4593710000000  0.4414220000000  0.5266110000000 1.0
C      1  0.4804850000000  0.4676000000000  0.4914270000000 1.0
C      1  0.4463880000000  0.5146670000000  0.4386930000000 1.0
C      1  0.4886230000000  0.5143180000000  0.5198070000000 1.0
C      1  0.4798750000000  0.5340180000000  0.5004020000000 1.0
C      1  0.5408690000000  0.5533400000000  0.5597840000000 1.0
C      1  0.5161270000000  0.5133450000000  0.4745340000000 1.0
C      1  0.5766530000000  0.4994250000000  0.4485450000000 1.0
C      1  0.5675140000000  0.5370500000000  0.5132370000000 1.0
C      1  0.4908280000000  0.4887620000000  0.5562730000000 1.0
C      1  0.4411530000000  0.4452560000000  0.5041500000000 1.0
C      1  0.5538440000000  0.4742450000000  0.5584200000000 1.0
C      1  0.5772770000000  0.4671820000000  0.5408020000000 1.0
C      1  0.5478490000000  0.4736170000000  0.4463760000000 1.0
C      1  0.4989040000000  0.4279800000000  0.5004650000000 1.0
C      1  0.4185490000000  0.5000270000000  0.5176820000000 1.0
C      1  0.4545500000000  0.5678320000000  0.4727700000000 1.0
C      1  0.4273360000000  0.4804870000000  0.4707080000000 1.0
END
