TITL C-3577085-527-11 -3.41126003409927e-06 125000 -1154.83435271735 0 0 187 (C1) n - 1
REM
REM in /home/bkarasulu/work/CARBON/AIRSS/Generating-Clusters/EDIP-Nigel-Params/with-SteepDescent/Higher-Symm/SD-CG/HFTN-CG
REM
REM
REM
REM
REM
REM ./C.cell (12c818d87b63d06a65506943cc24bca4)
REM
REM compiler GCC version 9.2.1 20190827 (Red Hat 9.2.1-1)
REM options -cpp -mtune=generic -march=x86-64 -g -O0 -fpre-include=/usr/include/finclude/math-vector-fortran.h
REM seed -1749076677 100737006 1193779808 1689421283 -1845947647 -859799346 320088417 -1001961294 -205312723 -146863566 1973028595 -1187224264 559124146 -5564053 870297073 2115315848 -1328168216 -1512074083 1088811733 -936268445 -922181811 1390171504 -463606282 -421151802 -93322751 1610479471 -1367859336 939518826 1505323410 1364330317 -1415955154 887722822 1651938469
REM
CELL 1.54180   50.00000   50.00000   50.00000   90.00000   90.00000   90.00000
LATT -1
SFAC C  
C      1  0.5041240000000  0.4659680000000  0.4687970000000 1.0
C      1  0.4597070000000  0.5135220000000  0.4528640000000 1.0
C      1  0.5312280000000  0.5275170000000  0.4650640000000 1.0
C      1  0.5087540000000  0.5382910000000  0.5349070000000 1.0
C      1  0.4601990000000  0.4864820000000  0.5359640000000 1.0
C      1  0.5315230000000  0.4764590000000  0.5297670000000 1.0
C      1  0.4240710000000  0.5862190000000  0.4521650000000 1.0
C      1  0.6186850000000  0.5233620000000  0.4638030000000 1.0
C      1  0.4609690000000  0.3854240000000  0.4654010000000 1.0
C      1  0.4211560000000  0.4088760000000  0.5383290000000 1.0
C      1  0.6184710000000  0.4760290000000  0.5346910000000 1.0
C      1  0.4605710000000  0.6098760000000  0.5441910000000 1.0
C      1  0.5518550000000  0.5446150000000  0.5551670000000 1.0
C      1  0.5097000000000  0.4377920000000  0.5566130000000 1.0
C      1  0.4361810000000  0.5214890000000  0.5573370000000 1.0
C      1  0.5512190000000  0.4561420000000  0.4441260000000 1.0
C      1  0.5147210000000  0.5635790000000  0.4445510000000 1.0
C      1  0.4347680000000  0.4775670000000  0.4475640000000 1.0
C      1  0.4605070000000  0.4610600000000  0.6213170000000 1.0
C      1  0.4927760000000  0.5432950000000  0.6207170000000 1.0
C      1  0.5286640000000  0.4797780000000  0.6258660000000 1.0
C      1  0.4643220000000  0.5270210000000  0.3770020000000 1.0
C      1  0.5038020000000  0.4654030000000  0.3735390000000 1.0
C      1  0.5551250000000  0.5158160000000  0.3773750000000 1.0
C      1  0.4830610000000  0.4843900000000  0.3698360000000 1.0
C      1  0.4894590000000  0.5133000000000  0.3721960000000 1.0
C      1  0.5517680000000  0.4931240000000  0.3939540000000 1.0
C      1  0.4932790000000  0.5145440000000  0.6252220000000 1.0
C      1  0.4820040000000  0.4512720000000  0.6057280000000 1.0
C      1  0.5217530000000  0.5070250000000  0.6292170000000 1.0
C      1  0.4780470000000  0.4099280000000  0.4902230000000 1.0
C      1  0.4416880000000  0.5615700000000  0.4844730000000 1.0
C      1  0.5880680000000  0.5246910000000  0.4877750000000 1.0
C      1  0.4750120000000  0.5875740000000  0.5153480000000 1.0
C      1  0.4349400000000  0.4358540000000  0.5140530000000 1.0
C      1  0.5886180000000  0.4751880000000  0.5098620000000 1.0
C      1  0.4916080000000  0.3901160000000  0.4682190000000 1.0
C      1  0.4186500000000  0.5589050000000  0.4623240000000 1.0
C      1  0.5993360000000  0.5473700000000  0.4665620000000 1.0
C      1  0.4895760000000  0.6080890000000  0.5345400000000 1.0
C      1  0.4101740000000  0.4377870000000  0.5355940000000 1.0
C      1  0.5979540000000  0.4528260000000  0.5319080000000 1.0
C      1  0.5735760000000  0.4915320000000  0.4141290000000 1.0
C      1  0.4598600000000  0.4446640000000  0.4186880000000 1.0
C      1  0.4826430000000  0.5603350000000  0.4100800000000 1.0
C      1  0.5685690000000  0.5063530000000  0.5819710000000 1.0
C      1  0.4633790000000  0.5454750000000  0.5875380000000 1.0
C      1  0.4719640000000  0.4301260000000  0.5874820000000 1.0
C      1  0.5070120000000  0.4655810000000  0.4022690000000 1.0
C      1  0.4513390000000  0.5090570000000  0.3950070000000 1.0
C      1  0.5363530000000  0.5341760000000  0.3867190000000 1.0
C      1  0.5158340000000  0.5463020000000  0.6039620000000 1.0
C      1  0.4544720000000  0.4859350000000  0.6102840000000 1.0
C      1  0.5274000000000  0.4768520000000  0.5971040000000 1.0
C      1  0.5360510000000  0.3941430000000  0.5148450000000 1.0
C      1  0.3855750000000  0.5182260000000  0.5182580000000 1.0
C      1  0.5748590000000  0.5850000000000  0.5123260000000 1.0
C      1  0.5399380000000  0.6062100000000  0.4836340000000 1.0
C      1  0.3882750000000  0.4772980000000  0.4901210000000 1.0
C      1  0.5730690000000  0.4152140000000  0.4875770000000 1.0
C      1  0.4523920000000  0.5187870000000  0.4818080000000 1.0
C      1  0.5261200000000  0.5171950000000  0.4948480000000 1.0
C      1  0.4998660000000  0.4699270000000  0.4981780000000 1.0
C      1  0.4734800000000  0.4851020000000  0.5071790000000 1.0
C      1  0.5274010000000  0.4861070000000  0.5011660000000 1.0
C      1  0.4997970000000  0.5312580000000  0.5046670000000 1.0
C      1  0.4773900000000  0.4871290000000  0.4428720000000 1.0
C      1  0.5033750000000  0.5351620000000  0.4436050000000 1.0
C      1  0.5065920000000  0.4922530000000  0.4541290000000 1.0
C      1  0.4648430000000  0.5140650000000  0.5532420000000 1.0
C      1  0.5081380000000  0.4861970000000  0.5444950000000 1.0
C      1  0.5225200000000  0.5120670000000  0.5538050000000 1.0
C      1  0.4279710000000  0.5018250000000  0.4892380000000 1.0
C      1  0.5385060000000  0.5596620000000  0.4850390000000 1.0
C      1  0.5334280000000  0.4380530000000  0.4862390000000 1.0
C      1  0.4275090000000  0.4989030000000  0.5185890000000 1.0
C      1  0.5366550000000  0.4404560000000  0.5155330000000 1.0
C      1  0.5329670000000  0.5623540000000  0.5150440000000 1.0
C      1  0.6069910000000  0.5039870000000  0.4439130000000 1.0
C      1  0.4509100000000  0.4065890000000  0.4466430000000 1.0
C      1  0.4481850000000  0.5869460000000  0.4356850000000 1.0
C      1  0.6061760000000  0.4954460000000  0.5539500000000 1.0
C      1  0.4534550000000  0.5882480000000  0.5635650000000 1.0
C      1  0.4441360000000  0.4096640000000  0.5576690000000 1.0
C      1  0.4908300000000  0.4443870000000  0.5124420000000 1.0
C      1  0.4472940000000  0.5443930000000  0.5110920000000 1.0
C      1  0.5519410000000  0.5218980000000  0.5109990000000 1.0
C      1  0.4926820000000  0.5570630000000  0.4892570000000 1.0
C      1  0.4559600000000  0.4655920000000  0.4908490000000 1.0
C      1  0.5524660000000  0.4801240000000  0.4859920000000 1.0
C      1  0.5540280000000  0.5120300000000  0.4483000000000 1.0
C      1  0.4822970000000  0.4502330000000  0.4555330000000 1.0
C      1  0.4708850000000  0.5410260000000  0.4482860000000 1.0
C      1  0.5536710000000  0.4907710000000  0.5442700000000 1.0
C      1  0.4810660000000  0.5464210000000  0.5468960000000 1.0
C      1  0.4650300000000  0.4600220000000  0.5515200000000 1.0
C      1  0.4802860000000  0.4986200000000  0.6019960000000 1.0
C      1  0.5328680000000  0.5234710000000  0.6073050000000 1.0
C      1  0.4968820000000  0.4732240000000  0.5910250000000 1.0
C      1  0.4631770000000  0.4832190000000  0.3915530000000 1.0
C      1  0.5243940000000  0.4920500000000  0.4071190000000 1.0
C      1  0.5115850000000  0.5184260000000  0.3937780000000 1.0
C      1  0.4350640000000  0.5905160000000  0.4885580000000 1.0
C      1  0.6170720000000  0.5133840000000  0.4946460000000 1.0
C      1  0.4535770000000  0.3912940000000  0.4971160000000 1.0
C      1  0.4304090000000  0.4052550000000  0.5070310000000 1.0
C      1  0.6174990000000  0.4860740000000  0.5035060000000 1.0
C      1  0.4516490000000  0.6035050000000  0.5070930000000 1.0
C      1  0.5375840000000  0.4334950000000  0.4321470000000 1.0
C      1  0.4177300000000  0.4983010000000  0.4349510000000 1.0
C      1  0.5418820000000  0.5646120000000  0.4318570000000 1.0
C      1  0.5423330000000  0.5699310000000  0.5668800000000 1.0
C      1  0.4216660000000  0.4983010000000  0.5696770000000 1.0
C      1  0.5375400000000  0.4365500000000  0.5675470000000 1.0
C      1  0.4465830000000  0.4346570000000  0.5737730000000 1.0
C      1  0.4754020000000  0.5678860000000  0.5711840000000 1.0
C      1  0.5817950000000  0.4842980000000  0.5679310000000 1.0
C      1  0.4558110000000  0.5592890000000  0.4238240000000 1.0
C      1  0.4722360000000  0.4219330000000  0.4319990000000 1.0
C      1  0.5856450000000  0.5149940000000  0.4264170000000 1.0
C      1  0.5704530000000  0.4995160000000  0.4718290000000 1.0
C      1  0.4641690000000  0.4398790000000  0.4771950000000 1.0
C      1  0.4696220000000  0.5615040000000  0.4707770000000 1.0
C      1  0.5711190000000  0.5020530000000  0.5230840000000 1.0
C      1  0.4628710000000  0.5623260000000  0.5290760000000 1.0
C      1  0.4655800000000  0.4388370000000  0.5286090000000 1.0
C      1  0.3987510000000  0.4911330000000  0.5244070000000 1.0
C      1  0.5450460000000  0.5907680000000  0.5186340000000 1.0
C      1  0.5557130000000  0.4172000000000  0.5217840000000 1.0
C      1  0.3975890000000  0.5064150000000  0.4833980000000 1.0
C      1  0.5430190000000  0.4101060000000  0.4806380000000 1.0
C      1  0.5582300000000  0.5820240000000  0.4777910000000 1.0
C      1  0.5907590000000  0.5188520000000  0.5410170000000 1.0
C      1  0.4719120000000  0.4115650000000  0.5446930000000 1.0
C      1  0.4330030000000  0.5672150000000  0.5544800000000 1.0
C      1  0.5906570000000  0.4811630000000  0.4563250000000 1.0
C      1  0.4750770000000  0.5878490000000  0.4521710000000 1.0
C      1  0.4389400000000  0.4313590000000  0.4602360000000 1.0
C      1  0.5807330000000  0.5570600000000  0.5171180000000 1.0
C      1  0.5089860000000  0.4025000000000  0.5208830000000 1.0
C      1  0.4017530000000  0.5406720000000  0.5284350000000 1.0
C      1  0.5801970000000  0.4427900000000  0.4810910000000 1.0
C      1  0.5123270000000  0.5994890000000  0.4775160000000 1.0
C      1  0.4099350000000  0.4582860000000  0.4853960000000 1.0
C      1  0.4370310000000  0.4506450000000  0.4368440000000 1.0
C      1  0.4945810000000  0.5794630000000  0.4303720000000 1.0
C      1  0.5748850000000  0.4692770000000  0.4333820000000 1.0
C      1  0.4363770000000  0.5453900000000  0.5740630000000 1.0
C      1  0.4905760000000  0.4184820000000  0.5677380000000 1.0
C      1  0.5748120000000  0.5296000000000  0.5647680000000 1.0
C      1  0.5113330000000  0.4310780000000  0.5268670000000 1.0
C      1  0.4279230000000  0.5274350000000  0.5285820000000 1.0
C      1  0.5548850000000  0.5462810000000  0.5256600000000 1.0
C      1  0.5138830000000  0.5705000000000  0.4740060000000 1.0
C      1  0.4322580000000  0.4753980000000  0.4775780000000 1.0
C      1  0.5542470000000  0.4542850000000  0.4736900000000 1.0
C      1  0.5265960000000  0.5680470000000  0.5900060000000 1.0
C      1  0.5424490000000  0.4541630000000  0.5882630000000 1.0
C      1  0.4324040000000  0.4881130000000  0.5933260000000 1.0
C      1  0.5199280000000  0.4411870000000  0.4117260000000 1.0
C      1  0.5449690000000  0.5525690000000  0.4064520000000 1.0
C      1  0.4282210000000  0.5102620000000  0.4113610000000 1.0
C      1  0.4004610000000  0.5141420000000  0.4536480000000 1.0
C      1  0.5639340000000  0.5748730000000  0.4483110000000 1.0
C      1  0.5320630000000  0.4110690000000  0.4510340000000 1.0
C      1  0.4026910000000  0.4828010000000  0.5535280000000 1.0
C      1  0.5600290000000  0.4270700000000  0.5508730000000 1.0
C      1  0.5359390000000  0.5918680000000  0.5480310000000 1.0
C      1  0.4846180000000  0.3900350000000  0.5285860000000 1.0
C      1  0.4064720000000  0.5659900000000  0.5412930000000 1.0
C      1  0.6028130000000  0.5413760000000  0.5257270000000 1.0
C      1  0.4880290000000  0.6101350000000  0.4671270000000 1.0
C      1  0.4135960000000  0.4317330000000  0.4759250000000 1.0
C      1  0.6022180000000  0.4587740000000  0.4723080000000 1.0
C      1  0.4948440000000  0.4652420000000  0.5610350000000 1.0
C      1  0.4759660000000  0.5186990000000  0.5808530000000 1.0
C      1  0.5383280000000  0.5046870000000  0.5842520000000 1.0
C      1  0.4979550000000  0.5344870000000  0.4139660000000 1.0
C      1  0.4767300000000  0.4696560000000  0.4144860000000 1.0
C      1  0.5301810000000  0.4941560000000  0.4366570000000 1.0
C      1  0.5108540000000  0.6029900000000  0.5515680000000 1.0
C      1  0.5831100000000  0.4424930000000  0.5531130000000 1.0
C      1  0.4047140000000  0.4553030000000  0.5565250000000 1.0
C      1  0.5083090000000  0.3972270000000  0.4471740000000 1.0
C      1  0.5877890000000  0.5611500000000  0.4453290000000 1.0
C      1  0.4009400000000  0.5415100000000  0.4494840000000 1.0
C      1  0.4756660000000  0.5129160000000  0.4990400000000 1.0
END
