TITL C-3577090-796-355 -2.71204328475409e-06 125000 -601.550802413203 0 0 101 (C1) n - 1
REM
REM in /home/bkarasulu/work/CARBON/AIRSS/Generating-Clusters/EDIP-Nigel-Params/with-SteepDescent/Higher-Symm/SD-CG/HFTN-CG
REM
REM
REM
REM
REM
REM ./C.cell (12c818d87b63d06a65506943cc24bca4)
REM
REM compiler GCC version 9.2.1 20190827 (Red Hat 9.2.1-1)
REM options -cpp -mtune=generic -march=x86-64 -g -O0 -fpre-include=/usr/include/finclude/math-vector-fortran.h
REM seed -436932117 -2147213122 -181602744 -1208720703 308586358 528482625 1244810995 1620254179 2139060275 -1285028552 -1652379678 -2075357146 858791798 -1044974907 1544421338 -1266442077 -229804995 -308326383 -1165982117 480652793 1962751496 -913799056 1128975053 1382111039 -1116273399 666284080 -1122866461 -505348361 511645052 -439808072 -1208614006 488627537 379059910
REM
CELL 1.54180   50.00000   50.00000   50.00000   90.00000   90.00000   90.00000
LATT -1
SFAC C  
C      1  0.4879670000000  0.5807260000000  0.4348760000000 1.0
C      1  0.5628740000000  0.5817570000000  0.5241310000000 1.0
C      1  0.4512260000000  0.5831760000000  0.5446700000000 1.0
C      1  0.4928710000000  0.4190540000000  0.4363930000000 1.0
C      1  0.5677900000000  0.4227220000000  0.5187170000000 1.0
C      1  0.4608840000000  0.4224380000000  0.5316960000000 1.0
C      1  0.5078250000000  0.4512300000000  0.5770040000000 1.0
C      1  0.4368440000000  0.4511710000000  0.4743340000000 1.0
C      1  0.5554780000000  0.4480940000000  0.4505820000000 1.0
C      1  0.5120220000000  0.5517480000000  0.5768700000000 1.0
C      1  0.4267330000000  0.5510790000000  0.4704180000000 1.0
C      1  0.5595430000000  0.5499110000000  0.4552450000000 1.0
C      1  0.4095330000000  0.5138450000000  0.5113540000000 1.0
C      1  0.5212090000000  0.5170830000000  0.4159140000000 1.0
C      1  0.5553750000000  0.5151410000000  0.5729310000000 1.0
C      1  0.4123500000000  0.4861610000000  0.5082660000000 1.0
C      1  0.5275630000000  0.4942090000000  0.4316040000000 1.0
C      1  0.5538240000000  0.4874280000000  0.5736630000000 1.0
C      1  0.5155730000000  0.4695920000000  0.4231120000000 1.0
C      1  0.5482170000000  0.4725310000000  0.5497220000000 1.0
C      1  0.4296440000000  0.4717310000000  0.5260830000000 1.0
C      1  0.5123910000000  0.5409430000000  0.4275020000000 1.0
C      1  0.5514550000000  0.5285290000000  0.5479490000000 1.0
C      1  0.4311540000000  0.5300600000000  0.5210670000000 1.0
C      1  0.5046240000000  0.5308050000000  0.5400080000000 1.0
C      1  0.4643710000000  0.5323810000000  0.4812100000000 1.0
C      1  0.5342340000000  0.5215640000000  0.4762110000000 1.0
C      1  0.5016420000000  0.4766790000000  0.5422920000000 1.0
C      1  0.4657390000000  0.4823380000000  0.4844120000000 1.0
C      1  0.5300110000000  0.4680300000000  0.4797220000000 1.0
C      1  0.5696280000000  0.4262220000000  0.4916670000000 1.0
C      1  0.4686290000000  0.4280490000000  0.5571340000000 1.0
C      1  0.4671820000000  0.4279980000000  0.4399590000000 1.0
C      1  0.5692420000000  0.5745340000000  0.4984920000000 1.0
C      1  0.4693250000000  0.5751800000000  0.5635240000000 1.0
C      1  0.4622860000000  0.5745350000000  0.4422160000000 1.0
C      1  0.5363610000000  0.4533810000000  0.5700620000000 1.0
C      1  0.4290770000000  0.4520230000000  0.5029700000000 1.0
C      1  0.5334190000000  0.4501490000000  0.4326360000000 1.0
C      1  0.5395510000000  0.5494810000000  0.5662340000000 1.0
C      1  0.4209980000000  0.5486970000000  0.4994950000000 1.0
C      1  0.5405340000000  0.5467040000000  0.4325100000000 1.0
C      1  0.5520640000000  0.4261380000000  0.4696250000000 1.0
C      1  0.4958670000000  0.4348580000000  0.5558830000000 1.0
C      1  0.4562610000000  0.4303970000000  0.4658940000000 1.0
C      1  0.5538630000000  0.5706150000000  0.4752370000000 1.0
C      1  0.4966050000000  0.5694770000000  0.5596310000000 1.0
C      1  0.4485620000000  0.5705570000000  0.4665980000000 1.0
C      1  0.5216110000000  0.5416280000000  0.5177360000000 1.0
C      1  0.4757880000000  0.5461660000000  0.5056350000000 1.0
C      1  0.5105890000000  0.5401010000000  0.4715590000000 1.0
C      1  0.5155190000000  0.4578110000000  0.5234280000000 1.0
C      1  0.4700650000000  0.4668330000000  0.5087390000000 1.0
C      1  0.5032340000000  0.4556480000000  0.4762310000000 1.0
C      1  0.4958440000000  0.4796560000000  0.5800500000000 1.0
C      1  0.4361450000000  0.4783430000000  0.4600960000000 1.0
C      1  0.5644910000000  0.4750340000000  0.4635330000000 1.0
C      1  0.4992660000000  0.5232760000000  0.5779770000000 1.0
C      1  0.4340820000000  0.5221260000000  0.4590580000000 1.0
C      1  0.5714350000000  0.5253930000000  0.4664420000000 1.0
C      1  0.5291570000000  0.5858940000000  0.4738500000000 1.0
C      1  0.5111860000000  0.5882950000000  0.5428420000000 1.0
C      1  0.4591490000000  0.5842900000000  0.4908730000000 1.0
C      1  0.5245660000000  0.4166250000000  0.4756410000000 1.0
C      1  0.5139380000000  0.4150100000000  0.5433810000000 1.0
C      1  0.4662360000000  0.4100290000000  0.4845850000000 1.0
C      1  0.4921780000000  0.5995810000000  0.5239790000000 1.0
C      1  0.4858860000000  0.5897160000000  0.4815760000000 1.0
C      1  0.5228670000000  0.5957790000000  0.5008840000000 1.0
C      1  0.5008290000000  0.4011930000000  0.5189230000000 1.0
C      1  0.4836880000000  0.3918560000000  0.4717390000000 1.0
C      1  0.5259490000000  0.4045360000000  0.5022540000000 1.0
C      1  0.5778730000000  0.4823190000000  0.4902190000000 1.0
C      1  0.4666360000000  0.4888610000000  0.5759380000000 1.0
C      1  0.4529870000000  0.4848850000000  0.4354370000000 1.0
C      1  0.5796710000000  0.5126320000000  0.4919460000000 1.0
C      1  0.4687020000000  0.5190750000000  0.5757260000000 1.0
C      1  0.4518080000000  0.5151900000000  0.4341520000000 1.0
C      1  0.4895160000000  0.4798430000000  0.4672420000000 1.0
C      1  0.5328250000000  0.4745350000000  0.5079130000000 1.0
C      1  0.4766810000000  0.4840200000000  0.5297080000000 1.0
C      1  0.4875290000000  0.5240560000000  0.4655040000000 1.0
C      1  0.5341690000000  0.5189580000000  0.5051750000000 1.0
C      1  0.4782100000000  0.5281150000000  0.5278630000000 1.0
C      1  0.4661700000000  0.5866830000000  0.5208690000000 1.0
C      1  0.5025040000000  0.5818400000000  0.4594130000000 1.0
C      1  0.5344930000000  0.5833150000000  0.5244990000000 1.0
C      1  0.4794930000000  0.4200580000000  0.5096520000000 1.0
C      1  0.5046370000000  0.4044030000000  0.4575350000000 1.0
C      1  0.5399050000000  0.4208070000000  0.5238200000000 1.0
C      1  0.5588810000000  0.4810770000000  0.5193230000000 1.0
C      1  0.4540950000000  0.4897170000000  0.5465440000000 1.0
C      1  0.4851320000000  0.4841940000000  0.4383790000000 1.0
C      1  0.5597360000000  0.5124780000000  0.5173830000000 1.0
C      1  0.4539600000000  0.5214110000000  0.5437000000000 1.0
C      1  0.4835430000000  0.5166590000000  0.4372830000000 1.0
C      1  0.5168460000000  0.5028120000000  0.5565140000000 1.0
C      1  0.5308120000000  0.4946760000000  0.4617880000000 1.0
C      1  0.4443200000000  0.5062740000000  0.4863990000000 1.0
C      1  0.5035250000000  0.5578960000000  0.4964890000000 1.0
C      1  0.4929920000000  0.4486290000000  0.5042300000000 1.0
END
