TITL C-3577088-510-536 -5.70066336650727e-06 125000 -261.568440631614 0 0 45 (C2) n - 1
REM
REM in /home/bkarasulu/work/CARBON/AIRSS/Generating-Clusters/EDIP-Nigel-Params/with-SteepDescent/Higher-Symm/SD-CG/HFTN-CG
REM
REM
REM
REM
REM
REM ./C.cell (12c818d87b63d06a65506943cc24bca4)
REM
REM compiler GCC version 9.2.1 20190827 (Red Hat 9.2.1-1)
REM options -cpp -mtune=generic -march=x86-64 -g -O0 -fpre-include=/usr/include/finclude/math-vector-fortran.h
REM seed -858005499 -404910414 934734808 -413852481 -1898491922 -948475678 179881285 1450638235 1386920498 -785728021 -1950393739 486423723 1507360970 1618432730 -1496941650 -138504742 -870427651 1141041785 -1647485682 1413489165 -606318220 2137148897 -2137182882 1897429002 1866494891 85938110 -1238607173 -40429751 -154041936 1027682705 1109658208 -777306724 1086559246
REM
CELL 1.54180   50.00000   50.00000   50.00000   90.00000   90.00000   90.00000
LATT -1
SFAC C  
C      1  0.4780710000000  0.5184310000000  0.4264490000000 1.0
C      1  0.4797810000000  0.5761090000000  0.4938270000000 1.0
C      1  0.4779140000000  0.5290260000000  0.5704840000000 1.0
C      1  0.4778600000000  0.4423930000000  0.5490430000000 1.0
C      1  0.4783810000000  0.4356880000000  0.4606450000000 1.0
C      1  0.5202210000000  0.4823080000000  0.4259120000000 1.0
C      1  0.5208100000000  0.4238270000000  0.4942940000000 1.0
C      1  0.5203850000000  0.4708620000000  0.5701390000000 1.0
C      1  0.5208260000000  0.5570410000000  0.5493440000000 1.0
C      1  0.5222230000000  0.5641380000000  0.4601060000000 1.0
C      1  0.4653350000000  0.5132620000000  0.5500710000000 1.0
C      1  0.4663240000000  0.4576570000000  0.5275610000000 1.0
C      1  0.4668050000000  0.4609270000000  0.4682830000000 1.0
C      1  0.4661150000000  0.5193920000000  0.4525870000000 1.0
C      1  0.4668180000000  0.5519130000000  0.5025760000000 1.0
C      1  0.5322950000000  0.4865140000000  0.5491450000000 1.0
C      1  0.5325240000000  0.5419170000000  0.5278100000000 1.0
C      1  0.5338850000000  0.5388720000000  0.4673620000000 1.0
C      1  0.5328790000000  0.4813140000000  0.4517730000000 1.0
C      1  0.5334910000000  0.4479910000000  0.5031640000000 1.0
C      1  0.5124420000000  0.4205390000000  0.5215720000000 1.0
C      1  0.5126940000000  0.4550710000000  0.4314310000000 1.0
C      1  0.5139040000000  0.5508420000000  0.4359860000000 1.0
C      1  0.5141010000000  0.5761110000000  0.5288420000000 1.0
C      1  0.5130510000000  0.4963270000000  0.5814630000000 1.0
C      1  0.4870150000000  0.5791680000000  0.5215270000000 1.0
C      1  0.4865550000000  0.5453990000000  0.4317840000000 1.0
C      1  0.4855000000000  0.4492780000000  0.4362760000000 1.0
C      1  0.4852760000000  0.4237270000000  0.5283770000000 1.0
C      1  0.4859400000000  0.5040110000000  0.5820930000000 1.0
C      1  0.4762580000000  0.5073520000000  0.5242970000000 1.0
C      1  0.4813750000000  0.4794220000000  0.5149730000000 1.0
C      1  0.4821280000000  0.4804100000000  0.4840440000000 1.0
C      1  0.4785700000000  0.5094250000000  0.4764080000000 1.0
C      1  0.4807470000000  0.5260870000000  0.5012810000000 1.0
C      1  0.5175730000000  0.4919260000000  0.5243930000000 1.0
C      1  0.5171850000000  0.5210590000000  0.5139390000000 1.0
C      1  0.5210730000000  0.5193740000000  0.4840230000000 1.0
C      1  0.5187490000000  0.4906030000000  0.4757890000000 1.0
C      1  0.5228160000000  0.4744250000000  0.5007410000000 1.0
C      1  0.5013180000000  0.5726890000000  0.4764750000000 1.0
C      1  0.4990990000000  0.4547010000000  0.5622380000000 1.0
C      1  0.5000220000000  0.4272280000000  0.4760180000000 1.0
C      1  0.4989390000000  0.5451960000000  0.5618700000000 1.0
C      1  0.4988570000000  0.5000510000000  0.4235840000000 1.0
END
