TITL C-3577080-309-717 2.28663184080983e-06 125000 -990.676869033642 0 0 161 (C1) n - 1
REM
REM in /home/bkarasulu/work/CARBON/AIRSS/Generating-Clusters/EDIP-Nigel-Params/with-SteepDescent/Higher-Symm/SD-CG/HFTN-CG
REM
REM
REM
REM
REM
REM ./C.cell (12c818d87b63d06a65506943cc24bca4)
REM
REM compiler GCC version 9.2.1 20190827 (Red Hat 9.2.1-1)
REM options -cpp -mtune=generic -march=x86-64 -g -O0 -fpre-include=/usr/include/finclude/math-vector-fortran.h
REM seed -790704449 -1762620712 -1305699476 1998863827 -728439392 1204895680 -861363432 409732007 104633592 1528111241 -1512588502 -243540946 -535465466 2112002640 720143119 955313676 1583341764 1154232828 -1794244981 -906787198 1161312223 -1010077342 -1764884080 1944824694 -1088162261 -1334951503 -1655358636 -1726604148 938261485 176509647 867429535 1976629976 -1459699720
REM
CELL 1.54180   50.00000   50.00000   50.00000   90.00000   90.00000   90.00000
LATT -1
SFAC C  
C      1  0.4061280000000  0.5507020000000  0.5374400000000 1.0
C      1  0.5078690000000  0.5500300000000  0.5973570000000 1.0
C      1  0.5974650000000  0.5475580000000  0.5253790000000 1.0
C      1  0.5545990000000  0.5512850000000  0.4154540000000 1.0
C      1  0.4369230000000  0.5550920000000  0.4208640000000 1.0
C      1  0.4876260000000  0.4334350000000  0.4161930000000 1.0
C      1  0.4162420000000  0.4309960000000  0.4843080000000 1.0
C      1  0.4587870000000  0.4314620000000  0.5757490000000 1.0
C      1  0.5602650000000  0.4313580000000  0.5644650000000 1.0
C      1  0.5763810000000  0.4320220000000  0.4636690000000 1.0
C      1  0.5752110000000  0.5838570000000  0.5019270000000 1.0
C      1  0.5243290000000  0.5895720000000  0.4251370000000 1.0
C      1  0.4350540000000  0.5914290000000  0.4547340000000 1.0
C      1  0.4396120000000  0.5873650000000  0.5432640000000 1.0
C      1  0.5225580000000  0.5859900000000  0.5689930000000 1.0
C      1  0.5170360000000  0.4908100000000  0.4354690000000 1.0
C      1  0.4438690000000  0.4965730000000  0.4592710000000 1.0
C      1  0.4499370000000  0.4893080000000  0.5403870000000 1.0
C      1  0.5237130000000  0.4889840000000  0.5636150000000 1.0
C      1  0.5691280000000  0.4921500000000  0.4994940000000 1.0
C      1  0.5041420000000  0.4432760000000  0.5835450000000 1.0
C      1  0.5803450000000  0.4419880000000  0.5222310000000 1.0
C      1  0.5438110000000  0.4422470000000  0.4303830000000 1.0
C      1  0.4463640000000  0.4469090000000  0.4355530000000 1.0
C      1  0.4234040000000  0.4404820000000  0.5306710000000 1.0
C      1  0.5694820000000  0.4760640000000  0.5843400000000 1.0
C      1  0.5993030000000  0.4760410000000  0.4602450000000 1.0
C      1  0.4926360000000  0.4791110000000  0.3935710000000 1.0
C      1  0.3980970000000  0.4763920000000  0.4743450000000 1.0
C      1  0.4433410000000  0.4779490000000  0.5902560000000 1.0
C      1  0.5374790000000  0.5863020000000  0.5448460000000 1.0
C      1  0.5558180000000  0.5839140000000  0.4811220000000 1.0
C      1  0.4979120000000  0.5897370000000  0.4359510000000 1.0
C      1  0.4373630000000  0.5901980000000  0.4832200000000 1.0
C      1  0.4677370000000  0.5857280000000  0.5476570000000 1.0
C      1  0.5032940000000  0.5189870000000  0.4271170000000 1.0
C      1  0.4304250000000  0.5186180000000  0.4746810000000 1.0
C      1  0.4559710000000  0.5165600000000  0.5553270000000 1.0
C      1  0.5416480000000  0.5152530000000  0.5621070000000 1.0
C      1  0.5710130000000  0.5149470000000  0.4794700000000 1.0
C      1  0.5522830000000  0.4155450000000  0.4272090000000 1.0
C      1  0.4444250000000  0.4199630000000  0.4274340000000 1.0
C      1  0.4130360000000  0.4143990000000  0.5279710000000 1.0
C      1  0.4999880000000  0.4165800000000  0.5916250000000 1.0
C      1  0.5854910000000  0.4157850000000  0.5312370000000 1.0
C      1  0.4938680000000  0.4584030000000  0.4749970000000 1.0
C      1  0.4756150000000  0.4489890000000  0.4977360000000 1.0
C      1  0.4892470000000  0.4554570000000  0.5239540000000 1.0
C      1  0.5183660000000  0.4504660000000  0.5188030000000 1.0
C      1  0.5208920000000  0.4517770000000  0.4851330000000 1.0
C      1  0.4853300000000  0.5863850000000  0.5218980000000 1.0
C      1  0.5202580000000  0.5951780000000  0.5210860000000 1.0
C      1  0.5266910000000  0.5861470000000  0.4919490000000 1.0
C      1  0.4976550000000  0.5904970000000  0.4665900000000 1.0
C      1  0.4679640000000  0.5876110000000  0.4917960000000 1.0
C      1  0.4232960000000  0.4539850000000  0.5028550000000 1.0
C      1  0.4774830000000  0.4553000000000  0.5751340000000 1.0
C      1  0.5654170000000  0.4546330000000  0.5459190000000 1.0
C      1  0.5609350000000  0.4556220000000  0.4524030000000 1.0
C      1  0.4732270000000  0.4580770000000  0.4264810000000 1.0
C      1  0.4083700000000  0.4103270000000  0.5014640000000 1.0
C      1  0.4735580000000  0.4111440000000  0.5881150000000 1.0
C      1  0.5758930000000  0.4096750000000  0.5560350000000 1.0
C      1  0.5715760000000  0.4110000000000  0.4458530000000 1.0
C      1  0.4679830000000  0.4135030000000  0.4154530000000 1.0
C      1  0.5997590000000  0.4478680000000  0.4633970000000 1.0
C      1  0.4947650000000  0.4503610000000  0.3941180000000 1.0
C      1  0.3982090000000  0.4482330000000  0.4708670000000 1.0
C      1  0.4407560000000  0.4492560000000  0.5891900000000 1.0
C      1  0.5664830000000  0.4479090000000  0.5865580000000 1.0
C      1  0.4754910000000  0.5152450000000  0.4343010000000 1.0
C      1  0.4315700000000  0.5110810000000  0.5030880000000 1.0
C      1  0.4831560000000  0.5127300000000  0.5656790000000 1.0
C      1  0.5616600000000  0.5065060000000  0.5426160000000 1.0
C      1  0.5552680000000  0.5097170000000  0.4552300000000 1.0
C      1  0.4789780000000  0.5504950000000  0.4024360000000 1.0
C      1  0.3978570000000  0.5477770000000  0.4927440000000 1.0
C      1  0.4631860000000  0.5489480000000  0.5868910000000 1.0
C      1  0.5723770000000  0.5475070000000  0.5639510000000 1.0
C      1  0.5834570000000  0.5477990000000  0.4504140000000 1.0
C      1  0.4241460000000  0.5623230000000  0.4909470000000 1.0
C      1  0.4731240000000  0.5584980000000  0.5598720000000 1.0
C      1  0.5511070000000  0.5583430000000  0.5444430000000 1.0
C      1  0.5593430000000  0.5578100000000  0.4657100000000 1.0
C      1  0.4864020000000  0.5622780000000  0.4288540000000 1.0
C      1  0.5768750000000  0.5566020000000  0.5087570000000 1.0
C      1  0.5310600000000  0.5622640000000  0.4256750000000 1.0
C      1  0.4353430000000  0.5644060000000  0.4470840000000 1.0
C      1  0.4321350000000  0.5605370000000  0.5396700000000 1.0
C      1  0.5156570000000  0.5588280000000  0.5719180000000 1.0
C      1  0.4504770000000  0.4662490000000  0.4973930000000 1.0
C      1  0.4779070000000  0.4703580000000  0.5476210000000 1.0
C      1  0.5392650000000  0.4683670000000  0.5357710000000 1.0
C      1  0.5423580000000  0.4689750000000  0.4728250000000 1.0
C      1  0.4888830000000  0.4732800000000  0.4487680000000 1.0
C      1  0.5198940000000  0.4194980000000  0.5158930000000 1.0
C      1  0.5224630000000  0.4208470000000  0.4855230000000 1.0
C      1  0.4976330000000  0.4101890000000  0.4756980000000 1.0
C      1  0.4798490000000  0.4177400000000  0.4969550000000 1.0
C      1  0.4937310000000  0.4084480000000  0.5203430000000 1.0
C      1  0.5920170000000  0.4840300000000  0.5660000000000 1.0
C      1  0.5884490000000  0.4849340000000  0.4337470000000 1.0
C      1  0.4644850000000  0.4888260000000  0.3957350000000 1.0
C      1  0.3917270000000  0.4850930000000  0.5020270000000 1.0
C      1  0.4680770000000  0.4871260000000  0.6042740000000 1.0
C      1  0.4543610000000  0.5106740000000  0.4145470000000 1.0
C      1  0.4067720000000  0.5063570000000  0.5179800000000 1.0
C      1  0.4882000000000  0.5077780000000  0.5941720000000 1.0
C      1  0.5901990000000  0.5051040000000  0.5439780000000 1.0
C      1  0.5668340000000  0.5062420000000  0.4290370000000 1.0
C      1  0.4563040000000  0.5430210000000  0.5395090000000 1.0
C      1  0.5280390000000  0.5404960000000  0.5503760000000 1.0
C      1  0.5592890000000  0.5400840000000  0.4898710000000 1.0
C      1  0.5103020000000  0.5461800000000  0.4400270000000 1.0
C      1  0.4415350000000  0.5474950000000  0.4708560000000 1.0
C      1  0.4002970000000  0.4955540000000  0.4514810000000 1.0
C      1  0.4234180000000  0.4960360000000  0.5774750000000 1.0
C      1  0.5518460000000  0.4949420000000  0.6000590000000 1.0
C      1  0.6101190000000  0.4943180000000  0.4816730000000 1.0
C      1  0.5165350000000  0.4966790000000  0.3910680000000 1.0
C      1  0.4281000000000  0.4938990000000  0.4335220000000 1.0
C      1  0.4183110000000  0.4883870000000  0.5470600000000 1.0
C      1  0.5198250000000  0.4894480000000  0.5947960000000 1.0
C      1  0.5970640000000  0.4894170000000  0.5118740000000 1.0
C      1  0.5396550000000  0.4893380000000  0.4120740000000 1.0
C      1  0.3937590000000  0.5342320000000  0.5185230000000 1.0
C      1  0.4842910000000  0.5363760000000  0.6033660000000 1.0
C      1  0.5952680000000  0.5346620000000  0.5500180000000 1.0
C      1  0.5755910000000  0.5353540000000  0.4248470000000 1.0
C      1  0.4519220000000  0.5389780000000  0.4034690000000 1.0
C      1  0.4443170000000  0.4694180000000  0.3962740000000 1.0
C      1  0.3877630000000  0.4645730000000  0.5207700000000 1.0
C      1  0.4842030000000  0.4673410000000  0.6159870000000 1.0
C      1  0.6052070000000  0.4634680000000  0.5518400000000 1.0
C      1  0.5795410000000  0.4643340000000  0.4167420000000 1.0
C      1  0.5478640000000  0.4945400000000  0.5207310000000 1.0
C      1  0.5320530000000  0.4949690000000  0.4608950000000 1.0
C      1  0.4732500000000  0.4982510000000  0.4567580000000 1.0
C      1  0.4533650000000  0.4937640000000  0.5107020000000 1.0
C      1  0.4969910000000  0.4936640000000  0.5499770000000 1.0
C      1  0.4961240000000  0.5597380000000  0.4718790000000 1.0
C      1  0.4679650000000  0.5560290000000  0.4853550000000 1.0
C      1  0.4727210000000  0.5412200000000  0.5129800000000 1.0
C      1  0.4965760000000  0.5579990000000  0.5195170000000 1.0
C      1  0.5138780000000  0.5581360000000  0.4956170000000 1.0
C      1  0.4304600000000  0.4664880000000  0.4207020000000 1.0
C      1  0.4058160000000  0.4610240000000  0.5427380000000 1.0
C      1  0.5096460000000  0.4627570000000  0.6045710000000 1.0
C      1  0.6026740000000  0.4613980000000  0.5231940000000 1.0
C      1  0.5518560000000  0.4616130000000  0.4095960000000 1.0
C      1  0.5567930000000  0.5219280000000  0.5875570000000 1.0
C      1  0.5997320000000  0.5207010000000  0.4718580000000 1.0
C      1  0.5051410000000  0.5231500000000  0.3973210000000 1.0
C      1  0.4016920000000  0.5210220000000  0.4658810000000 1.0
C      1  0.4375670000000  0.5217700000000  0.5786280000000 1.0
C      1  0.5256470000000  0.5179860000000  0.5202270000000 1.0
C      1  0.5295630000000  0.5330240000000  0.4952000000000 1.0
C      1  0.5164870000000  0.5140880000000  0.4766740000000 1.0
C      1  0.4879440000000  0.5112170000000  0.4788550000000 1.0
C      1  0.4786170000000  0.5118480000000  0.5063660000000 1.0
C      1  0.5008890000000  0.5038470000000  0.5230490000000 1.0
END
