TITL C-3577081-279-139 3.37910850376182e-07 125000 -25.400409851305 0 0 5 (D5h) n - 1
REM
REM in /home/bkarasulu/work/CARBON/AIRSS/Generating-Clusters/EDIP-Nigel-Params/with-SteepDescent/Higher-Symm/SD-CG/HFTN-CG
REM
REM
REM
REM
REM
REM ./C.cell (12c818d87b63d06a65506943cc24bca4)
REM
REM compiler GCC version 9.2.1 20190827 (Red Hat 9.2.1-1)
REM options -cpp -mtune=generic -march=x86-64 -g -O0 -fpre-include=/usr/include/finclude/math-vector-fortran.h
REM seed -630744562 -1462308165 216502311 -2138798009 1886838494 -1854874188 -1902006154 -576169859 998799553 -1836869409 800803445 -1190921808 326027250 -1516115923 239576395 -966363988 1497677573 1554651541 -426361561 -237434667 911885281 -1775144885 947620347 1127858897 1427883227 -2118891975 1158389960 -1117420467 -827874285 1403435425 1965836152 -868742654 69146485
REM
CELL 1.54180   50.00000   50.00000   50.00000   90.00000   90.00000   90.00000
LATT -1
SFAC C  
C      1  0.5188870000000  0.4971550000000  0.4862780000000 1.0
C      1  0.5188870000000  0.4971550000000  0.5137220000000 1.0
C      1  0.4927860000000  0.4971550000000  0.4777970000000 1.0
C      1  0.4766540000000  0.4971550000000  0.5000000000000 1.0
C      1  0.4927860000000  0.4971550000000  0.5222030000000 1.0
END
