TITL C-3577087-600-99 0.337681110684749 125000 -41.0148478295704 0 0 9 (C2v) n - 1
REM
REM in /home/bkarasulu/work/CARBON/AIRSS/Generating-Clusters/EDIP-Nigel-Params/with-SteepDescent/Higher-Symm/SD-CG/HFTN-CG
REM
REM
REM
REM
REM
REM ./C.cell (12c818d87b63d06a65506943cc24bca4)
REM
REM compiler GCC version 9.2.1 20190827 (Red Hat 9.2.1-1)
REM options -cpp -mtune=generic -march=x86-64 -g -O0 -fpre-include=/usr/include/finclude/math-vector-fortran.h
REM seed 2127751216 -1788685653 873254489 2082088527 -76246507 1946637984 -2065465726 -588150543 1942077152 -742896280 -1604882003 -699726183 -1339273254 -1318554766 242814583 -1817353182 -783935288 -1754479455 1827073981 -83695287 1932104129 704887778 1051421619 -1325646055 119709131 2101358408 -414471142 -1516299568 1222067052 1079412455 -1808942467 -552151260 -376032626
REM
CELL 1.54180   50.00000   50.00000   50.00000   90.00000   90.00000   90.00000
LATT -1
SFAC C  
C      1  0.5012060000000  0.5424960000000  0.5338840000000 1.0
C      1  0.5010120000000  0.4601350000000  0.5338440000000 1.0
C      1  0.4999070000000  0.5417990000000  0.4873300000000 1.0
C      1  0.4999590000000  0.4608830000000  0.4872850000000 1.0
C      1  0.4992780000000  0.5530870000000  0.4643570000000 1.0
C      1  0.4994290000000  0.4496200000000  0.4642970000000 1.0
C      1  0.5005160000000  0.4739320000000  0.5113360000000 1.0
C      1  0.5005650000000  0.5287230000000  0.5113640000000 1.0
C      1  0.5005590000000  0.5013270000000  0.5120920000000 1.0
END
