TITL C-3577081-279-489 -1.18267622273856e-06 125000 -508.398407390876 0 0 81 (C1) n - 1
REM
REM in /home/bkarasulu/work/CARBON/AIRSS/Generating-Clusters/EDIP-Nigel-Params/with-SteepDescent/Higher-Symm/SD-CG/HFTN-CG
REM
REM
REM
REM
REM
REM ./C.cell (12c818d87b63d06a65506943cc24bca4)
REM
REM compiler GCC version 9.2.1 20190827 (Red Hat 9.2.1-1)
REM options -cpp -mtune=generic -march=x86-64 -g -O0 -fpre-include=/usr/include/finclude/math-vector-fortran.h
REM seed -1798361600 -1975647569 397314221 -848794812 -582646970 -575549540 -1800338577 -1899528066 1916681341 -1070272842 335713720 891938785 -1205040118 858346724 720007675 545816215 -730683987 1999507317 -20273960 -788597150 1227464942 429233332 -490736883 1507213656 940845471 -189985478 -1935191955 982358995 -2034061567 152671113 -659204013 412372390 510983810
REM
CELL 1.54180   50.00000   50.00000   50.00000   90.00000   90.00000   90.00000
LATT -1
SFAC C  
C      1  0.4856340000000  0.5852440000000  0.5202930000000 1.0
C      1  0.4761730000000  0.5849030000000  0.4924200000000 1.0
C      1  0.4997970000000  0.5859980000000  0.4749030000000 1.0
C      1  0.5239050000000  0.5858140000000  0.4920020000000 1.0
C      1  0.5149630000000  0.5849900000000  0.5199770000000 1.0
C      1  0.5045000000000  0.4404250000000  0.4690450000000 1.0
C      1  0.5305290000000  0.4391260000000  0.4895740000000 1.0
C      1  0.5219990000000  0.4403830000000  0.5212650000000 1.0
C      1  0.4791520000000  0.4420580000000  0.5314180000000 1.0
C      1  0.4633990000000  0.4400990000000  0.4857320000000 1.0
C      1  0.5177330000000  0.4746450000000  0.5639410000000 1.0
C      1  0.4431680000000  0.4761880000000  0.5364930000000 1.0
C      1  0.4506950000000  0.4767800000000  0.4555960000000 1.0
C      1  0.5270110000000  0.4762510000000  0.4376260000000 1.0
C      1  0.5671570000000  0.4760870000000  0.5045610000000 1.0
C      1  0.5240930000000  0.3951820000000  0.4919790000000 1.0
C      1  0.5153260000000  0.3966610000000  0.5204810000000 1.0
C      1  0.4857840000000  0.3996080000000  0.5210430000000 1.0
C      1  0.4760380000000  0.3984580000000  0.4929020000000 1.0
C      1  0.4997160000000  0.3967090000000  0.4749750000000 1.0
C      1  0.5016810000000  0.4684290000000  0.4523470000000 1.0
C      1  0.5467030000000  0.4662570000000  0.4836000000000 1.0
C      1  0.5298010000000  0.4673080000000  0.5362450000000 1.0
C      1  0.4728620000000  0.4703660000000  0.5400460000000 1.0
C      1  0.4544170000000  0.4686250000000  0.4846510000000 1.0
C      1  0.5445700000000  0.4138700000000  0.4849140000000 1.0
C      1  0.5294520000000  0.4161190000000  0.5354210000000 1.0
C      1  0.4737310000000  0.4162550000000  0.5413240000000 1.0
C      1  0.4532560000000  0.4138140000000  0.4841010000000 1.0
C      1  0.5013520000000  0.4157340000000  0.4539730000000 1.0
C      1  0.4705400000000  0.5712780000000  0.5413680000000 1.0
C      1  0.4502960000000  0.5727800000000  0.4838510000000 1.0
C      1  0.4999760000000  0.5723440000000  0.4487270000000 1.0
C      1  0.5500830000000  0.5742100000000  0.4833680000000 1.0
C      1  0.5311050000000  0.5734520000000  0.5419320000000 1.0
C      1  0.5106870000000  0.5258470000000  0.5233980000000 1.0
C      1  0.4802600000000  0.5178730000000  0.5177200000000 1.0
C      1  0.4770980000000  0.5243780000000  0.4874250000000 1.0
C      1  0.5036760000000  0.5183560000000  0.4740370000000 1.0
C      1  0.5242740000000  0.5271130000000  0.4960120000000 1.0
C      1  0.4290140000000  0.5292150000000  0.4927690000000 1.0
C      1  0.4848850000000  0.5304360000000  0.4286900000000 1.0
C      1  0.5623660000000  0.5308410000000  0.4630280000000 1.0
C      1  0.5552050000000  0.5311550000000  0.5473630000000 1.0
C      1  0.4732000000000  0.5286490000000  0.5646530000000 1.0
C      1  0.4861450000000  0.4759780000000  0.5668030000000 1.0
C      1  0.4329400000000  0.4758470000000  0.5063550000000 1.0
C      1  0.4750460000000  0.4732160000000  0.4383360000000 1.0
C      1  0.5515310000000  0.4726170000000  0.4542770000000 1.0
C      1  0.5591160000000  0.4723850000000  0.5332230000000 1.0
C      1  0.5173380000000  0.4874050000000  0.5188930000000 1.0
C      1  0.4867320000000  0.4884100000000  0.5196260000000 1.0
C      1  0.4802500000000  0.4804660000000  0.4929760000000 1.0
C      1  0.5020360000000  0.4878470000000  0.4750910000000 1.0
C      1  0.5249360000000  0.4832890000000  0.4913580000000 1.0
C      1  0.5713980000000  0.5058460000000  0.5069180000000 1.0
C      1  0.5187890000000  0.5053140000000  0.5717300000000 1.0
C      1  0.4351770000000  0.5055740000000  0.5390240000000 1.0
C      1  0.4467920000000  0.5055500000000  0.4500390000000 1.0
C      1  0.5304380000000  0.5054820000000  0.4325430000000 1.0
C      1  0.5698510000000  0.5082780000000  0.5357990000000 1.0
C      1  0.4888530000000  0.5055690000000  0.5770200000000 1.0
C      1  0.4220390000000  0.5057620000000  0.5112700000000 1.0
C      1  0.4659860000000  0.5079820000000  0.4280460000000 1.0
C      1  0.5569500000000  0.5083210000000  0.4445520000000 1.0
C      1  0.4351370000000  0.5565290000000  0.5052880000000 1.0
C      1  0.4749820000000  0.5572860000000  0.4398050000000 1.0
C      1  0.5494910000000  0.5578590000000  0.4570700000000 1.0
C      1  0.5565070000000  0.5582410000000  0.5334220000000 1.0
C      1  0.4860170000000  0.5561770000000  0.5628700000000 1.0
C      1  0.5228760000000  0.5538950000000  0.4438980000000 1.0
C      1  0.5629200000000  0.5554010000000  0.5038150000000 1.0
C      1  0.5162730000000  0.5553190000000  0.5616390000000 1.0
C      1  0.4483360000000  0.5533630000000  0.5322110000000 1.0
C      1  0.4519520000000  0.5544510000000  0.4594370000000 1.0
C      1  0.5254040000000  0.5279130000000  0.5519590000000 1.0
C      1  0.4579190000000  0.5254820000000  0.5388130000000 1.0
C      1  0.4509970000000  0.5265850000000  0.4719490000000 1.0
C      1  0.5108860000000  0.5261090000000  0.4438570000000 1.0
C      1  0.5552150000000  0.5278790000000  0.4926160000000 1.0
C      1  0.4881610000000  0.4396600000000  0.5028650000000 1.0
END
