TITL C-3578195-8548-731 -3.3135821783003e-06 125000 -868.175658889568 0 0 140 (C2) n - 1
REM
REM in /home/bkarasulu/work/CARBON/AIRSS/Generating-Clusters/EDIP-Nigel-Params/with-SteepDescent/Higher-Symm/SD-CG/HFTN-CG
REM
REM
REM
REM
REM
REM ./C.cell (12c818d87b63d06a65506943cc24bca4)
REM
REM compiler GCC version 9.2.1 20190827 (Red Hat 9.2.1-1)
REM options -cpp -mtune=generic -march=x86-64 -g -O0 -fpre-include=/usr/include/finclude/math-vector-fortran.h
REM seed 1838417676 -1556406912 315659286 481800192 -1991887219 -465251687 1291895313 -1801849469 1966094857 -2054910821 549520977 1259138375 -1660500914 1004237868 1326933155 -1084947785 -512945813 1481624595 276106982 -1500836513 -361187249 -498608841 -1958982671 -18708880 2041221588 -1078911765 -1180928151 -867654387 394951173 -1386830135 962454108 563440951 451869222
REM
CELL 1.54180   50.00000   50.00000   50.00000   90.00000   90.00000   90.00000
LATT -1
SFAC C  
C      1  0.6015960000000  0.5275370000000  0.4629240000000 1.0
C      1  0.6015780000000  0.4541780000000  0.4939570000000 1.0
C      1  0.6009670000000  0.5218620000000  0.5461390000000 1.0
C      1  0.3990310000000  0.5274120000000  0.5371970000000 1.0
C      1  0.3991430000000  0.4540740000000  0.5061150000000 1.0
C      1  0.3996640000000  0.5217860000000  0.4539910000000 1.0
C      1  0.4360180000000  0.4499880000000  0.4821740000000 1.0
C      1  0.4397980000000  0.5100410000000  0.5513520000000 1.0
C      1  0.4418260000000  0.5382300000000  0.4653470000000 1.0
C      1  0.5647370000000  0.4499920000000  0.5179150000000 1.0
C      1  0.5608560000000  0.5100770000000  0.4487600000000 1.0
C      1  0.5588070000000  0.5382330000000  0.5347800000000 1.0
C      1  0.5648170000000  0.5645620000000  0.5474890000000 1.0
C      1  0.5680410000000  0.5089870000000  0.4195390000000 1.0
C      1  0.5686810000000  0.4256180000000  0.5333120000000 1.0
C      1  0.4357410000000  0.5645310000000  0.4526030000000 1.0
C      1  0.4325930000000  0.5088390000000  0.5805690000000 1.0
C      1  0.4320690000000  0.4256130000000  0.4667510000000 1.0
C      1  0.5402800000000  0.4832070000000  0.4760650000000 1.0
C      1  0.5428020000000  0.4880450000000  0.5238740000000 1.0
C      1  0.5414520000000  0.5263970000000  0.4956880000000 1.0
C      1  0.4604310000000  0.4832560000000  0.5240480000000 1.0
C      1  0.4578960000000  0.4880860000000  0.4762610000000 1.0
C      1  0.4592370000000  0.5264980000000  0.5044450000000 1.0
C      1  0.4717820000000  0.4615800000000  0.4844930000000 1.0
C      1  0.4738960000000  0.5036700000000  0.5421720000000 1.0
C      1  0.4717330000000  0.5322650000000  0.4766370000000 1.0
C      1  0.5289000000000  0.4615610000000  0.5156230000000 1.0
C      1  0.5268360000000  0.5036060000000  0.4579270000000 1.0
C      1  0.5289740000000  0.5321890000000  0.5234970000000 1.0
C      1  0.4042770000000  0.5479480000000  0.4679500000000 1.0
C      1  0.4045240000000  0.4521280000000  0.4750490000000 1.0
C      1  0.4014200000000  0.5059440000000  0.5579840000000 1.0
C      1  0.5963340000000  0.5480310000000  0.5321890000000 1.0
C      1  0.5961730000000  0.4522040000000  0.5250300000000 1.0
C      1  0.5992310000000  0.5060870000000  0.4421080000000 1.0
C      1  0.4281750000000  0.4676870000000  0.5502490000000 1.0
C      1  0.4362660000000  0.5452880000000  0.5114600000000 1.0
C      1  0.4352150000000  0.4873500000000  0.4547600000000 1.0
C      1  0.5725470000000  0.4677430000000  0.4498180000000 1.0
C      1  0.5643300000000  0.5452700000000  0.4886990000000 1.0
C      1  0.5654700000000  0.4873620000000  0.5453830000000 1.0
C      1  0.5409600000000  0.5495070000000  0.4234410000000 1.0
C      1  0.5392450000000  0.4108450000000  0.4970190000000 1.0
C      1  0.5369470000000  0.5400650000000  0.5799240000000 1.0
C      1  0.4595770000000  0.5493980000000  0.5767790000000 1.0
C      1  0.4614960000000  0.4108260000000  0.5030500000000 1.0
C      1  0.4635900000000  0.5400630000000  0.4201420000000 1.0
C      1  0.4986680000000  0.4890150000000  0.4493890000000 1.0
C      1  0.5030800000000  0.4607060000000  0.5326430000000 1.0
C      1  0.5020360000000  0.5475900000000  0.5167250000000 1.0
C      1  0.5020080000000  0.4889920000000  0.5507370000000 1.0
C      1  0.4976020000000  0.4607350000000  0.4674780000000 1.0
C      1  0.4988920000000  0.5476760000000  0.4833000000000 1.0
C      1  0.5256570000000  0.4641490000000  0.5698580000000 1.0
C      1  0.5253290000000  0.5788330000000  0.4970680000000 1.0
C      1  0.5274180000000  0.4563180000000  0.4286860000000 1.0
C      1  0.4750300000000  0.4641690000000  0.4302570000000 1.0
C      1  0.4748350000000  0.5791790000000  0.5029940000000 1.0
C      1  0.4732820000000  0.4562520000000  0.5713940000000 1.0
C      1  0.4572500000000  0.4125210000000  0.4735690000000 1.0
C      1  0.4564180000000  0.5228000000000  0.5898360000000 1.0
C      1  0.4597610000000  0.5651860000000  0.4359350000000 1.0
C      1  0.5434930000000  0.4125330000000  0.5265000000000 1.0
C      1  0.5441790000000  0.5229380000000  0.4103350000000 1.0
C      1  0.5407570000000  0.5651950000000  0.5641080000000 1.0
C      1  0.4281400000000  0.4463990000000  0.5114710000000 1.0
C      1  0.4280590000000  0.5367210000000  0.5398800000000 1.0
C      1  0.4291890000000  0.5167600000000  0.4473740000000 1.0
C      1  0.5725830000000  0.4464480000000  0.4885970000000 1.0
C      1  0.5725370000000  0.5367850000000  0.4602670000000 1.0
C      1  0.5714520000000  0.5167890000000  0.5527640000000 1.0
C      1  0.4386920000000  0.4204150000000  0.5206680000000 1.0
C      1  0.4368540000000  0.5586600000000  0.5589720000000 1.0
C      1  0.4395130000000  0.5221460000000  0.4196850000000 1.0
C      1  0.5620340000000  0.4204630000000  0.4793930000000 1.0
C      1  0.5636680000000  0.5587640000000  0.4412470000000 1.0
C      1  0.5610750000000  0.5221820000000  0.5804370000000 1.0
C      1  0.4033220000000  0.4800010000000  0.5450770000000 1.0
C      1  0.4104470000000  0.5401260000000  0.4961390000000 1.0
C      1  0.4078320000000  0.4789700000000  0.4638080000000 1.0
C      1  0.5973610000000  0.4801290000000  0.4550020000000 1.0
C      1  0.5901840000000  0.5402020000000  0.5039930000000 1.0
C      1  0.5928580000000  0.4790250000000  0.5363120000000 1.0
C      1  0.6073310000000  0.4797200000000  0.4819600000000 1.0
C      1  0.6087990000000  0.5013280000000  0.5272120000000 1.0
C      1  0.6059850000000  0.5171770000000  0.4917720000000 1.0
C      1  0.3933540000000  0.4796040000000  0.5181180000000 1.0
C      1  0.3918470000000  0.5012380000000  0.4729040000000 1.0
C      1  0.3946790000000  0.5170740000000  0.5083470000000 1.0
C      1  0.4833570000000  0.5681670000000  0.4534840000000 1.0
C      1  0.4819640000000  0.4251010000000  0.4627460000000 1.0
C      1  0.4816370000000  0.5080970000000  0.5851750000000 1.0
C      1  0.5171150000000  0.5681050000000  0.5465640000000 1.0
C      1  0.5187610000000  0.4250790000000  0.5373460000000 1.0
C      1  0.5189830000000  0.5081870000000  0.4149480000000 1.0
C      1  0.5219780000000  0.4624960000000  0.4860240000000 1.0
C      1  0.5225020000000  0.5058070000000  0.5364310000000 1.0
C      1  0.5209990000000  0.5286010000000  0.4744800000000 1.0
C      1  0.4787060000000  0.4625040000000  0.5140940000000 1.0
C      1  0.4781830000000  0.5058530000000  0.4637090000000 1.0
C      1  0.4797170000000  0.5287260000000  0.5256270000000 1.0
C      1  0.4868700000000  0.5509070000000  0.5630350000000 1.0
C      1  0.4941940000000  0.5256480000000  0.4274010000000 1.0
C      1  0.4894700000000  0.4195760000000  0.5124270000000 1.0
C      1  0.5136570000000  0.5509560000000  0.4372120000000 1.0
C      1  0.5064550000000  0.5256390000000  0.5727160000000 1.0
C      1  0.5112590000000  0.4195570000000  0.4876500000000 1.0
C      1  0.4828890000000  0.4782480000000  0.5889030000000 1.0
C      1  0.4828090000000  0.5877980000000  0.4759840000000 1.0
C      1  0.4828490000000  0.4354870000000  0.4348870000000 1.0
C      1  0.5177790000000  0.4783290000000  0.4112040000000 1.0
C      1  0.5175140000000  0.5878030000000  0.5241470000000 1.0
C      1  0.5178650000000  0.4354560000000  0.5652120000000 1.0
C      1  0.4890540000000  0.4764430000000  0.4079150000000 1.0
C      1  0.4890750000000  0.4317580000000  0.5694680000000 1.0
C      1  0.4886120000000  0.5934720000000  0.5243380000000 1.0
C      1  0.5116120000000  0.4763980000000  0.5922030000000 1.0
C      1  0.5116370000000  0.4318140000000  0.4306160000000 1.0
C      1  0.5116830000000  0.5935580000000  0.4758360000000 1.0
C      1  0.4493590000000  0.4966730000000  0.4092170000000 1.0
C      1  0.4498000000000  0.4226240000000  0.5481530000000 1.0
C      1  0.4485900000000  0.5802170000000  0.5420850000000 1.0
C      1  0.5512730000000  0.4966910000000  0.5909140000000 1.0
C      1  0.5509180000000  0.4226820000000  0.4519120000000 1.0
C      1  0.5518880000000  0.5802550000000  0.4581880000000 1.0
C      1  0.4471360000000  0.5736650000000  0.5128040000000 1.0
C      1  0.4463930000000  0.4745640000000  0.4295290000000 1.0
C      1  0.4463910000000  0.4491920000000  0.5616780000000 1.0
C      1  0.5533070000000  0.5735820000000  0.4874410000000 1.0
C      1  0.5542880000000  0.4745720000000  0.5706120000000 1.0
C      1  0.5543150000000  0.4492570000000  0.4383960000000 1.0
C      1  0.4765150000000  0.5848450000000  0.5490940000000 1.0
C      1  0.4769580000000  0.5015150000000  0.4023600000000 1.0
C      1  0.4778040000000  0.4148160000000  0.5486560000000 1.0
C      1  0.5239510000000  0.5849060000000  0.4511620000000 1.0
C      1  0.5236650000000  0.5014880000000  0.5977650000000 1.0
C      1  0.5229200000000  0.4148590000000  0.4514110000000 1.0
C      1  0.5515930000000  0.4989930000000  0.4979430000000 1.0
C      1  0.4491340000000  0.4990610000000  0.5021820000000 1.0
END
