TITL C-3577085-527-288 -1.89500988121372e-06 125000 -492.801564151398 0 0 80 (C1) n - 1
REM
REM in /home/bkarasulu/work/CARBON/AIRSS/Generating-Clusters/EDIP-Nigel-Params/with-SteepDescent/Higher-Symm/SD-CG/HFTN-CG
REM
REM
REM
REM
REM
REM ./C.cell (12c818d87b63d06a65506943cc24bca4)
REM
REM compiler GCC version 9.2.1 20190827 (Red Hat 9.2.1-1)
REM options -cpp -mtune=generic -march=x86-64 -g -O0 -fpre-include=/usr/include/finclude/math-vector-fortran.h
REM seed -1509839686 -615522900 -55306110 -56862269 708532077 -773687473 -151525962 -1298591621 1813618001 -1432199266 1109708718 438181140 -545139815 -1689555561 -2054045506 518543773 1564278969 1680759210 -1510084566 2061828262 -1562916788 -32888930 -528636071 728740874 559361045 -72810160 -706953927 1984567854 947659627 1415137609 -51836700 1554889314 -597795441
REM
CELL 1.54180   50.00000   50.00000   50.00000   90.00000   90.00000   90.00000
LATT -1
SFAC C  
C      1  0.4956870000000  0.5857640000000  0.4908270000000 1.0
C      1  0.4700640000000  0.4423810000000  0.4604330000000 1.0
C      1  0.4583310000000  0.4316280000000  0.5364510000000 1.0
C      1  0.5271090000000  0.4902490000000  0.4163390000000 1.0
C      1  0.5187790000000  0.4979870000000  0.5079580000000 1.0
C      1  0.5720710000000  0.4423350000000  0.4824280000000 1.0
C      1  0.5318270000000  0.5449740000000  0.4985070000000 1.0
C      1  0.4479240000000  0.4780060000000  0.5497530000000 1.0
C      1  0.4570130000000  0.5650820000000  0.4959490000000 1.0
C      1  0.4717700000000  0.5001480000000  0.4892720000000 1.0
C      1  0.5747710000000  0.4993130000000  0.5240400000000 1.0
C      1  0.5362060000000  0.5688140000000  0.5150660000000 1.0
C      1  0.5830060000000  0.4670860000000  0.4887280000000 1.0
C      1  0.4285590000000  0.5195010000000  0.5075300000000 1.0
C      1  0.5002390000000  0.5695470000000  0.5474360000000 1.0
C      1  0.4329880000000  0.4503960000000  0.4928920000000 1.0
C      1  0.5131380000000  0.4670500000000  0.4087330000000 1.0
C      1  0.4894920000000  0.4807590000000  0.5264820000000 1.0
C      1  0.5070330000000  0.5126500000000  0.5627170000000 1.0
C      1  0.4843010000000  0.4536540000000  0.5680700000000 1.0
C      1  0.4998430000000  0.5098460000000  0.4878300000000 1.0
C      1  0.5271130000000  0.4220480000000  0.4942350000000 1.0
C      1  0.4299430000000  0.4998350000000  0.4630060000000 1.0
C      1  0.5441000000000  0.5185590000000  0.5104590000000 1.0
C      1  0.5512680000000  0.5184250000000  0.5651500000000 1.0
C      1  0.5344560000000  0.5357900000000  0.4505790000000 1.0
C      1  0.4758440000000  0.5547710000000  0.5405020000000 1.0
C      1  0.5301340000000  0.4717070000000  0.5002110000000 1.0
C      1  0.5440160000000  0.4564790000000  0.5220330000000 1.0
C      1  0.5254280000000  0.5321950000000  0.5733090000000 1.0
C      1  0.5012450000000  0.4579630000000  0.4325710000000 1.0
C      1  0.5481910000000  0.4876050000000  0.4358050000000 1.0
C      1  0.5541340000000  0.4323880000000  0.5041160000000 1.0
C      1  0.5618490000000  0.4764540000000  0.5385020000000 1.0
C      1  0.4556820000000  0.5583530000000  0.4679560000000 1.0
C      1  0.4971940000000  0.4796080000000  0.4555810000000 1.0
C      1  0.4578170000000  0.5061350000000  0.4619020000000 1.0
C      1  0.5476530000000  0.4885280000000  0.5620860000000 1.0
C      1  0.4725450000000  0.4644810000000  0.5044240000000 1.0
C      1  0.4587230000000  0.5164570000000  0.5124930000000 1.0
C      1  0.5121900000000  0.5850300000000  0.5153290000000 1.0
C      1  0.5113690000000  0.5139920000000  0.4194250000000 1.0
C      1  0.5147440000000  0.4499020000000  0.4867730000000 1.0
C      1  0.5583770000000  0.5308700000000  0.5384330000000 1.0
C      1  0.4678110000000  0.4976940000000  0.5394030000000 1.0
C      1  0.5504080000000  0.5102060000000  0.4535900000000 1.0
C      1  0.4759980000000  0.4358400000000  0.5150590000000 1.0
C      1  0.4686900000000  0.5909810000000  0.4980340000000 1.0
C      1  0.5703120000000  0.5132800000000  0.4748590000000 1.0
C      1  0.5069200000000  0.5487910000000  0.4467040000000 1.0
C      1  0.5773480000000  0.4935280000000  0.4952860000000 1.0
C      1  0.4823960000000  0.5379080000000  0.4311020000000 1.0
C      1  0.5473800000000  0.5596660000000  0.5406990000000 1.0
C      1  0.4621590000000  0.5376650000000  0.5606430000000 1.0
C      1  0.5251350000000  0.5599960000000  0.5608290000000 1.0
C      1  0.4360120000000  0.5292160000000  0.5526670000000 1.0
C      1  0.4590160000000  0.4513390000000  0.5564500000000 1.0
C      1  0.4202500000000  0.5134830000000  0.5349850000000 1.0
C      1  0.4213710000000  0.4975580000000  0.4894040000000 1.0
C      1  0.5210460000000  0.4447390000000  0.5379330000000 1.0
C      1  0.4937430000000  0.5593180000000  0.4729620000000 1.0
C      1  0.4297960000000  0.4750870000000  0.5052060000000 1.0
C      1  0.5185680000000  0.4864090000000  0.5631320000000 1.0
C      1  0.5724850000000  0.5408390000000  0.4800530000000 1.0
C      1  0.4236060000000  0.4824940000000  0.5339500000000 1.0
C      1  0.5465380000000  0.5504720000000  0.4731720000000 1.0
C      1  0.4726310000000  0.5444830000000  0.5121310000000 1.0
C      1  0.5598730000000  0.4627160000000  0.4398960000000 1.0
C      1  0.4782210000000  0.5132070000000  0.5623980000000 1.0
C      1  0.5032830000000  0.4651460000000  0.5495160000000 1.0
C      1  0.4019890000000  0.4692270000000  0.5440800000000 1.0
C      1  0.4831750000000  0.5097490000000  0.4195180000000 1.0
C      1  0.5061380000000  0.4279430000000  0.5178360000000 1.0
C      1  0.4724900000000  0.4900100000000  0.4400020000000 1.0
C      1  0.4623950000000  0.5347200000000  0.4533620000000 1.0
C      1  0.5009290000000  0.5391440000000  0.4946150000000 1.0
C      1  0.4876150000000  0.4603070000000  0.4771050000000 1.0
C      1  0.4451480000000  0.4388560000000  0.4718740000000 1.0
C      1  0.4722070000000  0.4518340000000  0.4331650000000 1.0
C      1  0.5627540000000  0.4414020000000  0.4560660000000 1.0
END
