TITL C-3578200-9634-515 8.17986309373249e-07 125000 -703.557837755741 0 0 112 (C1) n - 1
REM
REM in /home/bkarasulu/work/CARBON/AIRSS/Generating-Clusters/EDIP-Nigel-Params/with-SteepDescent/Higher-Symm/SD-CG/HFTN-CG
REM
REM
REM
REM
REM
REM ./C.cell (12c818d87b63d06a65506943cc24bca4)
REM
REM compiler GCC version 9.2.1 20190827 (Red Hat 9.2.1-1)
REM options -cpp -mtune=generic -march=x86-64 -g -O0 -fpre-include=/usr/include/finclude/math-vector-fortran.h
REM seed 880036645 386066172 788149837 -2083600538 1551533256 189036147 -492523943 -1435941089 964209523 1864908689 1463978113 418465733 1151773200 -561157073 -516171401 -193642101 -509562313 -1056461095 -1036213788 -2014715993 -1965275226 1651656559 -1367203008 -2130810246 -431108607 2053663158 -196332676 746864683 1700172400 91695445 -966630438 -727824822 -1367872641
REM
CELL 1.54180   50.00000   50.00000   50.00000   90.00000   90.00000   90.00000
LATT -1
SFAC C  
C      1  0.4766620000000  0.4779120000000  0.5922450000000 1.0
C      1  0.5590210000000  0.4766430000000  0.5786300000000 1.0
C      1  0.5920750000000  0.4770950000000  0.5030330000000 1.0
C      1  0.5616630000000  0.4756540000000  0.4257630000000 1.0
C      1  0.4816650000000  0.4778470000000  0.4063230000000 1.0
C      1  0.4146630000000  0.4747700000000  0.4560610000000 1.0
C      1  0.4158760000000  0.4729310000000  0.5386410000000 1.0
C      1  0.4950960000000  0.4382590000000  0.5700850000000 1.0
C      1  0.5519710000000  0.4348820000000  0.5513360000000 1.0
C      1  0.5671010000000  0.4362860000000  0.4914860000000 1.0
C      1  0.5378210000000  0.4331030000000  0.4361430000000 1.0
C      1  0.4768620000000  0.4361210000000  0.4314810000000 1.0
C      1  0.4314110000000  0.4320530000000  0.4743550000000 1.0
C      1  0.4409970000000  0.4314120000000  0.5439090000000 1.0
C      1  0.5298810000000  0.5452260000000  0.4381910000000 1.0
C      1  0.4769690000000  0.5492880000000  0.4353540000000 1.0
C      1  0.4426760000000  0.5394130000000  0.4832160000000 1.0
C      1  0.4468220000000  0.5421970000000  0.5352840000000 1.0
C      1  0.4921900000000  0.5502180000000  0.5702650000000 1.0
C      1  0.5461570000000  0.5477770000000  0.5512850000000 1.0
C      1  0.5692250000000  0.5468700000000  0.4930780000000 1.0
C      1  0.4938450000000  0.5043350000000  0.4111490000000 1.0
C      1  0.4293020000000  0.5007290000000  0.4526210000000 1.0
C      1  0.4184590000000  0.4995190000000  0.5260870000000 1.0
C      1  0.4674720000000  0.5043070000000  0.5823720000000 1.0
C      1  0.5439180000000  0.5028780000000  0.5774610000000 1.0
C      1  0.5853720000000  0.5035430000000  0.5141200000000 1.0
C      1  0.5615720000000  0.5021720000000  0.4402010000000 1.0
C      1  0.4866180000000  0.4531850000000  0.4698590000000 1.0
C      1  0.4725510000000  0.4371400000000  0.4905750000000 1.0
C      1  0.4696330000000  0.4428080000000  0.5198180000000 1.0
C      1  0.4944490000000  0.4601700000000  0.5320400000000 1.0
C      1  0.5199910000000  0.4525220000000  0.5193290000000 1.0
C      1  0.5316890000000  0.4603980000000  0.4925700000000 1.0
C      1  0.5150990000000  0.4492430000000  0.4707740000000 1.0
C      1  0.5619060000000  0.4501390000000  0.4417220000000 1.0
C      1  0.4949440000000  0.4545000000000  0.4184500000000 1.0
C      1  0.4290720000000  0.4489530000000  0.4495250000000 1.0
C      1  0.4259520000000  0.4491370000000  0.5247930000000 1.0
C      1  0.4714880000000  0.4548500000000  0.5748810000000 1.0
C      1  0.5436290000000  0.4511810000000  0.5753590000000 1.0
C      1  0.5766000000000  0.4544400000000  0.5128630000000 1.0
C      1  0.5375280000000  0.4749130000000  0.4086090000000 1.0
C      1  0.4544990000000  0.4779950000000  0.4176790000000 1.0
C      1  0.4073720000000  0.4733440000000  0.4848000000000 1.0
C      1  0.4288300000000  0.4742900000000  0.5649170000000 1.0
C      1  0.5060560000000  0.4782590000000  0.5954010000000 1.0
C      1  0.5788390000000  0.4767560000000  0.5566940000000 1.0
C      1  0.5871050000000  0.4774350000000  0.4739850000000 1.0
C      1  0.5293250000000  0.4264130000000  0.5298650000000 1.0
C      1  0.5399500000000  0.4224880000000  0.4948330000000 1.0
C      1  0.5217910000000  0.4225390000000  0.4615590000000 1.0
C      1  0.4879620000000  0.4183960000000  0.4538010000000 1.0
C      1  0.4569830000000  0.4174390000000  0.4769440000000 1.0
C      1  0.4737520000000  0.4165190000000  0.5339100000000 1.0
C      1  0.4998610000000  0.4193520000000  0.5475110000000 1.0
C      1  0.4427740000000  0.5008610000000  0.5656980000000 1.0
C      1  0.5159390000000  0.5048370000000  0.5876060000000 1.0
C      1  0.5758780000000  0.5031040000000  0.5424830000000 1.0
C      1  0.5775050000000  0.5040750000000  0.4656660000000 1.0
C      1  0.5233060000000  0.5010430000000  0.4133750000000 1.0
C      1  0.4495070000000  0.5043100000000  0.4305940000000 1.0
C      1  0.4115420000000  0.5004320000000  0.4969450000000 1.0
C      1  0.5160770000000  0.5313470000000  0.5168300000000 1.0
C      1  0.5385560000000  0.5242120000000  0.4704260000000 1.0
C      1  0.5043960000000  0.5261660000000  0.4607140000000 1.0
C      1  0.4891380000000  0.5385490000000  0.4829180000000 1.0
C      1  0.4668170000000  0.5236200000000  0.4937810000000 1.0
C      1  0.4679300000000  0.5239080000000  0.5242560000000 1.0
C      1  0.4944620000000  0.5312970000000  0.5366790000000 1.0
C      1  0.4394290000000  0.5568340000000  0.5087330000000 1.0
C      1  0.4666880000000  0.5600900000000  0.5535510000000 1.0
C      1  0.5187220000000  0.5618580000000  0.5577440000000 1.0
C      1  0.5547920000000  0.5583320000000  0.5244160000000 1.0
C      1  0.5543090000000  0.5588650000000  0.4718400000000 1.0
C      1  0.5047650000000  0.5633170000000  0.4383420000000 1.0
C      1  0.4586390000000  0.5587530000000  0.4576700000000 1.0
C      1  0.5411930000000  0.5197740000000  0.4267760000000 1.0
C      1  0.4751460000000  0.5201490000000  0.4285480000000 1.0
C      1  0.4221600000000  0.5186430000000  0.4753740000000 1.0
C      1  0.4297340000000  0.5191730000000  0.5459070000000 1.0
C      1  0.4922050000000  0.5207700000000  0.5786870000000 1.0
C      1  0.5561680000000  0.5202410000000  0.5574450000000 1.0
C      1  0.5770830000000  0.5194750000000  0.4910060000000 1.0
C      1  0.5072820000000  0.6079910000000  0.4678440000000 1.0
C      1  0.4847060000000  0.6209820000000  0.4777410000000 1.0
C      1  0.4807020000000  0.6285990000000  0.5033100000000 1.0
C      1  0.4943550000000  0.6227230000000  0.5258600000000 1.0
C      1  0.5169540000000  0.6065380000000  0.5288110000000 1.0
C      1  0.5354560000000  0.6125050000000  0.5087270000000 1.0
C      1  0.5301270000000  0.6154470000000  0.4822740000000 1.0
C      1  0.5103110000000  0.5771650000000  0.5319750000000 1.0
C      1  0.5270560000000  0.5593720000000  0.5119670000000 1.0
C      1  0.5285890000000  0.5657820000000  0.4823320000000 1.0
C      1  0.5055430000000  0.5779260000000  0.4660260000000 1.0
C      1  0.4792740000000  0.5664450000000  0.4788720000000 1.0
C      1  0.4644440000000  0.5737460000000  0.5053270000000 1.0
C      1  0.4802850000000  0.5727780000000  0.5302420000000 1.0
C      1  0.4969790000000  0.4925400000000  0.5333440000000 1.0
C      1  0.5200650000000  0.5026020000000  0.5152250000000 1.0
C      1  0.5306000000000  0.4919250000000  0.4897560000000 1.0
C      1  0.5101890000000  0.4964920000000  0.4662890000000 1.0
C      1  0.4850140000000  0.4822700000000  0.4725170000000 1.0
C      1  0.4664680000000  0.4941440000000  0.4910420000000 1.0
C      1  0.4679260000000  0.4853610000000  0.5196480000000 1.0
C      1  0.4443420000000  0.4487820000000  0.5680260000000 1.0
C      1  0.5157560000000  0.4556700000000  0.5794070000000 1.0
C      1  0.5749110000000  0.4509570000000  0.5412960000000 1.0
C      1  0.5688220000000  0.4551940000000  0.4691510000000 1.0
C      1  0.5230960000000  0.4494340000000  0.4149300000000 1.0
C      1  0.4535390000000  0.4539820000000  0.4347710000000 1.0
C      1  0.4221290000000  0.4503710000000  0.4960370000000 1.0
END
