TITL C-3578197-9521-409 -2.53009533621402e-07 125000 -61.6167348853866 0 0 11 (C1) n - 1
REM
REM in /home/bkarasulu/work/CARBON/AIRSS/Generating-Clusters/EDIP-Nigel-Params/with-SteepDescent/Higher-Symm/SD-CG/HFTN-CG
REM
REM
REM
REM
REM
REM ./C.cell (12c818d87b63d06a65506943cc24bca4)
REM
REM compiler GCC version 9.2.1 20190827 (Red Hat 9.2.1-1)
REM options -cpp -mtune=generic -march=x86-64 -g -O0 -fpre-include=/usr/include/finclude/math-vector-fortran.h
REM seed 653030344 780849599 -292789366 -803097758 -1367782252 -1541692046 813451617 970454997 899535243 -1898117783 -703707168 303602872 1327152765 -646170639 1482650141 571285588 1078965566 1135234926 1918798991 593502315 -342562976 -900912139 -726611754 -1133287018 11554012 1877835025 -368720275 1881069781 682952025 -2126045567 79960912 367414151 883987864
REM
CELL 1.54180   50.00000   50.00000   50.00000   90.00000   90.00000   90.00000
LATT -1
SFAC C  
C      1  0.4977010000000  0.4767380000000  0.4747490000000 1.0
C      1  0.5215070000000  0.4961970000000  0.4734990000000 1.0
C      1  0.5106520000000  0.5238800000000  0.4784350000000 1.0
C      1  0.4808890000000  0.5228230000000  0.4830330000000 1.0
C      1  0.4737570000000  0.4931120000000  0.4848320000000 1.0
C      1  0.4782940000000  0.5324180000000  0.5103390000000 1.0
C      1  0.4802120000000  0.4850970000000  0.5146310000000 1.0
C      1  0.5055280000000  0.4701710000000  0.5054570000000 1.0
C      1  0.5278500000000  0.4912410000000  0.5035820000000 1.0
C      1  0.5152080000000  0.5188940000000  0.5109300000000 1.0
C      1  0.4886590000000  0.5111810000000  0.5269780000000 1.0
END
