TITL C-3577084-3642-743 -7.67737680274513e-07 125000 -787.110683275688 0 0 127 (C1) n - 1
REM
REM in /home/bkarasulu/work/CARBON/AIRSS/Generating-Clusters/EDIP-Nigel-Params/with-SteepDescent/Higher-Symm/SD-CG/HFTN-CG
REM
REM
REM
REM
REM
REM ./C.cell (12c818d87b63d06a65506943cc24bca4)
REM
REM compiler GCC version 9.2.1 20190827 (Red Hat 9.2.1-1)
REM options -cpp -mtune=generic -march=x86-64 -g -O0 -fpre-include=/usr/include/finclude/math-vector-fortran.h
REM seed 478514336 1742789942 -1765357004 -1021072275 734624149 301223389 2088371340 782979068 154897300 -176017710 2099859179 -1613950790 1222311847 538854003 -311193332 1366203142 1023315299 1889872992 746034085 95094122 -2089401237 -278848798 -1496153790 -1231441370 -64928586 -2110227482 1350102283 -1212357598 1498648633 -752568135 1839359059 -1467020238 756815147
REM
CELL 1.54180   50.00000   50.00000   50.00000   90.00000   90.00000   90.00000
LATT -1
SFAC C  
C      1  0.4705810000000  0.5745170000000  0.4344230000000 1.0
C      1  0.4322070000000  0.4716290000000  0.5859890000000 1.0
C      1  0.5738490000000  0.4387020000000  0.4737410000000 1.0
C      1  0.5203090000000  0.4262490000000  0.4441350000000 1.0
C      1  0.5226550000000  0.5796900000000  0.5532490000000 1.0
C      1  0.4783060000000  0.4229170000000  0.5553860000000 1.0
C      1  0.5595630000000  0.5177680000000  0.5787700000000 1.0
C      1  0.5631810000000  0.4770100000000  0.4167120000000 1.0
C      1  0.4476300000000  0.5177610000000  0.4244330000000 1.0
C      1  0.4196650000000  0.5637890000000  0.4742700000000 1.0
C      1  0.4218930000000  0.4366530000000  0.5251290000000 1.0
C      1  0.5738800000000  0.5620300000000  0.5258260000000 1.0
C      1  0.4877260000000  0.3989830000000  0.5440960000000 1.0
C      1  0.5470350000000  0.4939190000000  0.3993650000000 1.0
C      1  0.4033680000000  0.5469830000000  0.4916080000000 1.0
C      1  0.5035780000000  0.5984090000000  0.5430820000000 1.0
C      1  0.5010820000000  0.4075580000000  0.4543510000000 1.0
C      1  0.4868570000000  0.5932120000000  0.4496140000000 1.0
C      1  0.4563190000000  0.5035950000000  0.4016770000000 1.0
C      1  0.4482270000000  0.4884080000000  0.6038050000000 1.0
C      1  0.5364120000000  0.5012260000000  0.5868520000000 1.0
C      1  0.5936980000000  0.4522680000000  0.4901060000000 1.0
C      1  0.5913100000000  0.5475340000000  0.5075410000000 1.0
C      1  0.4055750000000  0.4554810000000  0.5104560000000 1.0
C      1  0.5588920000000  0.5699690000000  0.4586420000000 1.0
C      1  0.4602440000000  0.5597190000000  0.5676980000000 1.0
C      1  0.5665490000000  0.4519970000000  0.5644440000000 1.0
C      1  0.4329590000000  0.4398860000000  0.4563030000000 1.0
C      1  0.4429310000000  0.5604330000000  0.5421060000000 1.0
C      1  0.5694960000000  0.4339460000000  0.5433910000000 1.0
C      1  0.5390170000000  0.4554580000000  0.5739910000000 1.0
C      1  0.5390630000000  0.5640040000000  0.4350560000000 1.0
C      1  0.4549840000000  0.4466000000000  0.4389540000000 1.0
C      1  0.4388160000000  0.5382520000000  0.5622670000000 1.0
C      1  0.4344810000000  0.4526500000000  0.4199650000000 1.0
C      1  0.5634300000000  0.5457220000000  0.4394810000000 1.0
C      1  0.4817000000000  0.5167510000000  0.3959930000000 1.0
C      1  0.4104340000000  0.4816360000000  0.5202390000000 1.0
C      1  0.5128180000000  0.4008450000000  0.4802460000000 1.0
C      1  0.5194500000000  0.4858080000000  0.4014870000000 1.0
C      1  0.5143080000000  0.5185120000000  0.5955530000000 1.0
C      1  0.4759750000000  0.4807370000000  0.6033270000000 1.0
C      1  0.5911560000000  0.5195450000000  0.5149000000000 1.0
C      1  0.5988910000000  0.4793280000000  0.4813800000000 1.0
C      1  0.4045780000000  0.5194370000000  0.4831720000000 1.0
C      1  0.4847740000000  0.5871370000000  0.4774780000000 1.0
C      1  0.4779340000000  0.3984690000000  0.5177930000000 1.0
C      1  0.5134550000000  0.6015360000000  0.5156180000000 1.0
C      1  0.5144000000000  0.5780330000000  0.4283250000000 1.0
C      1  0.4363380000000  0.5151680000000  0.5791080000000 1.0
C      1  0.5764910000000  0.4309130000000  0.5169640000000 1.0
C      1  0.4779690000000  0.4301790000000  0.4333770000000 1.0
C      1  0.4814760000000  0.5790290000000  0.5683640000000 1.0
C      1  0.5201530000000  0.4358490000000  0.5632910000000 1.0
C      1  0.5799740000000  0.4764060000000  0.5637210000000 1.0
C      1  0.5628420000000  0.5202060000000  0.4234000000000 1.0
C      1  0.4288620000000  0.4796820000000  0.4143770000000 1.0
C      1  0.4286470000000  0.5595980000000  0.5173150000000 1.0
C      1  0.4327780000000  0.4501520000000  0.4842390000000 1.0
C      1  0.5751960000000  0.5719950000000  0.4827170000000 1.0
C      1  0.5617770000000  0.5814390000000  0.5069330000000 1.0
C      1  0.5076740000000  0.5676390000000  0.5753810000000 1.0
C      1  0.5771590000000  0.5039090000000  0.5595080000000 1.0
C      1  0.4373760000000  0.4254620000000  0.5023310000000 1.0
C      1  0.4403140000000  0.5717030000000  0.4936810000000 1.0
C      1  0.5607310000000  0.4209240000000  0.4937450000000 1.0
C      1  0.4942770000000  0.4340760000000  0.5785380000000 1.0
C      1  0.4915920000000  0.5635030000000  0.4165920000000 1.0
C      1  0.5046590000000  0.4412430000000  0.4247620000000 1.0
C      1  0.4249280000000  0.4920570000000  0.5662990000000 1.0
C      1  0.4272910000000  0.5003480000000  0.4365190000000 1.0
C      1  0.5809950000000  0.4959860000000  0.4322710000000 1.0
C      1  0.5281240000000  0.4819380000000  0.5642680000000 1.0
C      1  0.5441800000000  0.5216280000000  0.4939100000000 1.0
C      1  0.4986180000000  0.5453450000000  0.5247290000000 1.0
C      1  0.4829700000000  0.5022740000000  0.5488010000000 1.0
C      1  0.4798890000000  0.5067160000000  0.4616810000000 1.0
C      1  0.5377910000000  0.5119550000000  0.4517900000000 1.0
C      1  0.4541890000000  0.4717760000000  0.4878910000000 1.0
C      1  0.4587230000000  0.5176580000000  0.5059830000000 1.0
C      1  0.5239140000000  0.4641750000000  0.5199860000000 1.0
C      1  0.5110180000000  0.4476290000000  0.5387020000000 1.0
C      1  0.5237100000000  0.5319500000000  0.4717650000000 1.0
C      1  0.5048120000000  0.4634770000000  0.4737440000000 1.0
C      1  0.4282010000000  0.5161200000000  0.4644680000000 1.0
C      1  0.4654010000000  0.4237630000000  0.5096130000000 1.0
C      1  0.5125170000000  0.4711760000000  0.4280790000000 1.0
C      1  0.5775920000000  0.4871450000000  0.4619270000000 1.0
C      1  0.5679340000000  0.5135910000000  0.5327870000000 1.0
C      1  0.4342380000000  0.4828960000000  0.5387610000000 1.0
C      1  0.5319890000000  0.5792430000000  0.5076840000000 1.0
C      1  0.5306690000000  0.4227780000000  0.4902480000000 1.0
C      1  0.4676680000000  0.5630450000000  0.4828370000000 1.0
C      1  0.4911790000000  0.5336340000000  0.4188380000000 1.0
C      1  0.4791990000000  0.4615070000000  0.5797530000000 1.0
C      1  0.5163790000000  0.5379860000000  0.5715130000000 1.0
C      1  0.4961340000000  0.4773670000000  0.5588920000000 1.0
C      1  0.5536310000000  0.4997520000000  0.4743960000000 1.0
C      1  0.4805810000000  0.5389350000000  0.5001390000000 1.0
C      1  0.5026080000000  0.5250800000000  0.5460330000000 1.0
C      1  0.4955840000000  0.4814470000000  0.4522860000000 1.0
C      1  0.4977700000000  0.5210880000000  0.4817550000000 1.0
C      1  0.4539330000000  0.5020540000000  0.4799820000000 1.0
C      1  0.4625880000000  0.4960210000000  0.5272930000000 1.0
C      1  0.5388850000000  0.4869830000000  0.5335930000000 1.0
C      1  0.5019880000000  0.4733060000000  0.5015250000000 1.0
C      1  0.5271180000000  0.5119190000000  0.5186630000000 1.0
C      1  0.4726560000000  0.4705210000000  0.5119000000000 1.0
C      1  0.4415040000000  0.4527560000000  0.5426480000000 1.0
C      1  0.5265600000000  0.4430010000000  0.4681280000000 1.0
C      1  0.4710700000000  0.5271440000000  0.4400500000000 1.0
C      1  0.5531190000000  0.5426190000000  0.5370370000000 1.0
C      1  0.5526600000000  0.4571790000000  0.4629160000000 1.0
C      1  0.4327600000000  0.5457890000000  0.4553500000000 1.0
C      1  0.4614270000000  0.5529140000000  0.4534150000000 1.0
C      1  0.4678650000000  0.4446030000000  0.5305150000000 1.0
C      1  0.5257050000000  0.5605370000000  0.5298950000000 1.0
C      1  0.5423810000000  0.4754200000000  0.4391370000000 1.0
C      1  0.5466390000000  0.5410120000000  0.5663660000000 1.0
C      1  0.4498260000000  0.4527700000000  0.5719970000000 1.0
C      1  0.5008810000000  0.4994630000000  0.3864870000000 1.0
C      1  0.4927310000000  0.5028660000000  0.6034700000000 1.0
C      1  0.4022540000000  0.5019850000000  0.5040310000000 1.0
C      1  0.4958660000000  0.3888170000000  0.4987950000000 1.0
C      1  0.6029460000000  0.4992060000000  0.5001980000000 1.0
C      1  0.4936830000000  0.6049800000000  0.4966410000000 1.0
C      1  0.5055780000000  0.5016260000000  0.5019670000000 1.0
END
