TITL C-3578204-4308-657 -1.50759983165515e-07 125000 -591.287939819971 0 0 95 (C1) n - 1
REM
REM in /home/bkarasulu/work/CARBON/AIRSS/Generating-Clusters/EDIP-Nigel-Params/with-SteepDescent/Higher-Symm/SD-CG/HFTN-CG
REM
REM
REM
REM
REM
REM ./C.cell (12c818d87b63d06a65506943cc24bca4)
REM
REM compiler GCC version 9.2.1 20190827 (Red Hat 9.2.1-1)
REM options -cpp -mtune=generic -march=x86-64 -g -O0 -fpre-include=/usr/include/finclude/math-vector-fortran.h
REM seed 668762904 1486935846 -1477680646 -275354826 1656412907 -1917736113 170244567 1934745004 -468911051 1077076807 -171071404 -1630019302 -1232769863 -606628572 -1430191949 -478742131 -743748134 -1105605304 1775879567 -782931167 -541494034 -725442113 -46384317 -337047530 1340289556 1846593715 1783517655 519839041 -1763309530 -638429792 1408814049 1238913644 -481091574
REM
CELL 1.54180   50.00000   50.00000   50.00000   90.00000   90.00000   90.00000
LATT -1
SFAC C  
C      1  0.4786880000000  0.5232090000000  0.4191510000000 1.0
C      1  0.5059170000000  0.5261720000000  0.4517810000000 1.0
C      1  0.4749700000000  0.4712430000000  0.4943120000000 1.0
C      1  0.5498060000000  0.5273120000000  0.4543940000000 1.0
C      1  0.4400660000000  0.5376150000000  0.5653930000000 1.0
C      1  0.4351550000000  0.4543470000000  0.4768910000000 1.0
C      1  0.5699500000000  0.4540180000000  0.4818970000000 1.0
C      1  0.4299340000000  0.5235650000000  0.4957210000000 1.0
C      1  0.5373480000000  0.5747010000000  0.4961110000000 1.0
C      1  0.4925050000000  0.5903620000000  0.5180090000000 1.0
C      1  0.4917140000000  0.4749690000000  0.4336770000000 1.0
C      1  0.5027560000000  0.5034420000000  0.4269460000000 1.0
C      1  0.5385510000000  0.4140590000000  0.5122780000000 1.0
C      1  0.4548980000000  0.4415430000000  0.4593600000000 1.0
C      1  0.4333440000000  0.5071740000000  0.5683660000000 1.0
C      1  0.5491150000000  0.4843500000000  0.5453870000000 1.0
C      1  0.5184800000000  0.4381870000000  0.5549890000000 1.0
C      1  0.5347710000000  0.5515440000000  0.4514570000000 1.0
C      1  0.5718860000000  0.5021150000000  0.5023340000000 1.0
C      1  0.5765880000000  0.5277850000000  0.4669750000000 1.0
C      1  0.4965760000000  0.4577240000000  0.5116420000000 1.0
C      1  0.4685470000000  0.4320760000000  0.5450950000000 1.0
C      1  0.5247940000000  0.5255660000000  0.5666140000000 1.0
C      1  0.5102420000000  0.4155100000000  0.5252180000000 1.0
C      1  0.4726600000000  0.5490220000000  0.5019240000000 1.0
C      1  0.4827360000000  0.4889340000000  0.5475360000000 1.0
C      1  0.4620170000000  0.4713340000000  0.4274330000000 1.0
C      1  0.4778200000000  0.5159160000000  0.5818160000000 1.0
C      1  0.4685540000000  0.5413190000000  0.5710900000000 1.0
C      1  0.4864960000000  0.5589040000000  0.5547370000000 1.0
C      1  0.4284290000000  0.4768520000000  0.5216400000000 1.0
C      1  0.4899880000000  0.4291760000000  0.5063880000000 1.0
C      1  0.5046130000000  0.4983250000000  0.5278750000000 1.0
C      1  0.4865630000000  0.5407050000000  0.5303920000000 1.0
C      1  0.5895400000000  0.5017130000000  0.4682680000000 1.0
C      1  0.5514860000000  0.4288680000000  0.4441310000000 1.0
C      1  0.4585300000000  0.4951130000000  0.5771840000000 1.0
C      1  0.5272340000000  0.4940530000000  0.4719560000000 1.0
C      1  0.4934750000000  0.5725120000000  0.4711260000000 1.0
C      1  0.5163130000000  0.5554830000000  0.5630060000000 1.0
C      1  0.4306500000000  0.5496890000000  0.5395690000000 1.0
C      1  0.5074260000000  0.4790810000000  0.5754360000000 1.0
C      1  0.5457810000000  0.4417490000000  0.5207750000000 1.0
C      1  0.5621030000000  0.4277040000000  0.4708280000000 1.0
C      1  0.4547600000000  0.5198500000000  0.4371940000000 1.0
C      1  0.4768660000000  0.5598580000000  0.4503550000000 1.0
C      1  0.5321990000000  0.5301620000000  0.5068530000000 1.0
C      1  0.4470100000000  0.4918150000000  0.4423250000000 1.0
C      1  0.5014850000000  0.5099400000000  0.4766650000000 1.0
C      1  0.5126020000000  0.5265980000000  0.5295840000000 1.0
C      1  0.5254880000000  0.4606140000000  0.5070570000000 1.0
C      1  0.5535190000000  0.5508830000000  0.5072150000000 1.0
C      1  0.5776010000000  0.5392480000000  0.4936620000000 1.0
C      1  0.4891210000000  0.5497470000000  0.4264560000000 1.0
C      1  0.5289580000000  0.4648900000000  0.5626670000000 1.0
C      1  0.4505610000000  0.4456290000000  0.4318310000000 1.0
C      1  0.5666360000000  0.5332130000000  0.5508860000000 1.0
C      1  0.5304950000000  0.4863560000000  0.5201500000000 1.0
C      1  0.4547720000000  0.5419170000000  0.4571400000000 1.0
C      1  0.4061480000000  0.4823860000000  0.5053070000000 1.0
C      1  0.4926420000000  0.4259560000000  0.5578570000000 1.0
C      1  0.5047850000000  0.4262000000000  0.4444390000000 1.0
C      1  0.4730880000000  0.5820410000000  0.5388570000000 1.0
C      1  0.4597700000000  0.5189510000000  0.5028410000000 1.0
C      1  0.5225120000000  0.5689970000000  0.4709780000000 1.0
C      1  0.5015010000000  0.4413940000000  0.4708360000000 1.0
C      1  0.5200760000000  0.5798350000000  0.5200510000000 1.0
C      1  0.4308210000000  0.4818640000000  0.4655410000000 1.0
C      1  0.5289800000000  0.4100920000000  0.4473170000000 1.0
C      1  0.4326250000000  0.5034980000000  0.5374850000000 1.0
C      1  0.5746470000000  0.4805600000000  0.5243230000000 1.0
C      1  0.4167200000000  0.4986340000000  0.4847380000000 1.0
C      1  0.4480520000000  0.5695640000000  0.5245360000000 1.0
C      1  0.4479160000000  0.4585300000000  0.5049870000000 1.0
C      1  0.5056160000000  0.5074750000000  0.5801890000000 1.0
C      1  0.5724990000000  0.4787800000000  0.4647930000000 1.0
C      1  0.5556080000000  0.4794630000000  0.4409130000000 1.0
C      1  0.5417900000000  0.5037100000000  0.4986310000000 1.0
C      1  0.4824860000000  0.5883130000000  0.4916630000000 1.0
C      1  0.4422620000000  0.5711120000000  0.4948600000000 1.0
C      1  0.5507270000000  0.5121970000000  0.5594490000000 1.0
C      1  0.5724570000000  0.4533680000000  0.5116390000000 1.0
C      1  0.4761770000000  0.5000620000000  0.4871670000000 1.0
C      1  0.5338870000000  0.5705970000000  0.5447940000000 1.0
C      1  0.4608040000000  0.4324520000000  0.5179050000000 1.0
C      1  0.5420590000000  0.4108410000000  0.4835440000000 1.0
C      1  0.5268610000000  0.4613260000000  0.4745800000000 1.0
C      1  0.5408640000000  0.5047200000000  0.4372600000000 1.0
C      1  0.5111810000000  0.4522720000000  0.4288310000000 1.0
C      1  0.4350760000000  0.5479260000000  0.4784920000000 1.0
C      1  0.4782460000000  0.4587010000000  0.4666970000000 1.0
C      1  0.4191320000000  0.5274940000000  0.5237430000000 1.0
C      1  0.4638120000000  0.5130830000000  0.5370610000000 1.0
C      1  0.5380220000000  0.4557170000000  0.4440880000000 1.0
C      1  0.5590630000000  0.5561310000000  0.5364540000000 1.0
END
