TITL C-3577082-504-585 3.155251125367e-07 125000 -614.592452750036 0 0 99 (C1) n - 1
REM
REM in /home/bkarasulu/work/CARBON/AIRSS/Generating-Clusters/EDIP-Nigel-Params/with-SteepDescent/Higher-Symm/SD-CG/HFTN-CG
REM
REM
REM
REM
REM
REM ./C.cell (12c818d87b63d06a65506943cc24bca4)
REM
REM compiler GCC version 9.2.1 20190827 (Red Hat 9.2.1-1)
REM options -cpp -mtune=generic -march=x86-64 -g -O0 -fpre-include=/usr/include/finclude/math-vector-fortran.h
REM seed -305791326 -1355195036 -1444744197 -1544512523 1202961516 2130745394 1280651304 -1231590808 -360025226 -1689922492 -2086472451 -1563397803 -40826075 -1371235284 1250497710 -1069381091 -193745956 -435734734 292015681 153621609 1044225867 -372717760 -445414803 -636498338 165069880 687376034 1874586572 -149879436 -1627435870 -1423735009 -341117547 805198311 1620267161
REM
CELL 1.54180   50.00000   50.00000   50.00000   90.00000   90.00000   90.00000
LATT -1
SFAC C  
C      1  0.5258800000000  0.4841050000000  0.4217550000000 1.0
C      1  0.4775100000000  0.4834020000000  0.5797900000000 1.0
C      1  0.5269200000000  0.5134370000000  0.4221740000000 1.0
C      1  0.4789130000000  0.5127880000000  0.5813930000000 1.0
C      1  0.5224010000000  0.4010360000000  0.5050220000000 1.0
C      1  0.4806500000000  0.4142030000000  0.4991580000000 1.0
C      1  0.5202250000000  0.6002080000000  0.5061050000000 1.0
C      1  0.4799630000000  0.5838330000000  0.4977520000000 1.0
C      1  0.4962510000000  0.5418350000000  0.5265880000000 1.0
C      1  0.5012490000000  0.5482850000000  0.4771470000000 1.0
C      1  0.4949950000000  0.4578390000000  0.5269660000000 1.0
C      1  0.5024750000000  0.4513950000000  0.4764040000000 1.0
C      1  0.4450930000000  0.5345600000000  0.5462770000000 1.0
C      1  0.5626070000000  0.5399810000000  0.4522980000000 1.0
C      1  0.4474950000000  0.4725670000000  0.5353020000000 1.0
C      1  0.5640700000000  0.4615370000000  0.4514820000000 1.0
C      1  0.5057820000000  0.5254140000000  0.5735830000000 1.0
C      1  0.5009090000000  0.5266500000000  0.4300480000000 1.0
C      1  0.5058910000000  0.4718260000000  0.5745310000000 1.0
C      1  0.4989180000000  0.4719240000000  0.4299470000000 1.0
C      1  0.5583660000000  0.4220700000000  0.4773860000000 1.0
C      1  0.4403910000000  0.4257690000000  0.5242600000000 1.0
C      1  0.5570210000000  0.5806170000000  0.4779800000000 1.0
C      1  0.4372830000000  0.5713900000000  0.5173030000000 1.0
C      1  0.5681050000000  0.5544940000000  0.4756330000000 1.0
C      1  0.4315960000000  0.5448240000000  0.5238120000000 1.0
C      1  0.5690120000000  0.4482340000000  0.4754700000000 1.0
C      1  0.4286280000000  0.4519330000000  0.5230690000000 1.0
C      1  0.5341260000000  0.4845310000000  0.5815860000000 1.0
C      1  0.4724200000000  0.4851990000000  0.4205670000000 1.0
C      1  0.5339030000000  0.5144630000000  0.5808260000000 1.0
C      1  0.4735570000000  0.5148330000000  0.4204750000000 1.0
C      1  0.4979280000000  0.4298680000000  0.5417550000000 1.0
C      1  0.5011650000000  0.4260680000000  0.4586920000000 1.0
C      1  0.4961910000000  0.5687070000000  0.5420670000000 1.0
C      1  0.5036530000000  0.5733420000000  0.4589220000000 1.0
C      1  0.5831460000000  0.4792340000000  0.5164790000000 1.0
C      1  0.4199780000000  0.4828240000000  0.4804190000000 1.0
C      1  0.5834060000000  0.5235490000000  0.5170700000000 1.0
C      1  0.4148380000000  0.5267430000000  0.4751460000000 1.0
C      1  0.5493210000000  0.5266440000000  0.5543490000000 1.0
C      1  0.4554600000000  0.5266000000000  0.4430020000000 1.0
C      1  0.5505550000000  0.4729630000000  0.5561340000000 1.0
C      1  0.4537440000000  0.4742520000000  0.4439290000000 1.0
C      1  0.4983400000000  0.4753090000000  0.4595830000000 1.0
C      1  0.5045440000000  0.4792400000000  0.5453260000000 1.0
C      1  0.5002380000000  0.5235440000000  0.4597080000000 1.0
C      1  0.5043900000000  0.5185400000000  0.5442380000000 1.0
C      1  0.5079190000000  0.4425590000000  0.5770190000000 1.0
C      1  0.4960770000000  0.4430300000000  0.4241060000000 1.0
C      1  0.5061810000000  0.5546920000000  0.5768900000000 1.0
C      1  0.5007980000000  0.5554280000000  0.4239510000000 1.0
C      1  0.5758300000000  0.5158340000000  0.5450960000000 1.0
C      1  0.4271710000000  0.5161520000000  0.4488280000000 1.0
C      1  0.5758930000000  0.4861140000000  0.5448690000000 1.0
C      1  0.4278310000000  0.4870770000000  0.4525160000000 1.0
C      1  0.4757740000000  0.4281000000000  0.4393300000000 1.0
C      1  0.5247090000000  0.4283610000000  0.5578550000000 1.0
C      1  0.4813620000000  0.5716390000000  0.4377150000000 1.0
C      1  0.5224780000000  0.5703490000000  0.5585910000000 1.0
C      1  0.4459710000000  0.4412830000000  0.4805370000000 1.0
C      1  0.5430010000000  0.4460260000000  0.5142550000000 1.0
C      1  0.4441010000000  0.5669120000000  0.4710920000000 1.0
C      1  0.5431520000000  0.5577560000000  0.5152490000000 1.0
C      1  0.4571250000000  0.5249270000000  0.5686780000000 1.0
C      1  0.5496670000000  0.5253870000000  0.4336560000000 1.0
C      1  0.4565100000000  0.4738210000000  0.5625900000000 1.0
C      1  0.5487830000000  0.4715770000000  0.4318310000000 1.0
C      1  0.4962940000000  0.5952370000000  0.4769420000000 1.0
C      1  0.4956630000000  0.5910490000000  0.5210600000000 1.0
C      1  0.4961750000000  0.4038640000000  0.4771950000000 1.0
C      1  0.4978490000000  0.4073690000000  0.5213190000000 1.0
C      1  0.5082020000000  0.4944480000000  0.4981180000000 1.0
C      1  0.4703890000000  0.4729510000000  0.5161520000000 1.0
C      1  0.5284190000000  0.5155180000000  0.5038110000000 1.0
C      1  0.4712090000000  0.5288670000000  0.5144190000000 1.0
C      1  0.4716490000000  0.5165860000000  0.4666270000000 1.0
C      1  0.5318770000000  0.5123270000000  0.5337160000000 1.0
C      1  0.4713480000000  0.4835830000000  0.4668600000000 1.0
C      1  0.5318580000000  0.4844740000000  0.5372650000000 1.0
C      1  0.5449910000000  0.5558260000000  0.5457740000000 1.0
C      1  0.4567680000000  0.5570850000000  0.4467330000000 1.0
C      1  0.5469870000000  0.4438850000000  0.5454070000000 1.0
C      1  0.4518190000000  0.4437230000000  0.4490300000000 1.0
C      1  0.4324610000000  0.5265970000000  0.5007500000000 1.0
C      1  0.5645170000000  0.5411200000000  0.5018430000000 1.0
C      1  0.4232410000000  0.4564890000000  0.4927590000000 1.0
C      1  0.5642930000000  0.4624140000000  0.5009170000000 1.0
C      1  0.5173290000000  0.5434010000000  0.5042340000000 1.0
C      1  0.4701850000000  0.5421830000000  0.4863620000000 1.0
C      1  0.5150980000000  0.4605250000000  0.5039850000000 1.0
C      1  0.4670900000000  0.4620250000000  0.4883100000000 1.0
C      1  0.4513590000000  0.5808450000000  0.4950630000000 1.0
C      1  0.5444420000000  0.5845180000000  0.5030860000000 1.0
C      1  0.4521300000000  0.4187570000000  0.4994360000000 1.0
C      1  0.5443410000000  0.4195020000000  0.5014790000000 1.0
C      1  0.4029630000000  0.5037050000000  0.4898300000000 1.0
C      1  0.5959420000000  0.5014810000000  0.5041970000000 1.0
C      1  0.4817500000000  0.5002550000000  0.5109100000000 1.0
END
