TITL C-3578208-4450-671 -2.73523994608399e-05 125000 -1051.79839253116 0 0 167 (C1) n - 1
REM
REM in /home/bkarasulu/work/CARBON/AIRSS/Generating-Clusters/EDIP-Nigel-Params/with-SteepDescent/Higher-Symm/SD-CG/HFTN-CG
REM
REM
REM
REM
REM
REM ./C.cell (12c818d87b63d06a65506943cc24bca4)
REM
REM compiler GCC version 9.2.1 20190827 (Red Hat 9.2.1-1)
REM options -cpp -mtune=generic -march=x86-64 -g -O0 -fpre-include=/usr/include/finclude/math-vector-fortran.h
REM seed 2087798976 1837500756 1919391934 -2131423712 -272983377 -1753414575 1435848944 -1203811079 1224276547 -1667699888 -1169784377 1203479129 -621362971 -784046560 1421837079 93937153 -401558517 -107452693 743059473 933874542 -944422609 211933583 1360623993 1482632097 1697276549 -402711373 -523978647 -132896667 1896436729 -449705323 -35690459 857671033 -737965665
REM
CELL 1.54180   50.00000   50.00000   50.00000   90.00000   90.00000   90.00000
LATT -1
SFAC C  
C      1  0.5010880000000  0.4786800000000  0.3970950000000 1.0
C      1  0.5012230000000  0.4654830000000  0.3722700000000 1.0
C      1  0.5106140000000  0.4840000000000  0.3542420000000 1.0
C      1  0.5151420000000  0.5078210000000  0.3669570000000 1.0
C      1  0.5088470000000  0.5055150000000  0.3936780000000 1.0
C      1  0.4619480000000  0.5154060000000  0.6299390000000 1.0
C      1  0.4627460000000  0.5000400000000  0.6063270000000 1.0
C      1  0.4866560000000  0.4844070000000  0.6063620000000 1.0
C      1  0.5002490000000  0.4894420000000  0.6304270000000 1.0
C      1  0.4847450000000  0.5079790000000  0.6437760000000 1.0
C      1  0.5693890000000  0.4710080000000  0.4426620000000 1.0
C      1  0.4879790000000  0.4219220000000  0.4265910000000 1.0
C      1  0.4153250000000  0.4804960000000  0.4248230000000 1.0
C      1  0.4582950000000  0.5670750000000  0.4281620000000 1.0
C      1  0.5506710000000  0.5589650000000  0.4284300000000 1.0
C      1  0.5738880000000  0.5283880000000  0.5683930000000 1.0
C      1  0.4955060000000  0.5750180000000  0.5713000000000 1.0
C      1  0.4250520000000  0.5196010000000  0.5722110000000 1.0
C      1  0.4636170000000  0.4301690000000  0.5758300000000 1.0
C      1  0.5553690000000  0.4373900000000  0.5699790000000 1.0
C      1  0.5611010000000  0.5611570000000  0.4971230000000 1.0
C      1  0.5780600000000  0.4654490000000  0.4922640000000 1.0
C      1  0.4887570000000  0.4208620000000  0.4955030000000 1.0
C      1  0.4168870000000  0.4869680000000  0.5013560000000 1.0
C      1  0.4649640000000  0.5743210000000  0.4984420000000 1.0
C      1  0.5587870000000  0.4438260000000  0.4975860000000 1.0
C      1  0.5784810000000  0.5383940000000  0.5017060000000 1.0
C      1  0.4907050000000  0.5858490000000  0.5064500000000 1.0
C      1  0.4160100000000  0.5158640000000  0.5065700000000 1.0
C      1  0.4627460000000  0.4308520000000  0.5013460000000 1.0
C      1  0.5851300000000  0.5425860000000  0.4506620000000 1.0
C      1  0.5592880000000  0.4283540000000  0.4370450000000 1.0
C      1  0.4484920000000  0.4170730000000  0.4461000000000 1.0
C      1  0.4053970000000  0.5183010000000  0.4453600000000 1.0
C      1  0.4886550000000  0.5931100000000  0.4472940000000 1.0
C      1  0.5876010000000  0.4595110000000  0.5494970000000 1.0
C      1  0.5633860000000  0.5681120000000  0.5521000000000 1.0
C      1  0.4565740000000  0.5791230000000  0.5509750000000 1.0
C      1  0.4101400000000  0.4788700000000  0.5631850000000 1.0
C      1  0.4915980000000  0.4048140000000  0.5527420000000 1.0
C      1  0.4750960000000  0.4726120000000  0.4695000000000 1.0
C      1  0.4555600000000  0.5078810000000  0.4880480000000 1.0
C      1  0.5007960000000  0.5483390000000  0.4814750000000 1.0
C      1  0.5388540000000  0.5190620000000  0.4830450000000 1.0
C      1  0.5205020000000  0.4759740000000  0.4984000000000 1.0
C      1  0.4865510000000  0.5338670000000  0.5051890000000 1.0
C      1  0.4622450000000  0.4928570000000  0.5122230000000 1.0
C      1  0.4947890000000  0.4656510000000  0.5348350000000 1.0
C      1  0.5393740000000  0.4795010000000  0.5225390000000 1.0
C      1  0.5297610000000  0.5277030000000  0.5122070000000 1.0
C      1  0.5096040000000  0.4358690000000  0.4429870000000 1.0
C      1  0.4322390000000  0.4634860000000  0.4439070000000 1.0
C      1  0.4467530000000  0.5441370000000  0.4450550000000 1.0
C      1  0.5289270000000  0.5654150000000  0.4478860000000 1.0
C      1  0.5822010000000  0.4958540000000  0.4473490000000 1.0
C      1  0.5149590000000  0.5670580000000  0.5502230000000 1.0
C      1  0.4391860000000  0.5336000000000  0.5494170000000 1.0
C      1  0.4526910000000  0.4543620000000  0.5605590000000 1.0
C      1  0.5313320000000  0.4332840000000  0.5518240000000 1.0
C      1  0.5721310000000  0.5055630000000  0.5490170000000 1.0
C      1  0.4883500000000  0.5254060000000  0.4275220000000 1.0
C      1  0.5178170000000  0.5178580000000  0.4366810000000 1.0
C      1  0.5210810000000  0.4873110000000  0.4476850000000 1.0
C      1  0.4828510000000  0.4709800000000  0.4192950000000 1.0
C      1  0.4641950000000  0.4953780000000  0.4263420000000 1.0
C      1  0.4962540000000  0.4682060000000  0.5826850000000 1.0
C      1  0.5248430000000  0.4782020000000  0.5707170000000 1.0
C      1  0.5257090000000  0.5100180000000  0.5626140000000 1.0
C      1  0.4953550000000  0.5233300000000  0.5600120000000 1.0
C      1  0.4708790000000  0.5020780000000  0.5587670000000 1.0
C      1  0.4783420000000  0.4726320000000  0.5577160000000 1.0
C      1  0.4569680000000  0.5113080000000  0.5354970000000 1.0
C      1  0.5016490000000  0.5409050000000  0.5343830000000 1.0
C      1  0.5418820000000  0.5076670000000  0.5346650000000 1.0
C      1  0.5229600000000  0.4631740000000  0.5437700000000 1.0
C      1  0.4728680000000  0.5292730000000  0.4525820000000 1.0
C      1  0.4537600000000  0.4831360000000  0.4516610000000 1.0
C      1  0.4974680000000  0.4664790000000  0.4467990000000 1.0
C      1  0.5279760000000  0.4929640000000  0.4762270000000 1.0
C      1  0.5221890000000  0.5375070000000  0.4624970000000 1.0
C      1  0.5349440000000  0.4433670000000  0.4277700000000 1.0
C      1  0.4447080000000  0.4402110000000  0.4289710000000 1.0
C      1  0.4275990000000  0.5262910000000  0.4285870000000 1.0
C      1  0.5043720000000  0.5740350000000  0.4323640000000 1.0
C      1  0.5690830000000  0.5206980000000  0.4418380000000 1.0
C      1  0.5396900000000  0.5582590000000  0.5647310000000 1.0
C      1  0.4565290000000  0.5536050000000  0.5637960000000 1.0
C      1  0.4354370000000  0.4729170000000  0.5767240000000 1.0
C      1  0.5089540000000  0.4216590000000  0.5684100000000 1.0
C      1  0.5738840000000  0.4796480000000  0.5646330000000 1.0
C      1  0.5860070000000  0.5528930000000  0.5595350000000 1.0
C      1  0.5815290000000  0.4333970000000  0.5585950000000 1.0
C      1  0.4647650000000  0.4050390000000  0.5619730000000 1.0
C      1  0.4015180000000  0.5057450000000  0.5652650000000 1.0
C      1  0.4765670000000  0.5951850000000  0.5629980000000 1.0
C      1  0.5819450000000  0.4457700000000  0.4400820000000 1.0
C      1  0.5770390000000  0.5662330000000  0.4374070000000 1.0
C      1  0.4614280000000  0.5932380000000  0.4395980000000 1.0
C      1  0.3931000000000  0.4943000000000  0.4368030000000 1.0
C      1  0.4720630000000  0.4024050000000  0.4401780000000 1.0
C      1  0.4963990000000  0.6128870000000  0.4956820000000 1.0
C      1  0.6071760000000  0.5406330000000  0.4971550000000 1.0
C      1  0.5654500000000  0.4165900000000  0.4877530000000 1.0
C      1  0.4416130000000  0.4113410000000  0.4975080000000 1.0
C      1  0.3929700000000  0.5305370000000  0.4951040000000 1.0
C      1  0.4936520000000  0.3921650000000  0.5023510000000 1.0
C      1  0.6064030000000  0.4634360000000  0.5012990000000 1.0
C      1  0.5689430000000  0.5881040000000  0.5051160000000 1.0
C      1  0.4412230000000  0.5903540000000  0.5027960000000 1.0
C      1  0.3957900000000  0.4705840000000  0.5127650000000 1.0
C      1  0.5445620000000  0.5311550000000  0.5753460000000 1.0
C      1  0.5517700000000  0.4662870000000  0.5789980000000 1.0
C      1  0.4913720000000  0.4382310000000  0.5851640000000 1.0
C      1  0.4478020000000  0.5001540000000  0.5805750000000 1.0
C      1  0.4830200000000  0.5477050000000  0.5754700000000 1.0
C      1  0.5424970000000  0.4716730000000  0.4327360000000 1.0
C      1  0.5460350000000  0.5289480000000  0.4254350000000 1.0
C      1  0.4851620000000  0.5555050000000  0.4191160000000 1.0
C      1  0.4362840000000  0.5010520000000  0.4149390000000 1.0
C      1  0.4704530000000  0.4436240000000  0.4151870000000 1.0
C      1  0.6060240000000  0.4722170000000  0.5303840000000 1.0
C      1  0.5066890000000  0.3929960000000  0.5298720000000 1.0
C      1  0.4065680000000  0.4609880000000  0.5397680000000 1.0
C      1  0.4348780000000  0.5808680000000  0.5307650000000 1.0
C      1  0.5576080000000  0.5905550000000  0.5333040000000 1.0
C      1  0.6074250000000  0.5321870000000  0.4682310000000 1.0
C      1  0.5058390000000  0.6077790000000  0.4669760000000 1.0
C      1  0.4015250000000  0.5378620000000  0.4668490000000 1.0
C      1  0.4307080000000  0.4185770000000  0.4700060000000 1.0
C      1  0.5511820000000  0.4124130000000  0.4609110000000 1.0
C      1  0.3964350000000  0.5552460000000  0.5117580000000 1.0
C      1  0.5201980000000  0.6180600000000  0.5135610000000 1.0
C      1  0.6174120000000  0.5182020000000  0.5143990000000 1.0
C      1  0.5507460000000  0.3979240000000  0.5065010000000 1.0
C      1  0.4232990000000  0.4213600000000  0.5190420000000 1.0
C      1  0.3982700000000  0.4474780000000  0.4935500000000 1.0
C      1  0.5153910000000  0.3886150000000  0.4812440000000 1.0
C      1  0.6212540000000  0.4847710000000  0.4856180000000 1.0
C      1  0.5525580000000  0.6051000000000  0.4863230000000 1.0
C      1  0.4208330000000  0.5793010000000  0.4836450000000 1.0
C      1  0.5943170000000  0.4998160000000  0.5257630000000 1.0
C      1  0.5293200000000  0.4123690000000  0.5241700000000 1.0
C      1  0.4332550000000  0.4489640000000  0.5327190000000 1.0
C      1  0.4227000000000  0.5535650000000  0.5287020000000 1.0
C      1  0.5272890000000  0.5925080000000  0.5307120000000 1.0
C      1  0.6028460000000  0.5021140000000  0.4678750000000 1.0
C      1  0.5290310000000  0.5889080000000  0.4726440000000 1.0
C      1  0.4283850000000  0.5508500000000  0.4715240000000 1.0
C      1  0.4236380000000  0.4477120000000  0.4733960000000 1.0
C      1  0.5222160000000  0.4173390000000  0.4672890000000 1.0
C      1  0.4512480000000  0.4548740000000  0.4877630000000 1.0
C      1  0.4391490000000  0.5316300000000  0.4939060000000 1.0
C      1  0.5141790000000  0.5713140000000  0.4939060000000 1.0
C      1  0.5703030000000  0.5146730000000  0.4854190000000 1.0
C      1  0.5296320000000  0.4476440000000  0.4903610000000 1.0
C      1  0.4580310000000  0.5481580000000  0.5111470000000 1.0
C      1  0.4411420000000  0.4711310000000  0.5103510000000 1.0
C      1  0.5132210000000  0.4317300000000  0.5078740000000 1.0
C      1  0.5720800000000  0.4917380000000  0.5054010000000 1.0
C      1  0.5354220000000  0.5589820000000  0.5118230000000 1.0
C      1  0.5425450000000  0.6282770000000  0.4992770000000 1.0
C      1  0.6371280000000  0.5019710000000  0.5017870000000 1.0
C      1  0.5386880000000  0.3764450000000  0.4922840000000 1.0
C      1  0.3969570000000  0.4232450000000  0.5084010000000 1.0
C      1  0.3951160000000  0.5788100000000  0.4958520000000 1.0
C      1  0.4796670000000  0.5109830000000  0.4743520000000 1.0
C      1  0.4907130000000  0.4799580000000  0.5102020000000 1.0
END
