TITL C-3578200-9634-201 -8.31732043179771e-07 125000 -137.717121686893 0 0 25 (C3) n - 1
REM
REM in /home/bkarasulu/work/CARBON/AIRSS/Generating-Clusters/EDIP-Nigel-Params/with-SteepDescent/Higher-Symm/SD-CG/HFTN-CG
REM
REM
REM
REM
REM
REM ./C.cell (12c818d87b63d06a65506943cc24bca4)
REM
REM compiler GCC version 9.2.1 20190827 (Red Hat 9.2.1-1)
REM options -cpp -mtune=generic -march=x86-64 -g -O0 -fpre-include=/usr/include/finclude/math-vector-fortran.h
REM seed -2111208528 -657262948 156841728 242923686 -505848386 -1341700650 -118945272 169719359 1134037254 -1609251903 1710844719 824255966 -1503949426 1482929155 -318983690 1257538040 1175550900 -417972597 -1079798846 -1432214730 -1465890993 -269249231 -2018288640 -1689526747 -1228288636 -149524581 -2118229424 386281117 -866134923 -1865371478 -1386785962 1364153865 26743735
REM
CELL 1.54180   50.00000   50.00000   50.00000   90.00000   90.00000   90.00000
LATT -1
SFAC C  
C      1  0.4588530000000  0.5195200000000  0.5506760000000 1.0
C      1  0.5629410000000  0.5195260000000  0.5102890000000 1.0
C      1  0.4759210000000  0.5195190000000  0.4403400000000 1.0
C      1  0.4694440000000  0.5370600000000  0.5325080000000 1.0
C      1  0.5419110000000  0.5370640000000  0.5102000000000 1.0
C      1  0.4863580000000  0.5370600000000  0.4585960000000 1.0
C      1  0.4610400000000  0.4904200000000  0.4597220000000 1.0
C      1  0.4830810000000  0.4904230000000  0.5538750000000 1.0
C      1  0.5536000000000  0.4904260000000  0.4877100000000 1.0
C      1  0.5142350000000  0.5385210000000  0.5096260000000 1.0
C      1  0.4996980000000  0.5385190000000  0.4828500000000 1.0
C      1  0.4837780000000  0.5385190000000  0.5088270000000 1.0
C      1  0.4724100000000  0.5084130000000  0.5721590000000 1.0
C      1  0.5747690000000  0.5084180000000  0.4878080000000 1.0
C      1  0.4505390000000  0.5084090000000  0.4413380000000 1.0
C      1  0.4510120000000  0.4898610000000  0.4863080000000 1.0
C      1  0.5111200000000  0.4898660000000  0.5492660000000 1.0
C      1  0.5355900000000  0.4898660000000  0.4657320000000 1.0
C      1  0.4499850000000  0.4668990000000  0.5018470000000 1.0
C      1  0.5250930000000  0.4669050000000  0.5423880000000 1.0
C      1  0.5226480000000  0.4669030000000  0.4570720000000 1.0
C      1  0.5010700000000  0.4755950000000  0.4723320000000 1.0
C      1  0.4739880000000  0.4755940000000  0.5129030000000 1.0
C      1  0.5226650000000  0.4755980000000  0.5160710000000 1.0
C      1  0.4992420000000  0.4710010000000  0.5004360000000 1.0
END
