TITL C-3577082-504-246 -3.72689847102944e-06 125000 -1125.59236884786 0 0 178 (C1) n - 1
REM
REM in /home/bkarasulu/work/CARBON/AIRSS/Generating-Clusters/EDIP-Nigel-Params/with-SteepDescent/Higher-Symm/SD-CG/HFTN-CG
REM
REM
REM
REM
REM
REM ./C.cell (12c818d87b63d06a65506943cc24bca4)
REM
REM compiler GCC version 9.2.1 20190827 (Red Hat 9.2.1-1)
REM options -cpp -mtune=generic -march=x86-64 -g -O0 -fpre-include=/usr/include/finclude/math-vector-fortran.h
REM seed 2109741118 -954460327 58106273 561240768 2093803771 -334447219 1760833611 -1553928540 -882428427 -1365113318 1028384479 2041509614 1922610676 1451861204 222947701 1748107935 1017448655 625164012 -1260824369 1261348084 -765297510 1001514559 1842299873 -1113238509 1483250914 1344825399 -949127088 1554328647 -2039341743 1171039127 99850067 -248462574 1521321913
REM
CELL 1.54180   50.00000   50.00000   50.00000   90.00000   90.00000   90.00000
LATT -1
SFAC C  
C      1  0.6101020000000  0.4940020000000  0.4549660000000 1.0
C      1  0.5585050000000  0.4362830000000  0.5031790000000 1.0
C      1  0.4529780000000  0.5927720000000  0.5266210000000 1.0
C      1  0.4750930000000  0.4779140000000  0.5328160000000 1.0
C      1  0.5305980000000  0.4229800000000  0.5857390000000 1.0
C      1  0.4824520000000  0.4242710000000  0.5956860000000 1.0
C      1  0.5328200000000  0.4459810000000  0.4922050000000 1.0
C      1  0.4359440000000  0.5467220000000  0.4738250000000 1.0
C      1  0.5967520000000  0.5316460000000  0.5565230000000 1.0
C      1  0.5960980000000  0.5253360000000  0.4831300000000 1.0
C      1  0.5681840000000  0.5066700000000  0.5857360000000 1.0
C      1  0.5907820000000  0.5553080000000  0.4854160000000 1.0
C      1  0.5715170000000  0.4651060000000  0.5127150000000 1.0
C      1  0.6035130000000  0.4733130000000  0.4746030000000 1.0
C      1  0.4329060000000  0.4898030000000  0.5117730000000 1.0
C      1  0.4404960000000  0.4321640000000  0.5690160000000 1.0
C      1  0.3994530000000  0.5137040000000  0.4726240000000 1.0
C      1  0.4638520000000  0.5270760000000  0.4038560000000 1.0
C      1  0.5039400000000  0.4622470000000  0.5770950000000 1.0
C      1  0.3805240000000  0.5329690000000  0.5133120000000 1.0
C      1  0.4249700000000  0.4428560000000  0.4731870000000 1.0
C      1  0.5294480000000  0.4643020000000  0.4172840000000 1.0
C      1  0.5225380000000  0.4572860000000  0.5551540000000 1.0
C      1  0.5754450000000  0.4280830000000  0.4791620000000 1.0
C      1  0.5396630000000  0.4693270000000  0.4753300000000 1.0
C      1  0.4407530000000  0.4630720000000  0.4316450000000 1.0
C      1  0.4544370000000  0.4689610000000  0.5162780000000 1.0
C      1  0.3961660000000  0.5531220000000  0.4987130000000 1.0
C      1  0.4551940000000  0.5598380000000  0.5703050000000 1.0
C      1  0.5714400000000  0.5694040000000  0.4668980000000 1.0
C      1  0.4052750000000  0.4740560000000  0.5070490000000 1.0
C      1  0.5072560000000  0.5310720000000  0.5538230000000 1.0
C      1  0.5030800000000  0.5268060000000  0.4475690000000 1.0
C      1  0.4782690000000  0.4354890000000  0.4159440000000 1.0
C      1  0.4227570000000  0.4299850000000  0.5221240000000 1.0
C      1  0.4574600000000  0.5769990000000  0.4141120000000 1.0
C      1  0.4837310000000  0.5862590000000  0.4872850000000 1.0
C      1  0.6133720000000  0.4713380000000  0.5020940000000 1.0
C      1  0.5535340000000  0.5115490000000  0.5442610000000 1.0
C      1  0.5529510000000  0.4538560000000  0.5622560000000 1.0
C      1  0.6029060000000  0.5184400000000  0.5113040000000 1.0
C      1  0.5970280000000  0.4818640000000  0.5483880000000 1.0
C      1  0.5059610000000  0.5807920000000  0.4323820000000 1.0
C      1  0.4943450000000  0.4918260000000  0.5772250000000 1.0
C      1  0.4749570000000  0.5225600000000  0.4583740000000 1.0
C      1  0.4384900000000  0.4763810000000  0.5923300000000 1.0
C      1  0.4269540000000  0.4586010000000  0.5736560000000 1.0
C      1  0.4247250000000  0.5969200000000  0.4647300000000 1.0
C      1  0.5517650000000  0.5031670000000  0.4003830000000 1.0
C      1  0.4092870000000  0.5044500000000  0.5532820000000 1.0
C      1  0.5509920000000  0.5441050000000  0.5318990000000 1.0
C      1  0.4867620000000  0.5042680000000  0.6131880000000 1.0
C      1  0.5139250000000  0.4836590000000  0.4701800000000 1.0
C      1  0.4607990000000  0.4388930000000  0.5173080000000 1.0
C      1  0.5546250000000  0.4412830000000  0.5892450000000 1.0
C      1  0.3995390000000  0.5531960000000  0.4433780000000 1.0
C      1  0.3789690000000  0.4859620000000  0.5087250000000 1.0
C      1  0.3896430000000  0.5292180000000  0.5425060000000 1.0
C      1  0.4396580000000  0.5340790000000  0.5211530000000 1.0
C      1  0.5014080000000  0.4758750000000  0.5187300000000 1.0
C      1  0.5309450000000  0.5835230000000  0.4470670000000 1.0
C      1  0.4139720000000  0.5871840000000  0.4386170000000 1.0
C      1  0.4676560000000  0.6041650000000  0.5034050000000 1.0
C      1  0.4067640000000  0.5535990000000  0.5485010000000 1.0
C      1  0.4749070000000  0.5551470000000  0.4000530000000 1.0
C      1  0.5635160000000  0.5169800000000  0.4225400000000 1.0
C      1  0.5674910000000  0.4255380000000  0.4323670000000 1.0
C      1  0.5870100000000  0.5629290000000  0.5146140000000 1.0
C      1  0.4178660000000  0.5563360000000  0.5207050000000 1.0
C      1  0.4667000000000  0.4995990000000  0.5519860000000 1.0
C      1  0.5170990000000  0.5927220000000  0.5235230000000 1.0
C      1  0.5487550000000  0.5434530000000  0.4237580000000 1.0
C      1  0.5048300000000  0.5468220000000  0.5797750000000 1.0
C      1  0.5831020000000  0.4715540000000  0.4217100000000 1.0
C      1  0.5539620000000  0.5413750000000  0.4963120000000 1.0
C      1  0.5308260000000  0.4072590000000  0.4638650000000 1.0
C      1  0.4595720000000  0.4073870000000  0.4558400000000 1.0
C      1  0.4351730000000  0.4926570000000  0.4399460000000 1.0
C      1  0.4824440000000  0.4198210000000  0.4415060000000 1.0
C      1  0.4222530000000  0.5182290000000  0.5772250000000 1.0
C      1  0.5219090000000  0.4210110000000  0.4160840000000 1.0
C      1  0.4635770000000  0.4781450000000  0.3922760000000 1.0
C      1  0.4415440000000  0.5264630000000  0.4260460000000 1.0
C      1  0.5112580000000  0.4102460000000  0.4415290000000 1.0
C      1  0.4272740000000  0.5729770000000  0.4150770000000 1.0
C      1  0.4659950000000  0.4632650000000  0.4169450000000 1.0
C      1  0.4814240000000  0.5449740000000  0.5024930000000 1.0
C      1  0.5066170000000  0.4390940000000  0.5956530000000 1.0
C      1  0.5212980000000  0.4816780000000  0.5396990000000 1.0
C      1  0.3819270000000  0.5100810000000  0.4957840000000 1.0
C      1  0.4744260000000  0.5926240000000  0.4609290000000 1.0
C      1  0.5325710000000  0.5979300000000  0.4737310000000 1.0
C      1  0.5461210000000  0.5060610000000  0.5124190000000 1.0
C      1  0.5243200000000  0.3987830000000  0.4914450000000 1.0
C      1  0.5194200000000  0.5145940000000  0.5041250000000 1.0
C      1  0.4104490000000  0.4670680000000  0.4785570000000 1.0
C      1  0.5949010000000  0.4957910000000  0.4307230000000 1.0
C      1  0.5602720000000  0.5907570000000  0.4841520000000 1.0
C      1  0.5519200000000  0.5035750000000  0.4474080000000 1.0
C      1  0.5195520000000  0.5503730000000  0.5340340000000 1.0
C      1  0.4363170000000  0.4149780000000  0.5438920000000 1.0
C      1  0.5971480000000  0.4466350000000  0.5425950000000 1.0
C      1  0.4061330000000  0.4542550000000  0.5289360000000 1.0
C      1  0.5053150000000  0.4995700000000  0.3902150000000 1.0
C      1  0.5138380000000  0.5077450000000  0.6071400000000 1.0
C      1  0.4704120000000  0.5698840000000  0.4407130000000 1.0
C      1  0.5518320000000  0.4106260000000  0.5384020000000 1.0
C      1  0.4963540000000  0.3989440000000  0.4993630000000 1.0
C      1  0.4594210000000  0.3989590000000  0.5336010000000 1.0
C      1  0.4807160000000  0.5242790000000  0.5439910000000 1.0
C      1  0.4749030000000  0.5451300000000  0.5878460000000 1.0
C      1  0.5910530000000  0.5063570000000  0.5674700000000 1.0
C      1  0.5870070000000  0.4468260000000  0.4365170000000 1.0
C      1  0.4086220000000  0.4703180000000  0.5542110000000 1.0
C      1  0.4406680000000  0.5767070000000  0.4844030000000 1.0
C      1  0.4691670000000  0.4349350000000  0.5728040000000 1.0
C      1  0.4279680000000  0.5459370000000  0.5681310000000 1.0
C      1  0.4741060000000  0.4518360000000  0.4710390000000 1.0
C      1  0.4149600000000  0.4912670000000  0.4626170000000 1.0
C      1  0.4177830000000  0.5447780000000  0.4206920000000 1.0
C      1  0.5438590000000  0.5875230000000  0.5338610000000 1.0
C      1  0.5079410000000  0.4469710000000  0.5094910000000 1.0
C      1  0.6179710000000  0.5186350000000  0.4651950000000 1.0
C      1  0.4520860000000  0.6106420000000  0.4683220000000 1.0
C      1  0.5027100000000  0.4937430000000  0.4954900000000 1.0
C      1  0.4279250000000  0.4225150000000  0.4932960000000 1.0
C      1  0.5678720000000  0.5119840000000  0.4749760000000 1.0
C      1  0.4437860000000  0.5037220000000  0.5890290000000 1.0
C      1  0.5463400000000  0.4005890000000  0.5111460000000 1.0
C      1  0.5038650000000  0.4389460000000  0.4039770000000 1.0
C      1  0.4307260000000  0.5812640000000  0.5122080000000 1.0
C      1  0.4510390000000  0.4066400000000  0.4846950000000 1.0
C      1  0.5509410000000  0.4713290000000  0.4408970000000 1.0
C      1  0.4358850000000  0.5073410000000  0.5365040000000 1.0
C      1  0.5596820000000  0.5526740000000  0.5681680000000 1.0
C      1  0.4680850000000  0.3953350000000  0.5057150000000 1.0
C      1  0.4672380000000  0.5448530000000  0.5279260000000 1.0
C      1  0.4680920000000  0.5718900000000  0.5433630000000 1.0
C      1  0.4636650000000  0.4964880000000  0.4502420000000 1.0
C      1  0.5946630000000  0.5384350000000  0.5295620000000 1.0
C      1  0.4550750000000  0.5427410000000  0.4492010000000 1.0
C      1  0.5426980000000  0.5756200000000  0.5617340000000 1.0
C      1  0.4828890000000  0.4352970000000  0.4954210000000 1.0
C      1  0.5267980000000  0.4128590000000  0.5546680000000 1.0
C      1  0.4951620000000  0.4654750000000  0.4560300000000 1.0
C      1  0.5596250000000  0.4863350000000  0.4926440000000 1.0
C      1  0.4712150000000  0.5231340000000  0.4873720000000 1.0
C      1  0.5637500000000  0.5813950000000  0.5125390000000 1.0
C      1  0.5512270000000  0.5625340000000  0.4460710000000 1.0
C      1  0.4427750000000  0.5230660000000  0.4935050000000 1.0
C      1  0.5221800000000  0.5061580000000  0.4526630000000 1.0
C      1  0.4821680000000  0.4803710000000  0.4350880000000 1.0
C      1  0.5138040000000  0.5846060000000  0.4938020000000 1.0
C      1  0.5624170000000  0.4852220000000  0.6024360000000 1.0
C      1  0.4789700000000  0.4300230000000  0.5447960000000 1.0
C      1  0.5512030000000  0.5304010000000  0.5844100000000 1.0
C      1  0.5245710000000  0.5315480000000  0.5962590000000 1.0
C      1  0.5591470000000  0.4143080000000  0.4584080000000 1.0
C      1  0.5096980000000  0.5414860000000  0.5074930000000 1.0
C      1  0.5140550000000  0.5741010000000  0.5706490000000 1.0
C      1  0.6075480000000  0.4920350000000  0.5215150000000 1.0
C      1  0.5254940000000  0.5560520000000  0.4889840000000 1.0
C      1  0.5688300000000  0.4350260000000  0.5449980000000 1.0
C      1  0.5026880000000  0.5607420000000  0.4117320000000 1.0
C      1  0.4061260000000  0.5424840000000  0.4706820000000 1.0
C      1  0.6057020000000  0.4469460000000  0.5150100000000 1.0
C      1  0.5668720000000  0.4791550000000  0.5419890000000 1.0
C      1  0.4667190000000  0.5187440000000  0.5991160000000 1.0
C      1  0.4481960000000  0.4437840000000  0.4550130000000 1.0
C      1  0.4988110000000  0.5814730000000  0.5456340000000 1.0
C      1  0.5206290000000  0.5385280000000  0.4163600000000 1.0
C      1  0.5481860000000  0.4309230000000  0.4124260000000 1.0
C      1  0.4772660000000  0.5028220000000  0.3913980000000 1.0
C      1  0.5099010000000  0.4337930000000  0.5393170000000 1.0
C      1  0.5294260000000  0.4867630000000  0.3973360000000 1.0
C      1  0.5916880000000  0.4487180000000  0.4649000000000 1.0
C      1  0.5249980000000  0.5061770000000  0.5582080000000 1.0
C      1  0.5547990000000  0.4604400000000  0.6094570000000 1.0
END
