TITL C-3577076-40-177 9.45332548883285e-07 125000 -346.408343243851 0 0 58 (C1) n - 1
REM
REM in /home/bkarasulu/work/CARBON/AIRSS/Generating-Clusters/EDIP-Nigel-Params/with-SteepDescent/Higher-Symm/SD-CG/HFTN-CG
REM
REM
REM
REM
REM
REM ./C.cell (12c818d87b63d06a65506943cc24bca4)
REM
REM compiler GCC version 9.2.1 20190827 (Red Hat 9.2.1-1)
REM options -cpp -mtune=generic -march=x86-64 -g -O0 -fpre-include=/usr/include/finclude/math-vector-fortran.h
REM seed 622274922 82273043 1623860927 -1099891352 91202033 48329541 1360437509 1619138957 -122993239 1566689112 -465527202 1718674679 1581016807 570364427 356790445 -1011831824 -1089854623 353189350 1853778146 1371752085 -1078413759 384026927 1656573963 -322586081 -1209009717 387674451 1548575244 1675206643 -748941186 -1646251473 -1277008946 1796570183 1426251874
REM
CELL 1.54180   50.00000   50.00000   50.00000   90.00000   90.00000   90.00000
LATT -1
SFAC C  
C      1  0.4759340000000  0.4315350000000  0.4910610000000 1.0
C      1  0.4771560000000  0.4357490000000  0.5201220000000 1.0
C      1  0.5061500000000  0.4374770000000  0.5282490000000 1.0
C      1  0.5216460000000  0.4364630000000  0.5037560000000 1.0
C      1  0.5036750000000  0.4315390000000  0.4814720000000 1.0
C      1  0.4773480000000  0.5605800000000  0.5146290000000 1.0
C      1  0.4797980000000  0.5603260000000  0.4834930000000 1.0
C      1  0.5101860000000  0.5614810000000  0.4762070000000 1.0
C      1  0.5269200000000  0.5602650000000  0.5027080000000 1.0
C      1  0.5064580000000  0.5600500000000  0.5267410000000 1.0
C      1  0.5149620000000  0.4630130000000  0.5433060000000 1.0
C      1  0.5465530000000  0.4653030000000  0.4962090000000 1.0
C      1  0.5078720000000  0.4556220000000  0.4643910000000 1.0
C      1  0.4606310000000  0.4600250000000  0.4716280000000 1.0
C      1  0.4668550000000  0.4631060000000  0.5264600000000 1.0
C      1  0.5168510000000  0.5361340000000  0.4595950000000 1.0
C      1  0.5451700000000  0.5328420000000  0.5032070000000 1.0
C      1  0.5103400000000  0.5329640000000  0.5438270000000 1.0
C      1  0.4628890000000  0.5340960000000  0.5229230000000 1.0
C      1  0.4670290000000  0.5323950000000  0.4714880000000 1.0
C      1  0.4832230000000  0.5198280000000  0.5397360000000 1.0
C      1  0.5332670000000  0.5199040000000  0.5284670000000 1.0
C      1  0.5363350000000  0.5203900000000  0.4766410000000 1.0
C      1  0.4913470000000  0.5205120000000  0.4585030000000 1.0
C      1  0.4595800000000  0.5185180000000  0.4972950000000 1.0
C      1  0.4824810000000  0.4628820000000  0.4516410000000 1.0
C      1  0.5300500000000  0.4768470000000  0.4728460000000 1.0
C      1  0.5375060000000  0.4723420000000  0.5242950000000 1.0
C      1  0.4882900000000  0.4759480000000  0.5424900000000 1.0
C      1  0.4678320000000  0.4764200000000  0.4975010000000 1.0
C      1  0.5175080000000  0.5278330000000  0.5722650000000 1.0
C      1  0.5743580000000  0.5269940000000  0.5029950000000 1.0
C      1  0.5261840000000  0.5389350000000  0.4316330000000 1.0
C      1  0.4440510000000  0.5250640000000  0.4538890000000 1.0
C      1  0.4371770000000  0.5334630000000  0.5375710000000 1.0
C      1  0.5340260000000  0.4920330000000  0.4260940000000 1.0
C      1  0.5725940000000  0.4780280000000  0.4938160000000 1.0
C      1  0.5239880000000  0.4770840000000  0.5686290000000 1.0
C      1  0.4363510000000  0.4833530000000  0.5383910000000 1.0
C      1  0.4381990000000  0.4749060000000  0.4601930000000 1.0
C      1  0.5508690000000  0.5071630000000  0.5478820000000 1.0
C      1  0.5589210000000  0.5090980000000  0.4624720000000 1.0
C      1  0.4900450000000  0.5086680000000  0.4320580000000 1.0
C      1  0.4344040000000  0.5051400000000  0.4943920000000 1.0
C      1  0.4687420000000  0.5095590000000  0.5629680000000 1.0
C      1  0.5478900000000  0.4851290000000  0.4495140000000 1.0
C      1  0.5598700000000  0.4819090000000  0.5391940000000 1.0
C      1  0.4787130000000  0.4837090000000  0.5684330000000 1.0
C      1  0.4313390000000  0.4820870000000  0.5104250000000 1.0
C      1  0.4820700000000  0.4820520000000  0.4315990000000 1.0
C      1  0.4318390000000  0.5019340000000  0.4658290000000 1.0
C      1  0.4409420000000  0.5089680000000  0.5524620000000 1.0
C      1  0.5169730000000  0.5138940000000  0.4210090000000 1.0
C      1  0.5338130000000  0.5041270000000  0.5713980000000 1.0
C      1  0.5772130000000  0.5046030000000  0.4850810000000 1.0
C      1  0.5006720000000  0.4713400000000  0.4997760000000 1.0
C      1  0.5008630000000  0.5298580000000  0.5005050000000 1.0
C      1  0.5053130000000  0.5002170000000  0.5005360000000 1.0
END
