TITL C-3577078-809-719 -1.51239662725256e-06 125000 -816.789337943751 0 0 128 (C1) n - 1
REM
REM in /home/bkarasulu/work/CARBON/AIRSS/Generating-Clusters/EDIP-Nigel-Params/with-SteepDescent/Higher-Symm/SD-CG/HFTN-CG
REM
REM
REM
REM
REM
REM ./C.cell (12c818d87b63d06a65506943cc24bca4)
REM
REM compiler GCC version 9.2.1 20190827 (Red Hat 9.2.1-1)
REM options -cpp -mtune=generic -march=x86-64 -g -O0 -fpre-include=/usr/include/finclude/math-vector-fortran.h
REM seed -590430475 1577457213 2031374915 -1156680612 -57993052 -907487506 773812390 -1246863116 759422641 1930987017 -1653898137 -1924482632 -788073584 702249774 2011184773 393487352 -1297324849 -1818135653 -1932683425 910010902 159856463 1945605138 -1770287130 -585910646 456172560 1678750540 2092849546 1546611321 -1676928815 -1295006399 -728365816 -465778433 -229246408
REM
CELL 1.54180   50.00000   50.00000   50.00000   90.00000   90.00000   90.00000
LATT -1
SFAC C  
C      1  0.5844230000000  0.5101600000000  0.5288050000000 1.0
C      1  0.5324090000000  0.5945490000000  0.5145040000000 1.0
C      1  0.5152840000000  0.5290700000000  0.5968870000000 1.0
C      1  0.4019120000000  0.5166550000000  0.4714360000000 1.0
C      1  0.5940760000000  0.4848630000000  0.4668680000000 1.0
C      1  0.4023350000000  0.4853320000000  0.5287060000000 1.0
C      1  0.4692320000000  0.5871430000000  0.4890080000000 1.0
C      1  0.5266660000000  0.4016110000000  0.4852710000000 1.0
C      1  0.4682150000000  0.4066030000000  0.5220460000000 1.0
C      1  0.4846790000000  0.5334070000000  0.4055070000000 1.0
C      1  0.5103020000000  0.4704310000000  0.4142550000000 1.0
C      1  0.4839440000000  0.4688420000000  0.5979450000000 1.0
C      1  0.5970280000000  0.4833760000000  0.5291790000000 1.0
C      1  0.5274410000000  0.4130610000000  0.5129220000000 1.0
C      1  0.5154740000000  0.4690360000000  0.5965140000000 1.0
C      1  0.4141900000000  0.4898140000000  0.4712790000000 1.0
C      1  0.5972690000000  0.5139710000000  0.4713820000000 1.0
C      1  0.4062650000000  0.5142190000000  0.5333390000000 1.0
C      1  0.4673300000000  0.4057200000000  0.4841040000000 1.0
C      1  0.5282990000000  0.5979800000000  0.4854360000000 1.0
C      1  0.4700650000000  0.5986110000000  0.5161630000000 1.0
C      1  0.4833580000000  0.4711090000000  0.4023460000000 1.0
C      1  0.5137790000000  0.5289960000000  0.4025040000000 1.0
C      1  0.4887110000000  0.5294250000000  0.5846040000000 1.0
C      1  0.5205620000000  0.5124540000000  0.4593100000000 1.0
C      1  0.4499900000000  0.5200170000000  0.5092100000000 1.0
C      1  0.5166870000000  0.4627490000000  0.5312980000000 1.0
C      1  0.4661030000000  0.5177500000000  0.5341360000000 1.0
C      1  0.5108010000000  0.4892830000000  0.5457610000000 1.0
C      1  0.4664780000000  0.4870730000000  0.4600490000000 1.0
C      1  0.5399900000000  0.5211290000000  0.4873900000000 1.0
C      1  0.4661830000000  0.4670680000000  0.4821930000000 1.0
C      1  0.5404710000000  0.4665190000000  0.5140370000000 1.0
C      1  0.4913650000000  0.4502070000000  0.4830380000000 1.0
C      1  0.5114180000000  0.5412260000000  0.4782890000000 1.0
C      1  0.4859230000000  0.5403290000000  0.5338900000000 1.0
C      1  0.5335690000000  0.4832930000000  0.4651250000000 1.0
C      1  0.4694200000000  0.4685710000000  0.5208560000000 1.0
C      1  0.5077380000000  0.5504660000000  0.5153850000000 1.0
C      1  0.4798220000000  0.4913840000000  0.5384710000000 1.0
C      1  0.5304610000000  0.5125440000000  0.5377710000000 1.0
C      1  0.4834720000000  0.5095670000000  0.4497810000000 1.0
C      1  0.5501690000000  0.4841620000000  0.4911990000000 1.0
C      1  0.4600290000000  0.5359330000000  0.4867470000000 1.0
C      1  0.5333350000000  0.5334380000000  0.5160410000000 1.0
C      1  0.4826890000000  0.5354660000000  0.4662420000000 1.0
C      1  0.5139530000000  0.4605270000000  0.4662120000000 1.0
C      1  0.4936980000000  0.4528940000000  0.5138320000000 1.0
C      1  0.4412330000000  0.4700980000000  0.5739990000000 1.0
C      1  0.5690780000000  0.4416350000000  0.4702020000000 1.0
C      1  0.4744970000000  0.5598340000000  0.4473150000000 1.0
C      1  0.5522220000000  0.4750260000000  0.4406720000000 1.0
C      1  0.4414950000000  0.5306180000000  0.4301090000000 1.0
C      1  0.5489840000000  0.5230940000000  0.5598850000000 1.0
C      1  0.4435330000000  0.4510640000000  0.5288690000000 1.0
C      1  0.5579910000000  0.5520310000000  0.5243440000000 1.0
C      1  0.4373720000000  0.5527740000000  0.4759220000000 1.0
C      1  0.5290690000000  0.5699220000000  0.5574540000000 1.0
C      1  0.4732400000000  0.4347160000000  0.5621860000000 1.0
C      1  0.5237870000000  0.4381280000000  0.4483830000000 1.0
C      1  0.4474750000000  0.5246570000000  0.5591170000000 1.0
C      1  0.5651910000000  0.5545940000000  0.4728300000000 1.0
C      1  0.4691580000000  0.4298760000000  0.4418420000000 1.0
C      1  0.5540810000000  0.5269090000000  0.4341370000000 1.0
C      1  0.4481250000000  0.4764090000000  0.4384550000000 1.0
C      1  0.5561360000000  0.4700390000000  0.5696000000000 1.0
C      1  0.4284800000000  0.5589470000000  0.5309440000000 1.0
C      1  0.5612780000000  0.4479880000000  0.5245910000000 1.0
C      1  0.4418890000000  0.4487800000000  0.4760760000000 1.0
C      1  0.5243170000000  0.4393170000000  0.5551130000000 1.0
C      1  0.4751070000000  0.5623730000000  0.5515770000000 1.0
C      1  0.5263940000000  0.5662960000000  0.4450630000000 1.0
C      1  0.5145000000000  0.4146260000000  0.5402870000000 1.0
C      1  0.5334300000000  0.5139780000000  0.4177410000000 1.0
C      1  0.4229700000000  0.5324890000000  0.5152000000000 1.0
C      1  0.4845680000000  0.4230320000000  0.4678870000000 1.0
C      1  0.5133000000000  0.5827720000000  0.4657980000000 1.0
C      1  0.4860800000000  0.5885990000000  0.5382660000000 1.0
C      1  0.4640710000000  0.5139160000000  0.5822230000000 1.0
C      1  0.5293020000000  0.4851300000000  0.5757530000000 1.0
C      1  0.4610480000000  0.4871270000000  0.4120170000000 1.0
C      1  0.5815680000000  0.5337730000000  0.4857480000000 1.0
C      1  0.4192160000000  0.4654170000000  0.4867610000000 1.0
C      1  0.5876920000000  0.4607980000000  0.5134110000000 1.0
C      1  0.5140750000000  0.5771910000000  0.5309630000000 1.0
C      1  0.5353990000000  0.4849780000000  0.4171180000000 1.0
C      1  0.4200460000000  0.4666790000000  0.5158350000000 1.0
C      1  0.4842060000000  0.5835220000000  0.4640010000000 1.0
C      1  0.5125110000000  0.4118370000000  0.4617810000000 1.0
C      1  0.4846960000000  0.4135840000000  0.5446060000000 1.0
C      1  0.4662470000000  0.4847160000000  0.5801940000000 1.0
C      1  0.5367580000000  0.5130590000000  0.5860930000000 1.0
C      1  0.4680020000000  0.5154630000000  0.4230420000000 1.0
C      1  0.5766530000000  0.4681170000000  0.4851340000000 1.0
C      1  0.4113240000000  0.5392640000000  0.4870870000000 1.0
C      1  0.5817640000000  0.5354430000000  0.5146730000000 1.0
C      1  0.5806140000000  0.4839720000000  0.5641840000000 1.0
C      1  0.5621760000000  0.5802000000000  0.4850030000000 1.0
C      1  0.4870580000000  0.5578780000000  0.5787070000000 1.0
C      1  0.4209430000000  0.4884630000000  0.4430810000000 1.0
C      1  0.5797030000000  0.5147460000000  0.4374060000000 1.0
C      1  0.4200080000000  0.5124660000000  0.5590230000000 1.0
C      1  0.4346550000000  0.5831750000000  0.5163630000000 1.0
C      1  0.5555530000000  0.4210540000000  0.5126140000000 1.0
C      1  0.4429790000000  0.4214730000000  0.4888710000000 1.0
C      1  0.5142890000000  0.5632590000000  0.4194310000000 1.0
C      1  0.4833610000000  0.4355430000000  0.4174870000000 1.0
C      1  0.5150500000000  0.4403830000000  0.5849950000000 1.0
C      1  0.5764290000000  0.5114480000000  0.5564440000000 1.0
C      1  0.5615610000000  0.4178280000000  0.4847670000000 1.0
C      1  0.4848560000000  0.4386320000000  0.5883110000000 1.0
C      1  0.4171940000000  0.5162760000000  0.4359360000000 1.0
C      1  0.5801750000000  0.4865140000000  0.4409660000000 1.0
C      1  0.4184900000000  0.4844700000000  0.5640230000000 1.0
C      1  0.4444380000000  0.4230480000000  0.5176130000000 1.0
C      1  0.5581170000000  0.5802670000000  0.5131810000000 1.0
C      1  0.4411390000000  0.5800330000000  0.4881590000000 1.0
C      1  0.5113670000000  0.4423870000000  0.4211960000000 1.0
C      1  0.4860460000000  0.5594240000000  0.4192270000000 1.0
C      1  0.5150170000000  0.5648750000000  0.5821400000000 1.0
C      1  0.5534620000000  0.4450980000000  0.4454840000000 1.0
C      1  0.4446450000000  0.5551420000000  0.4461540000000 1.0
C      1  0.4454190000000  0.5549320000000  0.5549040000000 1.0
C      1  0.5538940000000  0.4452330000000  0.5542360000000 1.0
C      1  0.4461970000000  0.4457290000000  0.5584980000000 1.0
C      1  0.5527010000000  0.5528970000000  0.5539820000000 1.0
C      1  0.5514880000000  0.5522140000000  0.4476530000000 1.0
C      1  0.4452460000000  0.4466600000000  0.4459260000000 1.0
END
