TITL C-3578201-9217-494 -2.66560050107034e-06 125000 -1039.41048321926 0 0 168 (C2) n - 1
REM
REM in /home/bkarasulu/work/CARBON/AIRSS/Generating-Clusters/EDIP-Nigel-Params/with-SteepDescent/Higher-Symm/SD-CG/HFTN-CG
REM
REM
REM
REM
REM
REM ./C.cell (12c818d87b63d06a65506943cc24bca4)
REM
REM compiler GCC version 9.2.1 20190827 (Red Hat 9.2.1-1)
REM options -cpp -mtune=generic -march=x86-64 -g -O0 -fpre-include=/usr/include/finclude/math-vector-fortran.h
REM seed 1951870263 1491636927 1554799490 -1571998974 78863380 -1469145155 509366450 -2012665082 781721065 386881579 899465458 1502366724 172349111 -1566518389 -1495589687 406011491 -1344457331 1580425150 -70500129 -1986102966 793114768 876161607 1187505376 -705820008 -1330171546 983812212 -327910569 -1491121225 -1425995213 1719075588 -1347996042 1307246055 2014594922
REM
CELL 1.54180   50.00000   50.00000   50.00000   90.00000   90.00000   90.00000
LATT -1
SFAC C  
C      1  0.6226610000000  0.4495370000000  0.5147920000000 1.0
C      1  0.6029450000000  0.5743690000000  0.5120410000000 1.0
C      1  0.4878750000000  0.6238450000000  0.5296290000000 1.0
C      1  0.3773410000000  0.5504670000000  0.5147910000000 1.0
C      1  0.3970560000000  0.4256340000000  0.5120670000000 1.0
C      1  0.5121270000000  0.3761620000000  0.5296570000000 1.0
C      1  0.6189090000000  0.5496300000000  0.5120720000000 1.0
C      1  0.6050800000000  0.4244460000000  0.5154050000000 1.0
C      1  0.4881210000000  0.3782390000000  0.5159170000000 1.0
C      1  0.3810920000000  0.4503730000000  0.5120940000000 1.0
C      1  0.3949220000000  0.5755580000000  0.5153970000000 1.0
C      1  0.5118810000000  0.6217650000000  0.5158880000000 1.0
C      1  0.5334690000000  0.4110840000000  0.5005830000000 1.0
C      1  0.5899620000000  0.4850460000000  0.5009660000000 1.0
C      1  0.5607600000000  0.5732170000000  0.4987130000000 1.0
C      1  0.4665310000000  0.5889160000000  0.5005660000000 1.0
C      1  0.4100380000000  0.5149540000000  0.5009700000000 1.0
C      1  0.4392400000000  0.4267830000000  0.4987350000000 1.0
C      1  0.5335530000000  0.5860840000000  0.5013030000000 1.0
C      1  0.5940710000000  0.5150410000000  0.4998190000000 1.0
C      1  0.5600100000000  0.4269460000000  0.4992270000000 1.0
C      1  0.4664470000000  0.4139170000000  0.5013260000000 1.0
C      1  0.4059290000000  0.4849590000000  0.4998310000000 1.0
C      1  0.4399900000000  0.5730540000000  0.4992150000000 1.0
C      1  0.4452400000000  0.5654290000000  0.4247080000000 1.0
C      1  0.4134870000000  0.4855040000000  0.4234290000000 1.0
C      1  0.4710410000000  0.4201570000000  0.4246670000000 1.0
C      1  0.5547530000000  0.4345540000000  0.4247180000000 1.0
C      1  0.5865060000000  0.5144780000000  0.4234180000000 1.0
C      1  0.5289530000000  0.5798260000000  0.4246460000000 1.0
C      1  0.4452240000000  0.4345690000000  0.4249470000000 1.0
C      1  0.4135330000000  0.5152840000000  0.4233570000000 1.0
C      1  0.4711200000000  0.5797910000000  0.4243280000000 1.0
C      1  0.5547700000000  0.5654140000000  0.4249270000000 1.0
C      1  0.5864600000000  0.4846980000000  0.4233530000000 1.0
C      1  0.5288740000000  0.4201910000000  0.4243440000000 1.0
C      1  0.5641150000000  0.4862820000000  0.5915050000000 1.0
C      1  0.5442920000000  0.5470900000000  0.5908760000000 1.0
C      1  0.4817630000000  0.5593710000000  0.5879080000000 1.0
C      1  0.4358930000000  0.5137390000000  0.5915070000000 1.0
C      1  0.4557160000000  0.4529310000000  0.5908910000000 1.0
C      1  0.5182450000000  0.4406500000000  0.5879200000000 1.0
C      1  0.5646250000000  0.5151650000000  0.5918590000000 1.0
C      1  0.5442510000000  0.4540080000000  0.5898370000000 1.0
C      1  0.4818670000000  0.4401860000000  0.5880140000000 1.0
C      1  0.4353830000000  0.4848560000000  0.5918690000000 1.0
C      1  0.4557560000000  0.5460130000000  0.5898300000000 1.0
C      1  0.5181410000000  0.5598340000000  0.5879990000000 1.0
C      1  0.4852450000000  0.4388130000000  0.4064130000000 1.0
C      1  0.5467710000000  0.4569680000000  0.4072820000000 1.0
C      1  0.5630370000000  0.5184060000000  0.4059090000000 1.0
C      1  0.5147470000000  0.5611650000000  0.4063980000000 1.0
C      1  0.4532200000000  0.5430110000000  0.4072760000000 1.0
C      1  0.4369550000000  0.4815720000000  0.4059190000000 1.0
C      1  0.4853020000000  0.5613860000000  0.4060390000000 1.0
C      1  0.5464920000000  0.5426700000000  0.4079830000000 1.0
C      1  0.5633310000000  0.4811060000000  0.4053310000000 1.0
C      1  0.5146890000000  0.4385920000000  0.4060530000000 1.0
C      1  0.4535000000000  0.4573090000000  0.4079970000000 1.0
C      1  0.4366610000000  0.5188720000000  0.4053320000000 1.0
C      1  0.4802340000000  0.4575840000000  0.5275590000000 1.0
C      1  0.5260860000000  0.4760460000000  0.5406470000000 1.0
C      1  0.5544500000000  0.5123690000000  0.5433180000000 1.0
C      1  0.5197690000000  0.5424220000000  0.5275470000000 1.0
C      1  0.4739180000000  0.5239630000000  0.5406430000000 1.0
C      1  0.4455530000000  0.4876410000000  0.5433260000000 1.0
C      1  0.4996300000000  0.5279170000000  0.5382160000000 1.0
C      1  0.5443430000000  0.5373420000000  0.5389990000000 1.0
C      1  0.5487990000000  0.4878010000000  0.5319500000000 1.0
C      1  0.5003740000000  0.4720920000000  0.5382230000000 1.0
C      1  0.4556600000000  0.4626670000000  0.5390120000000 1.0
C      1  0.4512040000000  0.5122060000000  0.5319510000000 1.0
C      1  0.4900270000000  0.3796970000000  0.4861850000000 1.0
C      1  0.6044990000000  0.4233810000000  0.4837540000000 1.0
C      1  0.6202180000000  0.5460550000000  0.4823710000000 1.0
C      1  0.5099720000000  0.6203000000000  0.4861560000000 1.0
C      1  0.3954990000000  0.5766150000000  0.4837450000000 1.0
C      1  0.3797800000000  0.4539410000000  0.4823930000000 1.0
C      1  0.4854370000000  0.6250900000000  0.4732890000000 1.0
C      1  0.6014630000000  0.5791910000000  0.4828990000000 1.0
C      1  0.6185520000000  0.4508630000000  0.4825540000000 1.0
C      1  0.5145610000000  0.3749030000000  0.4733170000000 1.0
C      1  0.3985360000000  0.4208050000000  0.4829270000000 1.0
C      1  0.3814470000000  0.5491330000000  0.4825530000000 1.0
C      1  0.5654470000000  0.4427260000000  0.4522220000000 1.0
C      1  0.5824640000000  0.5266440000000  0.4511960000000 1.0
C      1  0.5161910000000  0.5808930000000  0.4522110000000 1.0
C      1  0.4345490000000  0.5572630000000  0.4522140000000 1.0
C      1  0.4175320000000  0.4733450000000  0.4512100000000 1.0
C      1  0.4838050000000  0.4190960000000  0.4522320000000 1.0
C      1  0.5656720000000  0.5580380000000  0.4522620000000 1.0
C      1  0.5812010000000  0.4723330000000  0.4511370000000 1.0
C      1  0.5162820000000  0.4195350000000  0.4518280000000 1.0
C      1  0.4343240000000  0.4419510000000  0.4522810000000 1.0
C      1  0.4187950000000  0.5276550000000  0.4511380000000 1.0
C      1  0.4837140000000  0.5804540000000  0.4518110000000 1.0
C      1  0.5158150000000  0.5512190000000  0.4615340000000 1.0
C      1  0.4578190000000  0.5410530000000  0.4677720000000 1.0
C      1  0.4444430000000  0.4855890000000  0.4604870000000 1.0
C      1  0.4841810000000  0.4487720000000  0.4615470000000 1.0
C      1  0.5421780000000  0.4589400000000  0.4677780000000 1.0
C      1  0.5555530000000  0.5144020000000  0.4604780000000 1.0
C      1  0.5150580000000  0.4495830000000  0.4601140000000 1.0
C      1  0.4560800000000  0.4584210000000  0.4679620000000 1.0
C      1  0.4453760000000  0.5144450000000  0.4596450000000 1.0
C      1  0.4849390000000  0.5504070000000  0.4601030000000 1.0
C      1  0.5439180000000  0.5415720000000  0.4679480000000 1.0
C      1  0.5546200000000  0.4855460000000  0.4596430000000 1.0
C      1  0.4539950000000  0.5458370000000  0.4966720000000 1.0
C      1  0.4311160000000  0.4734620000000  0.5041110000000 1.0
C      1  0.4867200000000  0.4351730000000  0.5106890000000 1.0
C      1  0.5460040000000  0.4541620000000  0.4966790000000 1.0
C      1  0.5688840000000  0.5265390000000  0.5040980000000 1.0
C      1  0.5132800000000  0.5648300000000  0.5106730000000 1.0
C      1  0.4493180000000  0.4542340000000  0.4961470000000 1.0
C      1  0.4387860000000  0.5226380000000  0.5084400000000 1.0
C      1  0.4851140000000  0.5658840000000  0.5052570000000 1.0
C      1  0.5506820000000  0.5457650000000  0.4961320000000 1.0
C      1  0.5612150000000  0.4773640000000  0.5084400000000 1.0
C      1  0.5148860000000  0.4341170000000  0.5052710000000 1.0
C      1  0.4732050000000  0.4009120000000  0.4748510000000 1.0
C      1  0.5758830000000  0.4230310000000  0.4739620000000 1.0
C      1  0.6045160000000  0.5235910000000  0.4727690000000 1.0
C      1  0.5267930000000  0.5990820000000  0.4748250000000 1.0
C      1  0.4241150000000  0.5769630000000  0.4739500000000 1.0
C      1  0.3954820000000  0.4764020000000  0.4727840000000 1.0
C      1  0.4726790000000  0.6003020000000  0.4728980000000 1.0
C      1  0.5745970000000  0.5795340000000  0.4723940000000 1.0
C      1  0.6004740000000  0.4735400000000  0.4752250000000 1.0
C      1  0.5273180000000  0.3996910000000  0.4729190000000 1.0
C      1  0.4254000000000  0.4204590000000  0.4724190000000 1.0
C      1  0.3995240000000  0.5264540000000  0.4752280000000 1.0
C      1  0.4847440000000  0.5816030000000  0.5687770000000 1.0
C      1  0.4192980000000  0.5278330000000  0.5720220000000 1.0
C      1  0.4338730000000  0.4447100000000  0.5731800000000 1.0
C      1  0.5152620000000  0.4184130000000  0.5687950000000 1.0
C      1  0.5807080000000  0.4721840000000  0.5720210000000 1.0
C      1  0.5661330000000  0.5553070000000  0.5731610000000 1.0
C      1  0.4852750000000  0.4184560000000  0.5683220000000 1.0
C      1  0.4177540000000  0.4702180000000  0.5731940000000 1.0
C      1  0.4343890000000  0.5530440000000  0.5711430000000 1.0
C      1  0.5147310000000  0.5815600000000  0.5683020000000 1.0
C      1  0.5822520000000  0.5297990000000  0.5731800000000 1.0
C      1  0.5656170000000  0.4469730000000  0.5711500000000 1.0
C      1  0.5624750000000  0.4268510000000  0.5498130000000 1.0
C      1  0.6005320000000  0.5151000000000  0.5539870000000 1.0
C      1  0.5377330000000  0.5928820000000  0.5530470000000 1.0
C      1  0.4375300000000  0.5731610000000  0.5498020000000 1.0
C      1  0.3994730000000  0.4849130000000  0.5539990000000 1.0
C      1  0.4622720000000  0.4071300000000  0.5530720000000 1.0
C      1  0.5631030000000  0.5777550000000  0.5537770000000 1.0
C      1  0.6009160000000  0.4855060000000  0.5546250000000 1.0
C      1  0.5362890000000  0.4136820000000  0.5485460000000 1.0
C      1  0.4369010000000  0.4222570000000  0.5538010000000 1.0
C      1  0.3990880000000  0.5145070000000  0.5546300000000 1.0
C      1  0.4637150000000  0.5863290000000  0.5485290000000 1.0
C      1  0.6108220000000  0.4728450000000  0.5296070000000 1.0
C      1  0.5807640000000  0.5803170000000  0.5306830000000 1.0
C      1  0.4672420000000  0.6053730000000  0.5264340000000 1.0
C      1  0.3891800000000  0.5271620000000  0.5296100000000 1.0
C      1  0.4192380000000  0.4196900000000  0.5307090000000 1.0
C      1  0.5327600000000  0.3946330000000  0.5264550000000 1.0
C      1  0.6138120000000  0.5268650000000  0.5305640000000 1.0
C      1  0.5769410000000  0.4289770000000  0.5238260000000 1.0
C      1  0.4648070000000  0.3891560000000  0.5299770000000 1.0
C      1  0.3861910000000  0.4731420000000  0.5305800000000 1.0
C      1  0.4230610000000  0.5710290000000  0.5238160000000 1.0
C      1  0.5351950000000  0.6108510000000  0.5299480000000 1.0
END
