TITL C-3577088-510-264 -2.66524428864375e-06 125000 -965.097696898005 0 0 154 (C1) n - 1
REM
REM in /home/bkarasulu/work/CARBON/AIRSS/Generating-Clusters/EDIP-Nigel-Params/with-SteepDescent/Higher-Symm/SD-CG/HFTN-CG
REM
REM
REM
REM
REM
REM ./C.cell (12c818d87b63d06a65506943cc24bca4)
REM
REM compiler GCC version 9.2.1 20190827 (Red Hat 9.2.1-1)
REM options -cpp -mtune=generic -march=x86-64 -g -O0 -fpre-include=/usr/include/finclude/math-vector-fortran.h
REM seed 1484639595 -1618766025 -1654227239 1368142979 385735971 997510108 856912345 -1820085745 173680984 1590124698 1102594614 -1844550572 1652755417 -1359467528 -930432288 -1504981474 -1880001693 1487929690 -216634884 1534400962 1502228346 678976693 1818187957 -397891267 -123850552 2080227285 590996853 1997054840 1169721178 1845122058 -212702709 1248621856 1914785077
REM
CELL 1.54180   50.00000   50.00000   50.00000   90.00000   90.00000   90.00000
LATT -1
SFAC C  
C      1  0.5496630000000  0.4836820000000  0.4613450000000 1.0
C      1  0.4883980000000  0.5479010000000  0.4609140000000 1.0
C      1  0.4647440000000  0.4615400000000  0.4591880000000 1.0
C      1  0.5502020000000  0.4860220000000  0.5418640000000 1.0
C      1  0.4895880000000  0.5522020000000  0.5401710000000 1.0
C      1  0.4614110000000  0.4669690000000  0.5408270000000 1.0
C      1  0.4555050000000  0.4433400000000  0.5594180000000 1.0
C      1  0.5751210000000  0.4913660000000  0.5585810000000 1.0
C      1  0.4718800000000  0.5690510000000  0.5580050000000 1.0
C      1  0.4582670000000  0.4369260000000  0.4422570000000 1.0
C      1  0.5732310000000  0.4904750000000  0.4442300000000 1.0
C      1  0.4705270000000  0.5656430000000  0.4437030000000 1.0
C      1  0.5354250000000  0.4423820000000  0.4159380000000 1.0
C      1  0.5342550000000  0.5565370000000  0.4257280000000 1.0
C      1  0.4313730000000  0.4994880000000  0.4224580000000 1.0
C      1  0.5331550000000  0.4421000000000  0.5778030000000 1.0
C      1  0.5365710000000  0.5598000000000  0.5794700000000 1.0
C      1  0.4321360000000  0.5032920000000  0.5775140000000 1.0
C      1  0.4910010000000  0.6046420000000  0.4647920000000 1.0
C      1  0.4142580000000  0.4364610000000  0.4629370000000 1.0
C      1  0.5965050000000  0.4516050000000  0.4623990000000 1.0
C      1  0.4924590000000  0.6074640000000  0.5384770000000 1.0
C      1  0.4121190000000  0.4408730000000  0.5394980000000 1.0
C      1  0.5964920000000  0.4528900000000  0.5348460000000 1.0
C      1  0.5812300000000  0.4592510000000  0.4373290000000 1.0
C      1  0.4940930000000  0.5871910000000  0.4403730000000 1.0
C      1  0.4281380000000  0.4479920000000  0.4387720000000 1.0
C      1  0.5806810000000  0.4593840000000  0.5600930000000 1.0
C      1  0.4952030000000  0.5899080000000  0.5630940000000 1.0
C      1  0.4258100000000  0.4530320000000  0.5635050000000 1.0
C      1  0.4226260000000  0.5330770000000  0.4617140000000 1.0
C      1  0.5130770000000  0.4035340000000  0.4348190000000 1.0
C      1  0.5679620000000  0.5466940000000  0.4638030000000 1.0
C      1  0.4255580000000  0.5364160000000  0.5386970000000 1.0
C      1  0.5064960000000  0.4195720000000  0.5405840000000 1.0
C      1  0.5698190000000  0.5488680000000  0.5408660000000 1.0
C      1  0.5225650000000  0.5776660000000  0.4417860000000 1.0
C      1  0.4221680000000  0.4777100000000  0.4401030000000 1.0
C      1  0.5592620000000  0.4385210000000  0.4334630000000 1.0
C      1  0.5236190000000  0.5793570000000  0.5618750000000 1.0
C      1  0.4219800000000  0.4824710000000  0.5598910000000 1.0
C      1  0.5571250000000  0.4406550000000  0.5603640000000 1.0
C      1  0.4709470000000  0.4957760000000  0.3856670000000 1.0
C      1  0.5211340000000  0.4786730000000  0.3837290000000 1.0
C      1  0.5132290000000  0.5291780000000  0.3870060000000 1.0
C      1  0.4694160000000  0.4979180000000  0.6143410000000 1.0
C      1  0.5183230000000  0.4765020000000  0.6150140000000 1.0
C      1  0.5114520000000  0.5298320000000  0.6153750000000 1.0
C      1  0.4825500000000  0.4274240000000  0.5226330000000 1.0
C      1  0.5745850000000  0.5237090000000  0.5213110000000 1.0
C      1  0.4440550000000  0.5535290000000  0.5196330000000 1.0
C      1  0.4852140000000  0.4221280000000  0.4876770000000 1.0
C      1  0.5724160000000  0.5212260000000  0.4831870000000 1.0
C      1  0.4430860000000  0.5494460000000  0.4816300000000 1.0
C      1  0.5182980000000  0.4743960000000  0.4403720000000 1.0
C      1  0.5091180000000  0.5255610000000  0.4441470000000 1.0
C      1  0.4714000000000  0.4935850000000  0.4386960000000 1.0
C      1  0.5178420000000  0.4788750000000  0.5596420000000 1.0
C      1  0.5129190000000  0.5286740000000  0.5600110000000 1.0
C      1  0.4709880000000  0.4986730000000  0.5577340000000 1.0
C      1  0.5235380000000  0.5045470000000  0.6052070000000 1.0
C      1  0.4852980000000  0.5207280000000  0.6036350000000 1.0
C      1  0.4906610000000  0.4795010000000  0.6037870000000 1.0
C      1  0.5253700000000  0.5045100000000  0.3978570000000 1.0
C      1  0.4864710000000  0.5189040000000  0.3963400000000 1.0
C      1  0.4933700000000  0.4781000000000  0.3949680000000 1.0
C      1  0.5555880000000  0.4216610000000  0.4574280000000 1.0
C      1  0.5374900000000  0.5889170000000  0.4642550000000 1.0
C      1  0.4043360000000  0.4841680000000  0.4623840000000 1.0
C      1  0.5577190000000  0.4227830000000  0.5369660000000 1.0
C      1  0.5400390000000  0.5917930000000  0.5408410000000 1.0
C      1  0.4033510000000  0.4896000000000  0.5384760000000 1.0
C      1  0.5929150000000  0.5036930000000  0.5369690000000 1.0
C      1  0.4509920000000  0.5788030000000  0.5379840000000 1.0
C      1  0.4572390000000  0.4203940000000  0.5399100000000 1.0
C      1  0.5909270000000  0.5018930000000  0.4662490000000 1.0
C      1  0.4506210000000  0.5747120000000  0.4647040000000 1.0
C      1  0.4609550000000  0.4163220000000  0.4660120000000 1.0
C      1  0.3837320000000  0.5204200000000  0.4894030000000 1.0
C      1  0.5116420000000  0.4051930000000  0.4825630000000 1.0
C      1  0.5793650000000  0.5867170000000  0.4906620000000 1.0
C      1  0.3826180000000  0.5279570000000  0.5149380000000 1.0
C      1  0.5286080000000  0.3997390000000  0.5037990000000 1.0
C      1  0.5835010000000  0.5902420000000  0.5167580000000 1.0
C      1  0.5098360000000  0.4276100000000  0.4213100000000 1.0
C      1  0.5557580000000  0.5399100000000  0.4374690000000 1.0
C      1  0.4351480000000  0.5265460000000  0.4351190000000 1.0
C      1  0.5072000000000  0.4326670000000  0.5668870000000 1.0
C      1  0.5552330000000  0.5411570000000  0.5655370000000 1.0
C      1  0.4390130000000  0.5286150000000  0.5640120000000 1.0
C      1  0.4034480000000  0.5124040000000  0.4717120000000 1.0
C      1  0.5271260000000  0.4100480000000  0.4581850000000 1.0
C      1  0.5614220000000  0.5740230000000  0.4738370000000 1.0
C      1  0.4050620000000  0.5175020000000  0.5281190000000 1.0
C      1  0.5318070000000  0.4108330000000  0.5287640000000 1.0
C      1  0.5634800000000  0.5762500000000  0.5306100000000 1.0
C      1  0.4392230000000  0.4714760000000  0.5205650000000 1.0
C      1  0.5560870000000  0.4640490000000  0.5229690000000 1.0
C      1  0.5071200000000  0.5690430000000  0.5220840000000 1.0
C      1  0.4416100000000  0.4671710000000  0.4780710000000 1.0
C      1  0.5567080000000  0.4604180000000  0.4792610000000 1.0
C      1  0.5039300000000  0.5654470000000  0.4796780000000 1.0
C      1  0.4597590000000  0.5418070000000  0.4270850000000 1.0
C      1  0.4835490000000  0.4422470000000  0.4238390000000 1.0
C      1  0.5570740000000  0.5116930000000  0.4281670000000 1.0
C      1  0.4620760000000  0.5448990000000  0.5741920000000 1.0
C      1  0.4820350000000  0.4469030000000  0.5750960000000 1.0
C      1  0.5593290000000  0.5131970000000  0.5755130000000 1.0
C      1  0.5217730000000  0.5225630000000  0.5282040000000 1.0
C      1  0.4730260000000  0.5095380000000  0.5246120000000 1.0
C      1  0.5076930000000  0.4749560000000  0.5265410000000 1.0
C      1  0.5177830000000  0.5176560000000  0.4804820000000 1.0
C      1  0.4701700000000  0.5043270000000  0.4693700000000 1.0
C      1  0.5104060000000  0.4655900000000  0.4698430000000 1.0
C      1  0.4866840000000  0.4512290000000  0.4753770000000 1.0
C      1  0.5453200000000  0.5059760000000  0.4803580000000 1.0
C      1  0.4700540000000  0.5328420000000  0.4779040000000 1.0
C      1  0.4832540000000  0.4579260000000  0.5242770000000 1.0
C      1  0.5478500000000  0.5091630000000  0.5244790000000 1.0
C      1  0.4709990000000  0.5390270000000  0.5215960000000 1.0
C      1  0.4477730000000  0.4930080000000  0.4008260000000 1.0
C      1  0.5369220000000  0.4583850000000  0.3933660000000 1.0
C      1  0.5229470000000  0.5506720000000  0.4011230000000 1.0
C      1  0.4453310000000  0.4961520000000  0.6009280000000 1.0
C      1  0.5326830000000  0.4569360000000  0.6014570000000 1.0
C      1  0.5229530000000  0.5513820000000  0.6023240000000 1.0
C      1  0.4058080000000  0.4645480000000  0.5199340000000 1.0
C      1  0.5789530000000  0.4331030000000  0.5173210000000 1.0
C      1  0.5178480000000  0.6010370000000  0.5212960000000 1.0
C      1  0.4038790000000  0.4600270000000  0.4811130000000 1.0
C      1  0.5753480000000  0.4347790000000  0.4786080000000 1.0
C      1  0.5167140000000  0.6018890000000  0.4823200000000 1.0
C      1  0.6006450000000  0.4795680000000  0.5207690000000 1.0
C      1  0.4679330000000  0.5983370000000  0.5232450000000 1.0
C      1  0.4310400000000  0.4219320000000  0.5262860000000 1.0
C      1  0.6019860000000  0.4767010000000  0.4772320000000 1.0
C      1  0.4662720000000  0.5950610000000  0.4791610000000 1.0
C      1  0.4338610000000  0.4193280000000  0.4781870000000 1.0
C      1  0.5278110000000  0.5039390000000  0.4284060000000 1.0
C      1  0.4814270000000  0.5208660000000  0.4259580000000 1.0
C      1  0.4913070000000  0.4712760000000  0.4246580000000 1.0
C      1  0.5294960000000  0.5062390000000  0.5756010000000 1.0
C      1  0.4830350000000  0.5236750000000  0.5736190000000 1.0
C      1  0.4900120000000  0.4756040000000  0.5738880000000 1.0
C      1  0.5261630000000  0.5484270000000  0.5150330000000 1.0
C      1  0.4487180000000  0.4976220000000  0.5111250000000 1.0
C      1  0.5288900000000  0.4590330000000  0.5137630000000 1.0
C      1  0.5235730000000  0.5454470000000  0.4880180000000 1.0
C      1  0.4480250000000  0.4945910000000  0.4837580000000 1.0
C      1  0.5297480000000  0.4531020000000  0.4864790000000 1.0
C      1  0.5751220000000  0.4825430000000  0.5025040000000 1.0
C      1  0.4351680000000  0.4370260000000  0.5017540000000 1.0
C      1  0.4750320000000  0.5781270000000  0.5016110000000 1.0
C      1  0.5020430000000  0.5033240000000  0.5129850000000 1.0
END
