TITL C-3577077-324-315 0.000330383288055697 125000 -675.643513877652 0 0 110 (C1) n - 1
REM
REM in /home/bkarasulu/work/CARBON/AIRSS/Generating-Clusters/EDIP-Nigel-Params/with-SteepDescent/Higher-Symm/SD-CG/HFTN-CG
REM
REM
REM
REM
REM
REM ./C.cell (12c818d87b63d06a65506943cc24bca4)
REM
REM compiler GCC version 9.2.1 20190827 (Red Hat 9.2.1-1)
REM options -cpp -mtune=generic -march=x86-64 -g -O0 -fpre-include=/usr/include/finclude/math-vector-fortran.h
REM seed -1285466510 -267905860 -1640358265 -1362266992 -442208005 1599196204 -205778434 -1767510683 -2144977646 -266383536 479204727 1492655585 -504465426 -1613101212 -414522592 -1341199484 230330815 -869146620 -1048453118 -1725243709 1745373249 -1434978314 949705537 777495083 1709833104 290531371 -1516026542 -2131259544 -399631970 -1236697617 133358261 2133062987 329070095
REM
CELL 1.54180   50.00000   50.00000   50.00000   90.00000   90.00000   90.00000
LATT -1
SFAC C  
C      1  0.4239430000000  0.4462550000000  0.5066390000000 1.0
C      1  0.4263650000000  0.4660580000000  0.5385830000000 1.0
C      1  0.4272040000000  0.4920090000000  0.5514090000000 1.0
C      1  0.4137030000000  0.5135030000000  0.5395360000000 1.0
C      1  0.4239820000000  0.5392940000000  0.5356330000000 1.0
C      1  0.4248270000000  0.5500960000000  0.5085400000000 1.0
C      1  0.4271830000000  0.5419050000000  0.4712350000000 1.0
C      1  0.4257910000000  0.5246950000000  0.4477520000000 1.0
C      1  0.4327310000000  0.4943780000000  0.4422400000000 1.0
C      1  0.4254820000000  0.4670880000000  0.4520720000000 1.0
C      1  0.4313100000000  0.4499510000000  0.4790090000000 1.0
C      1  0.4675340000000  0.4935720000000  0.5353830000000 1.0
C      1  0.4864680000000  0.5083900000000  0.5573610000000 1.0
C      1  0.4780870000000  0.5327960000000  0.5398420000000 1.0
C      1  0.4616990000000  0.5138220000000  0.5137490000000 1.0
C      1  0.4837810000000  0.5247760000000  0.4985980000000 1.0
C      1  0.4757830000000  0.5381890000000  0.4748650000000 1.0
C      1  0.4782270000000  0.5207320000000  0.4532880000000 1.0
C      1  0.4732920000000  0.4935640000000  0.4595590000000 1.0
C      1  0.4889790000000  0.4846520000000  0.4813470000000 1.0
C      1  0.4875250000000  0.4611100000000  0.4985400000000 1.0
C      1  0.4799930000000  0.4669880000000  0.5269240000000 1.0
C      1  0.4391960000000  0.4263410000000  0.4618340000000 1.0
C      1  0.4374400000000  0.4258490000000  0.5233430000000 1.0
C      1  0.4386560000000  0.4413510000000  0.5481430000000 1.0
C      1  0.4457490000000  0.5000630000000  0.5724710000000 1.0
C      1  0.4471570000000  0.5282840000000  0.5787990000000 1.0
C      1  0.4414040000000  0.5479430000000  0.5578840000000 1.0
C      1  0.4356530000000  0.5753640000000  0.4989500000000 1.0
C      1  0.4369370000000  0.5692970000000  0.4702830000000 1.0
C      1  0.4405220000000  0.5317380000000  0.4200470000000 1.0
C      1  0.4422740000000  0.5015600000000  0.4139550000000 1.0
C      1  0.4375560000000  0.4431500000000  0.4360020000000 1.0
C      1  0.5059820000000  0.4570230000000  0.5793620000000 1.0
C      1  0.5090050000000  0.5063460000000  0.5950120000000 1.0
C      1  0.5073230000000  0.5540770000000  0.5736520000000 1.0
C      1  0.5020380000000  0.5817670000000  0.5325770000000 1.0
C      1  0.5002720000000  0.5905670000000  0.4828220000000 1.0
C      1  0.5078820000000  0.5645640000000  0.4377410000000 1.0
C      1  0.5107830000000  0.5193800000000  0.4124490000000 1.0
C      1  0.5072200000000  0.4693010000000  0.4180020000000 1.0
C      1  0.5039030000000  0.4259870000000  0.4425640000000 1.0
C      1  0.5058370000000  0.4102500000000  0.4921150000000 1.0
C      1  0.5060050000000  0.4222970000000  0.5399440000000 1.0
C      1  0.5061350000000  0.4770690000000  0.5404570000000 1.0
C      1  0.5175880000000  0.5047040000000  0.5516040000000 1.0
C      1  0.5263890000000  0.5243320000000  0.5302820000000 1.0
C      1  0.5048280000000  0.5406730000000  0.5163990000000 1.0
C      1  0.5222870000000  0.5448960000000  0.4913870000000 1.0
C      1  0.5129000000000  0.5316280000000  0.4657870000000 1.0
C      1  0.5274960000000  0.5061320000000  0.4613420000000 1.0
C      1  0.5105290000000  0.4826390000000  0.4598640000000 1.0
C      1  0.5273830000000  0.4636810000000  0.4735520000000 1.0
C      1  0.5177970000000  0.4540520000000  0.4992330000000 1.0
C      1  0.5287780000000  0.4694240000000  0.5223400000000 1.0
C      1  0.5555500000000  0.5584910000000  0.4651240000000 1.0
C      1  0.5493630000000  0.5021820000000  0.4416420000000 1.0
C      1  0.5529350000000  0.4716530000000  0.4361210000000 1.0
C      1  0.5467210000000  0.4483410000000  0.4576730000000 1.0
C      1  0.5575420000000  0.4328420000000  0.4828330000000 1.0
C      1  0.5486430000000  0.4528680000000  0.5371540000000 1.0
C      1  0.5501540000000  0.4635970000000  0.5657200000000 1.0
C      1  0.5491130000000  0.4923960000000  0.5684970000000 1.0
C      1  0.5458610000000  0.5443830000000  0.5406570000000 1.0
C      1  0.5496520000000  0.5682700000000  0.5219360000000 1.0
C      1  0.5421530000000  0.5663280000000  0.4912650000000 1.0
C      1  0.4922140000000  0.4401240000000  0.5598950000000 1.0
C      1  0.4929460000000  0.4811450000000  0.5909460000000 1.0
C      1  0.4961970000000  0.5334930000000  0.5920060000000 1.0
C      1  0.4898300000000  0.5713050000000  0.5568360000000 1.0
C      1  0.4865360000000  0.5881760000000  0.5087190000000 1.0
C      1  0.4896080000000  0.5772140000000  0.4586480000000 1.0
C      1  0.4952660000000  0.5441030000000  0.4199120000000 1.0
C      1  0.4957710000000  0.4942300000000  0.4081530000000 1.0
C      1  0.4908270000000  0.4463690000000  0.4260200000000 1.0
C      1  0.4908530000000  0.4162110000000  0.4669470000000 1.0
C      1  0.4901100000000  0.4105830000000  0.5173890000000 1.0
C      1  0.4680550000000  0.4950530000000  0.4053430000000 1.0
C      1  0.4630120000000  0.4470720000000  0.4248990000000 1.0
C      1  0.4632900000000  0.4127340000000  0.4658070000000 1.0
C      1  0.4619870000000  0.4133210000000  0.5166600000000 1.0
C      1  0.4642970000000  0.4415040000000  0.5594120000000 1.0
C      1  0.4654230000000  0.4842390000000  0.5850660000000 1.0
C      1  0.4684730000000  0.5347890000000  0.5955690000000 1.0
C      1  0.4615950000000  0.5678230000000  0.5561760000000 1.0
C      1  0.4589060000000  0.5865920000000  0.5092670000000 1.0
C      1  0.4613650000000  0.5756640000000  0.4572450000000 1.0
C      1  0.4665960000000  0.5438620000000  0.4183590000000 1.0
C      1  0.5312630000000  0.4258700000000  0.5007150000000 1.0
C      1  0.5350930000000  0.4254950000000  0.5316020000000 1.0
C      1  0.5329730000000  0.4516060000000  0.5839480000000 1.0
C      1  0.5366100000000  0.5038210000000  0.5905830000000 1.0
C      1  0.5343190000000  0.5525160000000  0.5655080000000 1.0
C      1  0.5298260000000  0.5852270000000  0.5326430000000 1.0
C      1  0.5280360000000  0.5905800000000  0.4852040000000 1.0
C      1  0.5356860000000  0.5592850000000  0.4439770000000 1.0
C      1  0.5386990000000  0.5165440000000  0.4183300000000 1.0
C      1  0.5348290000000  0.4661490000000  0.4157760000000 1.0
C      1  0.5316100000000  0.4285680000000  0.4434660000000 1.0
C      1  0.5904750000000  0.4912330000000  0.4635620000000 1.0
C      1  0.5912360000000  0.4685890000000  0.4781880000000 1.0
C      1  0.5772600000000  0.4508840000000  0.4949400000000 1.0
C      1  0.5753720000000  0.4556660000000  0.5235210000000 1.0
C      1  0.5947630000000  0.4717010000000  0.5348370000000 1.0
C      1  0.6104530000000  0.4930710000000  0.5354020000000 1.0
C      1  0.6171450000000  0.5162880000000  0.5245840000000 1.0
C      1  0.6120020000000  0.5341760000000  0.5057530000000 1.0
C      1  0.5965610000000  0.5413020000000  0.4854070000000 1.0
C      1  0.5751330000000  0.5367910000000  0.4685560000000 1.0
C      1  0.5750180000000  0.5121280000000  0.4532930000000 1.0
END
