TITL C-3578205-846-36 -4.01296853084608e-07 125000 -570.155463031559 0 0 92 (Ci) n - 1
REM
REM in /home/bkarasulu/work/CARBON/AIRSS/Generating-Clusters/EDIP-Nigel-Params/with-SteepDescent/Higher-Symm/SD-CG/HFTN-CG
REM
REM
REM
REM
REM
REM ./C.cell (12c818d87b63d06a65506943cc24bca4)
REM
REM compiler GCC version 9.2.1 20190827 (Red Hat 9.2.1-1)
REM options -cpp -mtune=generic -march=x86-64 -g -O0 -fpre-include=/usr/include/finclude/math-vector-fortran.h
REM seed 2144356711 171818158 -1934858580 262492269 -612024421 -1135244734 -1888800993 1140083425 -1678194752 -1915810861 449364055 -232888870 874442066 -281359069 -635750381 -985361401 -1381443236 1626667986 -1247278542 -205243910 512358878 203013531 1885128197 -1039003420 310031814 2061141226 -1103871399 266000766 502777079 -1329492299 -700501730 879056669 -849211096
REM
CELL 1.54180   50.00000   50.00000   50.00000   90.00000   90.00000   90.00000
LATT -1
SFAC C  
C      1  0.5599270000000  0.5263680000000  0.5467550000000 1.0
C      1  0.4400730000000  0.4736320000000  0.4532450000000 1.0
C      1  0.4248170000000  0.4735350000000  0.4812210000000 1.0
C      1  0.5751830000000  0.5264650000000  0.5187790000000 1.0
C      1  0.4799790000000  0.5915580000000  0.5298760000000 1.0
C      1  0.5200210000000  0.4084420000000  0.4701240000000 1.0
C      1  0.4611950000000  0.4532460000000  0.5604360000000 1.0
C      1  0.5388050000000  0.5467540000000  0.4395640000000 1.0
C      1  0.5673500000000  0.5028460000000  0.5016460000000 1.0
C      1  0.4326500000000  0.4971540000000  0.4983540000000 1.0
C      1  0.4626820000000  0.5267860000000  0.5696490000000 1.0
C      1  0.5373180000000  0.4732140000000  0.4303510000000 1.0
C      1  0.4869050000000  0.5674690000000  0.5475440000000 1.0
C      1  0.5130950000000  0.4325310000000  0.4524560000000 1.0
C      1  0.5309270000000  0.5486360000000  0.5213640000000 1.0
C      1  0.4690730000000  0.4513640000000  0.4786360000000 1.0
C      1  0.4589640000000  0.4981840000000  0.4495170000000 1.0
C      1  0.5410360000000  0.5018160000000  0.5504830000000 1.0
C      1  0.4897640000000  0.4245220000000  0.4346830000000 1.0
C      1  0.5102360000000  0.5754780000000  0.5653170000000 1.0
C      1  0.5044920000000  0.4576630000000  0.5249730000000 1.0
C      1  0.4955080000000  0.5423370000000  0.4750270000000 1.0
C      1  0.5066080000000  0.5269320000000  0.5752950000000 1.0
C      1  0.4933920000000  0.4730680000000  0.4247050000000 1.0
C      1  0.4729480000000  0.5249950000000  0.4829960000000 1.0
C      1  0.5270520000000  0.4750050000000  0.5170040000000 1.0
C      1  0.4765270000000  0.4496660000000  0.4276400000000 1.0
C      1  0.5234730000000  0.5503340000000  0.5723600000000 1.0
C      1  0.5262720000000  0.5229020000000  0.4283770000000 1.0
C      1  0.4737280000000  0.4770980000000  0.5716230000000 1.0
C      1  0.4509050000000  0.4341330000000  0.4944650000000 1.0
C      1  0.5490950000000  0.5658670000000  0.5055350000000 1.0
C      1  0.5613710000000  0.5169750000000  0.4549010000000 1.0
C      1  0.4386290000000  0.4830250000000  0.5450990000000 1.0
C      1  0.4904060000000  0.4017940000000  0.4776100000000 1.0
C      1  0.5095940000000  0.5982060000000  0.5223900000000 1.0
C      1  0.4431690000000  0.5580820000000  0.4561120000000 1.0
C      1  0.5568310000000  0.4419180000000  0.5438880000000 1.0
C      1  0.4283820000000  0.4505660000000  0.5000140000000 1.0
C      1  0.5716180000000  0.5494340000000  0.4999860000000 1.0
C      1  0.5378710000000  0.5783540000000  0.4832840000000 1.0
C      1  0.4621290000000  0.4216460000000  0.5167160000000 1.0
C      1  0.4564700000000  0.4476890000000  0.4507170000000 1.0
C      1  0.5435300000000  0.5523110000000  0.5492830000000 1.0
C      1  0.5098300000000  0.4509990000000  0.5545430000000 1.0
C      1  0.4901700000000  0.5490010000000  0.4454570000000 1.0
C      1  0.5333300000000  0.5211980000000  0.5080170000000 1.0
C      1  0.4666700000000  0.4788020000000  0.4919830000000 1.0
C      1  0.5198330000000  0.5011370000000  0.5716760000000 1.0
C      1  0.4801670000000  0.4988630000000  0.4283240000000 1.0
C      1  0.4253720000000  0.5398490000000  0.5149020000000 1.0
C      1  0.5746280000000  0.4601510000000  0.4850980000000 1.0
C      1  0.4469760000000  0.4532240000000  0.5338450000000 1.0
C      1  0.5530240000000  0.5467760000000  0.4661550000000 1.0
C      1  0.4135200000000  0.5228300000000  0.5339550000000 1.0
C      1  0.5864800000000  0.4771700000000  0.4660450000000 1.0
C      1  0.4467900000000  0.5345880000000  0.4714450000000 1.0
C      1  0.5532100000000  0.4654120000000  0.5285550000000 1.0
C      1  0.4789860000000  0.4980280000000  0.4726170000000 1.0
C      1  0.5210140000000  0.5019720000000  0.5273830000000 1.0
C      1  0.4536870000000  0.5484880000000  0.5224390000000 1.0
C      1  0.5463130000000  0.4515120000000  0.4775610000000 1.0
C      1  0.4725690000000  0.4123920000000  0.4555640000000 1.0
C      1  0.5274310000000  0.5876080000000  0.5444360000000 1.0
C      1  0.4807640000000  0.4765250000000  0.5181540000000 1.0
C      1  0.5192360000000  0.5234750000000  0.4818460000000 1.0
C      1  0.4602320000000  0.5512020000000  0.5527640000000 1.0
C      1  0.5397680000000  0.4487980000000  0.4472360000000 1.0
C      1  0.5077750000000  0.4338910000000  0.5045610000000 1.0
C      1  0.4922250000000  0.5661090000000  0.4954390000000 1.0
C      1  0.5156560000000  0.4970050000000  0.4693170000000 1.0
C      1  0.4843440000000  0.5029950000000  0.5306830000000 1.0
C      1  0.5174170000000  0.4706690000000  0.4104060000000 1.0
C      1  0.4825830000000  0.5293310000000  0.5895940000000 1.0
C      1  0.4878400000000  0.4114520000000  0.5074420000000 1.0
C      1  0.5121600000000  0.5885480000000  0.4925580000000 1.0
C      1  0.4996530000000  0.4471580000000  0.4777100000000 1.0
C      1  0.5003470000000  0.5528420000000  0.5222900000000 1.0
C      1  0.4644850000000  0.5749180000000  0.5083850000000 1.0
C      1  0.5355150000000  0.4250820000000  0.4916150000000 1.0
C      1  0.4736570000000  0.5264550000000  0.5131240000000 1.0
C      1  0.5263430000000  0.4735450000000  0.4868760000000 1.0
C      1  0.5031090000000  0.4747810000000  0.5720010000000 1.0
C      1  0.4968910000000  0.5252190000000  0.4279990000000 1.0
C      1  0.4645570000000  0.5001640000000  0.5546690000000 1.0
C      1  0.5354430000000  0.4998360000000  0.4453310000000 1.0
C      1  0.5741720000000  0.4749700000000  0.5111310000000 1.0
C      1  0.4258280000000  0.5250300000000  0.4888690000000 1.0
C      1  0.4216560000000  0.4971150000000  0.5258690000000 1.0
C      1  0.5783440000000  0.5028850000000  0.4741310000000 1.0
C      1  0.5348970000000  0.4394930000000  0.5593780000000 1.0
C      1  0.4651030000000  0.5605070000000  0.4406220000000 1.0
END
