TITL C-3577089-586-568 3.66702179465728e-07 125000 -1072.95477681984 0 0 173 (C1) n - 1
REM
REM in /home/bkarasulu/work/CARBON/AIRSS/Generating-Clusters/EDIP-Nigel-Params/with-SteepDescent/Higher-Symm/SD-CG/HFTN-CG
REM
REM
REM
REM
REM
REM ./C.cell (12c818d87b63d06a65506943cc24bca4)
REM
REM compiler GCC version 9.2.1 20190827 (Red Hat 9.2.1-1)
REM options -cpp -mtune=generic -march=x86-64 -g -O0 -fpre-include=/usr/include/finclude/math-vector-fortran.h
REM seed 970896365 863951890 -336954023 2062597863 441558362 1818393871 2082734550 -1216595875 -569090848 -1745773509 1287277377 1382898992 -1312930263 763959348 1171068053 -637102592 1463214333 1629784189 2041379333 -1179054636 378518320 -313935330 -1840435360 -1656136225 1376817962 1410992622 -278257332 1566293334 169347548 -709032538 708715947 61526180 1401240524
REM
CELL 1.54180   50.00000   50.00000   50.00000   90.00000   90.00000   90.00000
LATT -1
SFAC C  
C      1  0.4990550000000  0.4200120000000  0.4673210000000 1.0
C      1  0.4997460000000  0.4180940000000  0.5208660000000 1.0
C      1  0.4972450000000  0.4485180000000  0.5645970000000 1.0
C      1  0.5023640000000  0.4961880000000  0.5855090000000 1.0
C      1  0.4985190000000  0.5469560000000  0.5711580000000 1.0
C      1  0.5008830000000  0.5810860000000  0.5299890000000 1.0
C      1  0.4983260000000  0.5855450000000  0.4758650000000 1.0
C      1  0.5026350000000  0.5569000000000  0.4307470000000 1.0
C      1  0.5010170000000  0.5065460000000  0.4126670000000 1.0
C      1  0.5031750000000  0.4540470000000  0.4256160000000 1.0
C      1  0.4446420000000  0.4694640000000  0.5443470000000 1.0
C      1  0.5414630000000  0.4844330000000  0.5355760000000 1.0
C      1  0.4536020000000  0.5184560000000  0.5382640000000 1.0
C      1  0.5438330000000  0.5466110000000  0.5297080000000 1.0
C      1  0.4692800000000  0.5423030000000  0.4971450000000 1.0
C      1  0.5481900000000  0.5458340000000  0.4708400000000 1.0
C      1  0.4582440000000  0.5191540000000  0.4509200000000 1.0
C      1  0.5482900000000  0.4764310000000  0.4590080000000 1.0
C      1  0.4504930000000  0.4554880000000  0.4772790000000 1.0
C      1  0.5289640000000  0.4569180000000  0.4967460000000 1.0
C      1  0.5682510000000  0.4859630000000  0.5219610000000 1.0
C      1  0.4225450000000  0.5119050000000  0.5307370000000 1.0
C      1  0.6023300000000  0.5440960000000  0.5253920000000 1.0
C      1  0.3955340000000  0.5504150000000  0.4982880000000 1.0
C      1  0.5967860000000  0.5328110000000  0.4707430000000 1.0
C      1  0.4033260000000  0.5115010000000  0.4572200000000 1.0
C      1  0.5766020000000  0.4795160000000  0.4680470000000 1.0
C      1  0.4208360000000  0.4639460000000  0.4805840000000 1.0
C      1  0.6113050000000  0.4452230000000  0.5070250000000 1.0
C      1  0.3980610000000  0.4610440000000  0.5342730000000 1.0
C      1  0.4285560000000  0.4185810000000  0.4662210000000 1.0
C      1  0.5679190000000  0.4290810000000  0.5165110000000 1.0
C      1  0.4230410000000  0.4420520000000  0.5711720000000 1.0
C      1  0.5752860000000  0.4972990000000  0.5828240000000 1.0
C      1  0.4256010000000  0.5472030000000  0.5710630000000 1.0
C      1  0.5719800000000  0.5809490000000  0.5269860000000 1.0
C      1  0.4225530000000  0.5836120000000  0.4796550000000 1.0
C      1  0.5728520000000  0.5516930000000  0.4350830000000 1.0
C      1  0.4304810000000  0.5060460000000  0.4196790000000 1.0
C      1  0.5729040000000  0.4499160000000  0.4253460000000 1.0
C      1  0.4698530000000  0.4999440000000  0.5205720000000 1.0
C      1  0.5338330000000  0.5218240000000  0.5116670000000 1.0
C      1  0.4725540000000  0.5139440000000  0.4957410000000 1.0
C      1  0.5504780000000  0.5171820000000  0.4878220000000 1.0
C      1  0.4525960000000  0.5028970000000  0.4783590000000 1.0
C      1  0.5319080000000  0.4980930000000  0.4705110000000 1.0
C      1  0.4661870000000  0.4784230000000  0.4697810000000 1.0
C      1  0.5169890000000  0.4829760000000  0.4928110000000 1.0
C      1  0.4508940000000  0.4757900000000  0.5166530000000 1.0
C      1  0.5196340000000  0.4964450000000  0.5185550000000 1.0
C      1  0.5478320000000  0.4354960000000  0.4211600000000 1.0
C      1  0.4534020000000  0.4040340000000  0.4720850000000 1.0
C      1  0.5490630000000  0.4133770000000  0.5340650000000 1.0
C      1  0.4499520000000  0.4497430000000  0.5835610000000 1.0
C      1  0.5505560000000  0.5024900000000  0.5989250000000 1.0
C      1  0.4509550000000  0.5610100000000  0.5765560000000 1.0
C      1  0.5480160000000  0.5991130000000  0.5228950000000 1.0
C      1  0.4472320000000  0.5911630000000  0.4637600000000 1.0
C      1  0.5503300000000  0.5541780000000  0.4166140000000 1.0
C      1  0.4517080000000  0.4952060000000  0.4007420000000 1.0
C      1  0.4228190000000  0.4251400000000  0.5460880000000 1.0
C      1  0.5796700000000  0.4719860000000  0.5679970000000 1.0
C      1  0.4220310000000  0.5191760000000  0.5796860000000 1.0
C      1  0.5706630000000  0.5654670000000  0.5511060000000 1.0
C      1  0.4213030000000  0.5874570000000  0.5083540000000 1.0
C      1  0.5748320000000  0.5712630000000  0.4569030000000 1.0
C      1  0.4298830000000  0.5346800000000  0.4295430000000 1.0
C      1  0.5740870000000  0.4792350000000  0.4231240000000 1.0
C      1  0.4270200000000  0.4392560000000  0.4438210000000 1.0
C      1  0.5749740000000  0.4201270000000  0.4895620000000 1.0
C      1  0.5421510000000  0.4265070000000  0.5693470000000 1.0
C      1  0.4619260000000  0.4779420000000  0.6072300000000 1.0
C      1  0.5423990000000  0.5397830000000  0.5957500000000 1.0
C      1  0.4566690000000  0.5883920000000  0.5511550000000 1.0
C      1  0.5394860000000  0.6100840000000  0.4867340000000 1.0
C      1  0.4585430000000  0.5771200000000  0.4290670000000 1.0
C      1  0.5465910000000  0.5207930000000  0.3996950000000 1.0
C      1  0.4600180000000  0.4574610000000  0.4013000000000 1.0
C      1  0.5444100000000  0.4091380000000  0.4482960000000 1.0
C      1  0.4565060000000  0.3974190000000  0.5092320000000 1.0
C      1  0.4021360000000  0.4334390000000  0.5271060000000 1.0
C      1  0.5892870000000  0.4728880000000  0.5385020000000 1.0
C      1  0.4128070000000  0.5010700000000  0.5584840000000 1.0
C      1  0.5938430000000  0.5462270000000  0.5531460000000 1.0
C      1  0.4026550000000  0.5677930000000  0.5211620000000 1.0
C      1  0.5894230000000  0.5590750000000  0.4793500000000 1.0
C      1  0.4106210000000  0.5386670000000  0.4517130000000 1.0
C      1  0.5896640000000  0.4928450000000  0.4437800000000 1.0
C      1  0.4120630000000  0.4635810000000  0.4513900000000 1.0
C      1  0.6010740000000  0.4318960000000  0.4832570000000 1.0
C      1  0.5225200000000  0.4004670000000  0.4667080000000 1.0
C      1  0.4766040000000  0.4014240000000  0.5308470000000 1.0
C      1  0.5200340000000  0.4394290000000  0.5832130000000 1.0
C      1  0.4814590000000  0.4999320000000  0.6069250000000 1.0
C      1  0.5224070000000  0.5604040000000  0.5848100000000 1.0
C      1  0.4771120000000  0.5997340000000  0.5326330000000 1.0
C      1  0.5205570000000  0.6035430000000  0.4654220000000 1.0
C      1  0.4786710000000  0.5632960000000  0.4134970000000 1.0
C      1  0.5249840000000  0.5017030000000  0.3944470000000 1.0
C      1  0.4799750000000  0.4393810000000  0.4126270000000 1.0
C      1  0.4449100000000  0.5690730000000  0.5317330000000 1.0
C      1  0.5545050000000  0.5850630000000  0.4871210000000 1.0
C      1  0.4481600000000  0.5616080000000  0.4515700000000 1.0
C      1  0.5551590000000  0.5124330000000  0.4269040000000 1.0
C      1  0.4478220000000  0.4662640000000  0.4263420000000 1.0
C      1  0.5591870000000  0.4289800000000  0.4651190000000 1.0
C      1  0.4413550000000  0.4227060000000  0.5126230000000 1.0
C      1  0.5553770000000  0.4475460000000  0.5537460000000 1.0
C      1  0.4439800000000  0.4881410000000  0.5869510000000 1.0
C      1  0.5546410000000  0.5342860000000  0.5691310000000 1.0
C      1  0.5260000000000  0.5919690000000  0.5426820000000 1.0
C      1  0.4712960000000  0.5985240000000  0.4809740000000 1.0
C      1  0.5279570000000  0.5718490000000  0.4243200000000 1.0
C      1  0.4753100000000  0.5138690000000  0.3981360000000 1.0
C      1  0.5271660000000  0.4515060000000  0.4083980000000 1.0
C      1  0.4753080000000  0.4082980000000  0.4536030000000 1.0
C      1  0.5256820000000  0.4025880000000  0.5182960000000 1.0
C      1  0.4722240000000  0.4338090000000  0.5714280000000 1.0
C      1  0.5277240000000  0.4849960000000  0.5964960000000 1.0
C      1  0.4736360000000  0.5470930000000  0.5879990000000 1.0
C      1  0.4594690000000  0.4870600000000  0.5618690000000 1.0
C      1  0.5349530000000  0.5182420000000  0.5540020000000 1.0
C      1  0.4655210000000  0.5464570000000  0.5275990000000 1.0
C      1  0.5364690000000  0.5636030000000  0.4989820000000 1.0
C      1  0.4702810000000  0.5465970000000  0.4657570000000 1.0
C      1  0.5340100000000  0.5222490000000  0.4471190000000 1.0
C      1  0.4675560000000  0.4850560000000  0.4408670000000 1.0
C      1  0.5370490000000  0.4508300000000  0.4682240000000 1.0
C      1  0.4613960000000  0.4441410000000  0.5021470000000 1.0
C      1  0.5328980000000  0.4538510000000  0.5277670000000 1.0
C      1  0.6118020000000  0.4881620000000  0.4818070000000 1.0
C      1  0.3864050000000  0.4783160000000  0.4902900000000 1.0
C      1  0.6220200000000  0.4730160000000  0.5050570000000 1.0
C      1  0.3846750000000  0.4812520000000  0.5185220000000 1.0
C      1  0.6145960000000  0.4897780000000  0.5291510000000 1.0
C      1  0.3838050000000  0.5091410000000  0.5269340000000 1.0
C      1  0.6088340000000  0.5170590000000  0.5156720000000 1.0
C      1  0.3899280000000  0.5226750000000  0.5029180000000 1.0
C      1  0.6138440000000  0.5163760000000  0.4871970000000 1.0
C      1  0.3893640000000  0.5049270000000  0.4810290000000 1.0
C      1  0.4892910000000  0.4299930000000  0.4954230000000 1.0
C      1  0.5064780000000  0.4423570000000  0.5371340000000 1.0
C      1  0.4898680000000  0.4798540000000  0.5627610000000 1.0
C      1  0.5089890000000  0.5196430000000  0.5681390000000 1.0
C      1  0.4916090000000  0.5552520000000  0.5421130000000 1.0
C      1  0.5086760000000  0.5743350000000  0.5014000000000 1.0
C      1  0.4948450000000  0.5612110000000  0.4587120000000 1.0
C      1  0.5086370000000  0.5278930000000  0.4324730000000 1.0
C      1  0.4948860000000  0.4826820000000  0.4296930000000 1.0
C      1  0.5109970000000  0.4435540000000  0.4532730000000 1.0
C      1  0.5290970000000  0.4579600000000  0.6018230000000 1.0
C      1  0.4697930000000  0.5251630000000  0.6047150000000 1.0
C      1  0.5325720000000  0.5799950000000  0.5673320000000 1.0
C      1  0.4671410000000  0.6064160000000  0.5073720000000 1.0
C      1  0.5325690000000  0.5928560000000  0.4423450000000 1.0
C      1  0.4695940000000  0.5410980000000  0.3992380000000 1.0
C      1  0.5337860000000  0.4750920000000  0.3950200000000 1.0
C      1  0.4695610000000  0.4190730000000  0.4286230000000 1.0
C      1  0.5311450000000  0.3941050000000  0.4923840000000 1.0
C      1  0.4664610000000  0.4123810000000  0.5545030000000 1.0
C      1  0.4107870000000  0.5573270000000  0.4746300000000 1.0
C      1  0.5887090000000  0.5248400000000  0.4429950000000 1.0
C      1  0.4139510000000  0.4912480000000  0.4395500000000 1.0
C      1  0.5826110000000  0.4402000000000  0.4505670000000 1.0
C      1  0.4175030000000  0.4234860000000  0.4936450000000 1.0
C      1  0.5911170000000  0.4439340000000  0.5282850000000 1.0
C      1  0.4163460000000  0.4698790000000  0.5555980000000 1.0
C      1  0.5819540000000  0.5207090000000  0.5655990000000 1.0
C      1  0.4204460000000  0.5532000000000  0.5420340000000 1.0
C      1  0.5871430000000  0.5632520000000  0.5084420000000 1.0
C      1  0.5755140000000  0.4986280000000  0.4944150000000 1.0
C      1  0.4251440000000  0.4907120000000  0.5028510000000 1.0
C      1  0.4947920000000  0.4937060000000  0.5350950000000 1.0
END
