TITL C-3578196-9646-288 -1.2593590564798e-06 125000 -222.608730054555 0 0 37 (C1) n - 1
REM
REM in /home/bkarasulu/work/CARBON/AIRSS/Generating-Clusters/EDIP-Nigel-Params/with-SteepDescent/Higher-Symm/SD-CG/HFTN-CG
REM
REM
REM
REM
REM
REM ./C.cell (12c818d87b63d06a65506943cc24bca4)
REM
REM compiler GCC version 9.2.1 20190827 (Red Hat 9.2.1-1)
REM options -cpp -mtune=generic -march=x86-64 -g -O0 -fpre-include=/usr/include/finclude/math-vector-fortran.h
REM seed 655833717 -1150303764 1009760842 -713837183 97543284 -1980934536 -797142463 530230341 -1257886743 -584440856 -1416795468 1253568939 1683184799 -1897485225 -1827625124 1248867463 -1446968675 543151266 433600015 -1703971645 -14135730 785053943 1641178978 87285276 1537464597 -1721214524 420985874 -34624787 -1975184138 571882721 1618998286 1587168730 -1451133530
REM
CELL 1.54180   50.00000   50.00000   50.00000   90.00000   90.00000   90.00000
LATT -1
SFAC C  
C      1  0.4607670000000  0.5515390000000  0.4693020000000 1.0
C      1  0.4413580000000  0.4835700000000  0.4589580000000 1.0
C      1  0.4984170000000  0.4389990000000  0.4658700000000 1.0
C      1  0.5583770000000  0.4792420000000  0.4660150000000 1.0
C      1  0.5364420000000  0.5463990000000  0.4762720000000 1.0
C      1  0.4952800000000  0.5298280000000  0.4978030000000 1.0
C      1  0.4677310000000  0.5149930000000  0.4983760000000 1.0
C      1  0.4754830000000  0.4852550000000  0.4937870000000 1.0
C      1  0.5249590000000  0.4723830000000  0.4913480000000 1.0
C      1  0.5356870000000  0.5147270000000  0.4942770000000 1.0
C      1  0.5166510000000  0.5229470000000  0.5656440000000 1.0
C      1  0.4861170000000  0.5229520000000  0.5672000000000 1.0
C      1  0.4766210000000  0.4939400000000  0.5660720000000 1.0
C      1  0.5013370000000  0.4761890000000  0.5633360000000 1.0
C      1  0.5261830000000  0.4939640000000  0.5643090000000 1.0
C      1  0.4865850000000  0.5596480000000  0.4744600000000 1.0
C      1  0.4380520000000  0.5100690000000  0.4603330000000 1.0
C      1  0.4730260000000  0.4476730000000  0.4642810000000 1.0
C      1  0.5455190000000  0.4549940000000  0.4625470000000 1.0
C      1  0.5577400000000  0.5296900000000  0.4660810000000 1.0
C      1  0.5244150000000  0.5359970000000  0.5392700000000 1.0
C      1  0.4756600000000  0.5367620000000  0.5421680000000 1.0
C      1  0.4603010000000  0.4908140000000  0.5405570000000 1.0
C      1  0.5004800000000  0.4638210000000  0.5356770000000 1.0
C      1  0.5408730000000  0.4904150000000  0.5378180000000 1.0
C      1  0.5417930000000  0.5169810000000  0.5237090000000 1.0
C      1  0.4992240000000  0.5434220000000  0.5246180000000 1.0
C      1  0.4577180000000  0.5176390000000  0.5270500000000 1.0
C      1  0.4753290000000  0.4728860000000  0.5217900000000 1.0
C      1  0.5263350000000  0.4693970000000  0.5216880000000 1.0
C      1  0.5604860000000  0.5037250000000  0.4790790000000 1.0
C      1  0.5083910000000  0.5413350000000  0.4720320000000 1.0
C      1  0.4501370000000  0.5274740000000  0.4779830000000 1.0
C      1  0.4588380000000  0.4691330000000  0.4747690000000 1.0
C      1  0.5230320000000  0.4448510000000  0.4775610000000 1.0
C      1  0.5024730000000  0.4892260000000  0.4819710000000 1.0
C      1  0.5031090000000  0.4957650000000  0.4561510000000 1.0
END
