TITL C-3577091-527-350 1.34581979429573e-06 125000 -1222.30782965512 0 0 200 (C1) n - 1
REM
REM in /home/bkarasulu/work/CARBON/AIRSS/Generating-Clusters/EDIP-Nigel-Params/with-SteepDescent/Higher-Symm/SD-CG/HFTN-CG
REM
REM
REM
REM
REM
REM ./C.cell (12c818d87b63d06a65506943cc24bca4)
REM
REM compiler GCC version 9.2.1 20190827 (Red Hat 9.2.1-1)
REM options -cpp -mtune=generic -march=x86-64 -g -O0 -fpre-include=/usr/include/finclude/math-vector-fortran.h
REM seed -2091080393 -2140940875 -824787844 2130831609 -1966594427 1458216708 1239374166 -376760575 1790314431 637954496 -593156459 1318630014 -736008469 -1115903153 -1947954184 -1302281959 -796469773 -1035292367 135075329 546360935 2123983095 -543519292 -183826021 1180803064 1759200215 384151037 -692985178 -438876042 -1449537284 518308932 970195197 2016498432 707479440
REM
CELL 1.54180   50.00000   50.00000   50.00000   90.00000   90.00000   90.00000
LATT -1
SFAC C  
C      1  0.5345730000000  0.5403860000000  0.6034860000000 1.0
C      1  0.5963790000000  0.5384420000000  0.5794680000000 1.0
C      1  0.6145190000000  0.5369140000000  0.5080510000000 1.0
C      1  0.5959130000000  0.5320330000000  0.4431550000000 1.0
C      1  0.5681020000000  0.5308760000000  0.4005090000000 1.0
C      1  0.5045250000000  0.5376240000000  0.3923510000000 1.0
C      1  0.4436950000000  0.5432360000000  0.4033040000000 1.0
C      1  0.3852230000000  0.5350660000000  0.4538780000000 1.0
C      1  0.3788360000000  0.5333990000000  0.5194510000000 1.0
C      1  0.4077460000000  0.5321030000000  0.5757610000000 1.0
C      1  0.4640870000000  0.5399540000000  0.5962940000000 1.0
C      1  0.5017930000000  0.4410730000000  0.5530810000000 1.0
C      1  0.5307580000000  0.4544470000000  0.5444890000000 1.0
C      1  0.5495320000000  0.4405150000000  0.5260510000000 1.0
C      1  0.5542760000000  0.4491480000000  0.4946030000000 1.0
C      1  0.5459630000000  0.4367270000000  0.4675260000000 1.0
C      1  0.5153290000000  0.4395810000000  0.4531480000000 1.0
C      1  0.4800560000000  0.4504050000000  0.4517090000000 1.0
C      1  0.4527380000000  0.4411450000000  0.4620260000000 1.0
C      1  0.4440320000000  0.4521020000000  0.4907690000000 1.0
C      1  0.4505180000000  0.4383340000000  0.5177840000000 1.0
C      1  0.4730640000000  0.4489170000000  0.5415340000000 1.0
C      1  0.5248310000000  0.4070600000000  0.5776430000000 1.0
C      1  0.5657140000000  0.4087540000000  0.5545990000000 1.0
C      1  0.5877890000000  0.4111170000000  0.5119960000000 1.0
C      1  0.5774230000000  0.4054940000000  0.4634610000000 1.0
C      1  0.5439860000000  0.4058670000000  0.4278190000000 1.0
C      1  0.4977360000000  0.4132410000000  0.4143970000000 1.0
C      1  0.4524490000000  0.4078180000000  0.4282310000000 1.0
C      1  0.4253660000000  0.4067580000000  0.4652080000000 1.0
C      1  0.4178770000000  0.4033490000000  0.5100230000000 1.0
C      1  0.4387090000000  0.4081880000000  0.5537210000000 1.0
C      1  0.4790090000000  0.4041510000000  0.5795910000000 1.0
C      1  0.5895180000000  0.4221200000000  0.5419940000000 1.0
C      1  0.5966610000000  0.4200630000000  0.4815640000000 1.0
C      1  0.5710100000000  0.4176150000000  0.4364170000000 1.0
C      1  0.5272100000000  0.4226880000000  0.4092120000000 1.0
C      1  0.4679380000000  0.4214610000000  0.4071690000000 1.0
C      1  0.4280000000000  0.4213070000000  0.4387880000000 1.0
C      1  0.4078110000000  0.4185590000000  0.4858790000000 1.0
C      1  0.4129840000000  0.4155170000000  0.5368310000000 1.0
C      1  0.4520980000000  0.4168170000000  0.5814710000000 1.0
C      1  0.5016660000000  0.4191510000000  0.5928810000000 1.0
C      1  0.5508010000000  0.4223030000000  0.5775590000000 1.0
C      1  0.6140780000000  0.5104660000000  0.4537830000000 1.0
C      1  0.5757530000000  0.5021670000000  0.4012540000000 1.0
C      1  0.5148590000000  0.5108370000000  0.3809050000000 1.0
C      1  0.4450070000000  0.5149630000000  0.3924920000000 1.0
C      1  0.3882410000000  0.5098950000000  0.4402290000000 1.0
C      1  0.3735140000000  0.5076160000000  0.5094120000000 1.0
C      1  0.3983020000000  0.5041800000000  0.5751730000000 1.0
C      1  0.4553140000000  0.5128450000000  0.6083850000000 1.0
C      1  0.5274190000000  0.5149660000000  0.6145470000000 1.0
C      1  0.5898800000000  0.5116290000000  0.5854180000000 1.0
C      1  0.6251710000000  0.5115130000000  0.5215140000000 1.0
C      1  0.4281410000000  0.5022560000000  0.4596670000000 1.0
C      1  0.4169550000000  0.4902100000000  0.5021540000000 1.0
C      1  0.4272120000000  0.4839680000000  0.5444370000000 1.0
C      1  0.4664350000000  0.4839390000000  0.5730200000000 1.0
C      1  0.5099660000000  0.4900490000000  0.5786620000000 1.0
C      1  0.5575500000000  0.4916430000000  0.5570950000000 1.0
C      1  0.5786170000000  0.5005020000000  0.5192230000000 1.0
C      1  0.5786400000000  0.4840660000000  0.4743640000000 1.0
C      1  0.5462610000000  0.4873260000000  0.4453720000000 1.0
C      1  0.5083180000000  0.4959470000000  0.4251990000000 1.0
C      1  0.4648000000000  0.4876900000000  0.4256890000000 1.0
C      1  0.5291650000000  0.5786390000000  0.5865270000000 1.0
C      1  0.5636270000000  0.5790950000000  0.5497820000000 1.0
C      1  0.5886860000000  0.5655070000000  0.5084740000000 1.0
C      1  0.5811080000000  0.5535850000000  0.4569140000000 1.0
C      1  0.5505440000000  0.5638530000000  0.4098290000000 1.0
C      1  0.5000600000000  0.5763620000000  0.4194690000000 1.0
C      1  0.4518200000000  0.5769270000000  0.4250580000000 1.0
C      1  0.4304420000000  0.5740820000000  0.4678420000000 1.0
C      1  0.4235210000000  0.5716930000000  0.5149970000000 1.0
C      1  0.4275530000000  0.5642090000000  0.5683030000000 1.0
C      1  0.4803380000000  0.5805510000000  0.5747740000000 1.0
C      1  0.4789340000000  0.4944900000000  0.6139500000000 1.0
C      1  0.5462320000000  0.4945040000000  0.6039020000000 1.0
C      1  0.6010420000000  0.4915250000000  0.5655920000000 1.0
C      1  0.6209050000000  0.4884950000000  0.5019350000000 1.0
C      1  0.6043970000000  0.4838960000000  0.4382690000000 1.0
C      1  0.5526530000000  0.4828520000000  0.4000870000000 1.0
C      1  0.4921600000000  0.4900160000000  0.3828500000000 1.0
C      1  0.4255590000000  0.4955360000000  0.4074400000000 1.0
C      1  0.3867520000000  0.4888080000000  0.4621860000000 1.0
C      1  0.3815710000000  0.4857050000000  0.5285180000000 1.0
C      1  0.4185180000000  0.4850620000000  0.5876560000000 1.0
C      1  0.4889320000000  0.5903630000000  0.5470210000000 1.0
C      1  0.5157650000000  0.5815750000000  0.5394310000000 1.0
C      1  0.5419810000000  0.5919360000000  0.5318150000000 1.0
C      1  0.5490710000000  0.5834450000000  0.5047390000000 1.0
C      1  0.5455280000000  0.5958720000000  0.4797170000000 1.0
C      1  0.5357670000000  0.5812160000000  0.4565060000000 1.0
C      1  0.5079730000000  0.5901700000000  0.4462720000000 1.0
C      1  0.4839840000000  0.5863120000000  0.4701810000000 1.0
C      1  0.4536080000000  0.5878630000000  0.4811270000000 1.0
C      1  0.4482960000000  0.5899950000000  0.5115320000000 1.0
C      1  0.4703160000000  0.5807040000000  0.5273760000000 1.0
C      1  0.6022910000000  0.5014510000000  0.4800200000000 1.0
C      1  0.5789240000000  0.5006050000000  0.4309020000000 1.0
C      1  0.5309640000000  0.5037060000000  0.4056660000000 1.0
C      1  0.4716560000000  0.5041870000000  0.4017180000000 1.0
C      1  0.4176580000000  0.5123560000000  0.4319780000000 1.0
C      1  0.3944430000000  0.5044320000000  0.4881310000000 1.0
C      1  0.4025670000000  0.5004450000000  0.5451350000000 1.0
C      1  0.4439890000000  0.5016240000000  0.5833890000000 1.0
C      1  0.5018080000000  0.5095120000000  0.6001160000000 1.0
C      1  0.5602720000000  0.5090960000000  0.5811430000000 1.0
C      1  0.6009960000000  0.5109620000000  0.5415280000000 1.0
C      1  0.4522560000000  0.3995860000000  0.4756700000000 1.0
C      1  0.4481030000000  0.4009170000000  0.5065890000000 1.0
C      1  0.4602400000000  0.3991360000000  0.5351050000000 1.0
C      1  0.4852960000000  0.4003920000000  0.5506760000000 1.0
C      1  0.5155730000000  0.4051050000000  0.5485440000000 1.0
C      1  0.5459290000000  0.4104160000000  0.5313500000000 1.0
C      1  0.5605350000000  0.3979380000000  0.5080740000000 1.0
C      1  0.5525330000000  0.4006220000000  0.4794250000000 1.0
C      1  0.5250070000000  0.4023840000000  0.4517310000000 1.0
C      1  0.4972330000000  0.4012920000000  0.4413550000000 1.0
C      1  0.4697500000000  0.4021390000000  0.4514610000000 1.0
C      1  0.4884820000000  0.5250430000000  0.4135450000000 1.0
C      1  0.4252880000000  0.5411740000000  0.4262980000000 1.0
C      1  0.4057950000000  0.5307220000000  0.4746030000000 1.0
C      1  0.4052110000000  0.5296040000000  0.5314470000000 1.0
C      1  0.4365420000000  0.5258170000000  0.5651940000000 1.0
C      1  0.4927540000000  0.5382070000000  0.5888580000000 1.0
C      1  0.5464080000000  0.5379130000000  0.5764140000000 1.0
C      1  0.5964040000000  0.5393120000000  0.5514710000000 1.0
C      1  0.5903440000000  0.5230230000000  0.4963760000000 1.0
C      1  0.5486240000000  0.5254520000000  0.4498460000000 1.0
C      1  0.5438500000000  0.5274650000000  0.4186310000000 1.0
C      1  0.5014280000000  0.5352460000000  0.4680490000000 1.0
C      1  0.4765960000000  0.5385780000000  0.4781950000000 1.0
C      1  0.4523210000000  0.5354070000000  0.4901550000000 1.0
C      1  0.4355050000000  0.5291280000000  0.5122290000000 1.0
C      1  0.4511770000000  0.5210340000000  0.5361380000000 1.0
C      1  0.4801800000000  0.5295510000000  0.5363350000000 1.0
C      1  0.4979620000000  0.5354230000000  0.5593870000000 1.0
C      1  0.5263920000000  0.5337720000000  0.5536080000000 1.0
C      1  0.5346980000000  0.5339900000000  0.5264980000000 1.0
C      1  0.5374330000000  0.5341070000000  0.4991630000000 1.0
C      1  0.5288920000000  0.5324280000000  0.4722900000000 1.0
C      1  0.5006560000000  0.4679820000000  0.4082980000000 1.0
C      1  0.4417950000000  0.4714980000000  0.4183510000000 1.0
C      1  0.4101260000000  0.4680000000000  0.4606540000000 1.0
C      1  0.4025040000000  0.4639910000000  0.5135570000000 1.0
C      1  0.4259370000000  0.4623740000000  0.5658310000000 1.0
C      1  0.4764180000000  0.4657400000000  0.5937650000000 1.0
C      1  0.5303650000000  0.4702050000000  0.5921420000000 1.0
C      1  0.5783490000000  0.4703030000000  0.5618340000000 1.0
C      1  0.5967820000000  0.4719650000000  0.5130190000000 1.0
C      1  0.5889770000000  0.4645040000000  0.4554850000000 1.0
C      1  0.5495220000000  0.4644710000000  0.4248330000000 1.0
C      1  0.5040620000000  0.4930710000000  0.4556600000000 1.0
C      1  0.4763280000000  0.4814700000000  0.4532110000000 1.0
C      1  0.4554140000000  0.4956590000000  0.4709980000000 1.0
C      1  0.4459360000000  0.4821610000000  0.4957810000000 1.0
C      1  0.4517610000000  0.4916570000000  0.5299160000000 1.0
C      1  0.4749090000000  0.4790800000000  0.5446570000000 1.0
C      1  0.5076430000000  0.4942880000000  0.5467340000000 1.0
C      1  0.5349120000000  0.4837490000000  0.5387940000000 1.0
C      1  0.5486560000000  0.4940700000000  0.5136190000000 1.0
C      1  0.5511750000000  0.4780820000000  0.4884980000000 1.0
C      1  0.5276720000000  0.4789190000000  0.4677470000000 1.0
C      1  0.5811610000000  0.5595870000000  0.5361080000000 1.0
C      1  0.5770560000000  0.5486360000000  0.4862030000000 1.0
C      1  0.5552680000000  0.5634680000000  0.4415880000000 1.0
C      1  0.5199820000000  0.5613810000000  0.4040790000000 1.0
C      1  0.4735650000000  0.5660960000000  0.4120010000000 1.0
C      1  0.4371660000000  0.5614770000000  0.4430320000000 1.0
C      1  0.4150710000000  0.5593980000000  0.4878190000000 1.0
C      1  0.4167740000000  0.5574800000000  0.5403100000000 1.0
C      1  0.4563260000000  0.5622750000000  0.5774420000000 1.0
C      1  0.5026470000000  0.5690960000000  0.5919440000000 1.0
C      1  0.5539070000000  0.5686480000000  0.5757130000000 1.0
C      1  0.5779530000000  0.4491070000000  0.5382000000000 1.0
C      1  0.5848410000000  0.4461540000000  0.4951550000000 1.0
C      1  0.5666510000000  0.4467580000000  0.4444570000000 1.0
C      1  0.5233850000000  0.4488510000000  0.4233330000000 1.0
C      1  0.4789780000000  0.4471240000000  0.4204410000000 1.0
C      1  0.4301200000000  0.4540480000000  0.4409410000000 1.0
C      1  0.4132900000000  0.4488860000000  0.4865910000000 1.0
C      1  0.4229220000000  0.4429060000000  0.5319330000000 1.0
C      1  0.4517640000000  0.4432440000000  0.5651410000000 1.0
C      1  0.4999340000000  0.4477310000000  0.5837540000000 1.0
C      1  0.5455670000000  0.4519050000000  0.5714720000000 1.0
C      1  0.4681610000000  0.6300900000000  0.5299000000000 1.0
C      1  0.4887780000000  0.6200010000000  0.5456610000000 1.0
C      1  0.5145840000000  0.6300800000000  0.5434370000000 1.0
C      1  0.5386640000000  0.6222930000000  0.5317260000000 1.0
C      1  0.5424950000000  0.6342620000000  0.5067070000000 1.0
C      1  0.5369100000000  0.6230300000000  0.4818080000000 1.0
C      1  0.5269540000000  0.6362050000000  0.4589780000000 1.0
C      1  0.5038750000000  0.6216510000000  0.4521090000000 1.0
C      1  0.4865780000000  0.6158070000000  0.4754930000000 1.0
C      1  0.4601920000000  0.6259560000000  0.4830660000000 1.0
C      1  0.4502830000000  0.6207380000000  0.5103570000000 1.0
C      1  0.4867000000000  0.4976530000000  0.5017580000000 1.0
C      1  0.4971840000000  0.5107010000000  0.5224060000000 1.0
END
