TITL C-3578205-846-449 -2.50473873217459e-06 125000 -1199.07126753867 0 0 194 (C1) n - 1
REM
REM in /home/bkarasulu/work/CARBON/AIRSS/Generating-Clusters/EDIP-Nigel-Params/with-SteepDescent/Higher-Symm/SD-CG/HFTN-CG
REM
REM
REM
REM
REM
REM ./C.cell (12c818d87b63d06a65506943cc24bca4)
REM
REM compiler GCC version 9.2.1 20190827 (Red Hat 9.2.1-1)
REM options -cpp -mtune=generic -march=x86-64 -g -O0 -fpre-include=/usr/include/finclude/math-vector-fortran.h
REM seed 121567757 686772184 -1718099720 922004280 2087391125 -1499940532 -1751811544 1080985104 -271210176 -958593067 -1638939581 1729234243 -504515932 -1536122377 1089630399 450664598 436809875 -136399763 707775448 1322530712 -1830621015 -1759977472 1336602226 -751675391 1763402134 -880370880 1454772615 -1668152364 252606218 -1706249858 -657916017 -856108952 -1416445498
REM
CELL 1.54180   50.00000   50.00000   50.00000   90.00000   90.00000   90.00000
LATT -1
SFAC C  
C      1  0.5636310000000  0.4032830000000  0.4783980000000 1.0
C      1  0.4383410000000  0.4224460000000  0.5494350000000 1.0
C      1  0.5576430000000  0.4748200000000  0.5871130000000 1.0
C      1  0.4367570000000  0.5557220000000  0.5851740000000 1.0
C      1  0.5667590000000  0.5957200000000  0.5179390000000 1.0
C      1  0.4355020000000  0.5793540000000  0.4497520000000 1.0
C      1  0.5613650000000  0.5191360000000  0.4104740000000 1.0
C      1  0.4346730000000  0.4480190000000  0.4169260000000 1.0
C      1  0.4786770000000  0.6259650000000  0.4922290000000 1.0
C      1  0.5199220000000  0.5804310000000  0.4047390000000 1.0
C      1  0.4803780000000  0.4900070000000  0.3739510000000 1.0
C      1  0.5184530000000  0.4020520000000  0.4138400000000 1.0
C      1  0.4766540000000  0.3804220000000  0.5117300000000 1.0
C      1  0.5174550000000  0.4193210000000  0.5982170000000 1.0
C      1  0.4724960000000  0.5118950000000  0.6272240000000 1.0
C      1  0.5218510000000  0.5951590000000  0.5830020000000 1.0
C      1  0.4667180000000  0.5601620000000  0.5802190000000 1.0
C      1  0.5352140000000  0.6033260000000  0.5174070000000 1.0
C      1  0.4663050000000  0.5836240000000  0.4421830000000 1.0
C      1  0.5344800000000  0.5141000000000  0.3962030000000 1.0
C      1  0.4659120000000  0.4398320000000  0.4142950000000 1.0
C      1  0.5332740000000  0.3992440000000  0.4826190000000 1.0
C      1  0.4665570000000  0.4189820000000  0.5620650000000 1.0
C      1  0.5277430000000  0.4831540000000  0.6108800000000 1.0
C      1  0.4741790000000  0.4764450000000  0.4249420000000 1.0
C      1  0.5226790000000  0.4326240000000  0.4558410000000 1.0
C      1  0.4825280000000  0.4277010000000  0.5152060000000 1.0
C      1  0.5274290000000  0.4707700000000  0.5746640000000 1.0
C      1  0.4788710000000  0.5157180000000  0.5805900000000 1.0
C      1  0.5281320000000  0.5698720000000  0.5366680000000 1.0
C      1  0.4742460000000  0.5746700000000  0.4796110000000 1.0
C      1  0.5195250000000  0.5440440000000  0.4381500000000 1.0
C      1  0.5559650000000  0.5869050000000  0.4376390000000 1.0
C      1  0.4459140000000  0.5182350000000  0.3987650000000 1.0
C      1  0.5566410000000  0.4350210000000  0.4110000000000 1.0
C      1  0.4431380000000  0.3959830000000  0.4743770000000 1.0
C      1  0.5566020000000  0.4116450000000  0.5649790000000 1.0
C      1  0.4382030000000  0.4754260000000  0.6082840000000 1.0
C      1  0.5546060000000  0.5533280000000  0.5893890000000 1.0
C      1  0.4450200000000  0.6014040000000  0.5194920000000 1.0
C      1  0.4501520000000  0.5438230000000  0.4186110000000 1.0
C      1  0.5537810000000  0.4713280000000  0.4079510000000 1.0
C      1  0.4483060000000  0.4192050000000  0.4547680000000 1.0
C      1  0.5520690000000  0.4105790000000  0.5263670000000 1.0
C      1  0.4453670000000  0.4586370000000  0.5822980000000 1.0
C      1  0.5476480000000  0.5243230000000  0.5962900000000 1.0
C      1  0.4479220000000  0.5847960000000  0.5465940000000 1.0
C      1  0.5504220000000  0.5890860000000  0.4724580000000 1.0
C      1  0.4325930000000  0.4259590000000  0.5204380000000 1.0
C      1  0.5757720000000  0.4590610000000  0.5685290000000 1.0
C      1  0.4291100000000  0.5264470000000  0.5841480000000 1.0
C      1  0.5768830000000  0.5727370000000  0.5342660000000 1.0
C      1  0.4248840000000  0.5763770000000  0.4778840000000 1.0
C      1  0.5686980000000  0.5356000000000  0.4339530000000 1.0
C      1  0.4251870000000  0.4766010000000  0.4202590000000 1.0
C      1  0.5728060000000  0.4248550000000  0.4599170000000 1.0
C      1  0.4891340000000  0.6000970000000  0.5198830000000 1.0
C      1  0.5122730000000  0.5898360000000  0.4416430000000 1.0
C      1  0.4887330000000  0.5162430000000  0.4016270000000 1.0
C      1  0.5131770000000  0.4408030000000  0.4134890000000 1.0
C      1  0.4879130000000  0.3978330000000  0.4791890000000 1.0
C      1  0.5152360000000  0.4193610000000  0.5596290000000 1.0
C      1  0.4816270000000  0.4805260000000  0.6067570000000 1.0
C      1  0.5119440000000  0.5576440000000  0.5840960000000 1.0
C      1  0.5506640000000  0.4342490000000  0.4423170000000 1.0
C      1  0.4553320000000  0.4203250000000  0.5012870000000 1.0
C      1  0.5554220000000  0.4401240000000  0.5595780000000 1.0
C      1  0.4504030000000  0.5045400000000  0.5876090000000 1.0
C      1  0.5546150000000  0.5648120000000  0.5516670000000 1.0
C      1  0.4481540000000  0.5796190000000  0.4969360000000 1.0
C      1  0.5476990000000  0.5564570000000  0.4419450000000 1.0
C      1  0.4490390000000  0.4940310000000  0.4186870000000 1.0
C      1  0.5312390000000  0.5325270000000  0.5053320000000 1.0
C      1  0.4616870000000  0.5311540000000  0.4865070000000 1.0
C      1  0.5300060000000  0.5046980000000  0.4622220000000 1.0
C      1  0.4740110000000  0.4813760000000  0.4742340000000 1.0
C      1  0.5401260000000  0.4632260000000  0.4859490000000 1.0
C      1  0.4735270000000  0.4739270000000  0.5248660000000 1.0
C      1  0.5297070000000  0.4853680000000  0.5273340000000 1.0
C      1  0.4547110000000  0.5213310000000  0.5439450000000 1.0
C      1  0.5891970000000  0.4796730000000  0.5471440000000 1.0
C      1  0.4250540000000  0.5225700000000  0.5547980000000 1.0
C      1  0.5893170000000  0.5494550000000  0.5169960000000 1.0
C      1  0.4076600000000  0.5510330000000  0.4805870000000 1.0
C      1  0.5912770000000  0.5194980000000  0.4497650000000 1.0
C      1  0.4090890000000  0.4827880000000  0.4465950000000 1.0
C      1  0.5884190000000  0.4464890000000  0.4739230000000 1.0
C      1  0.4125690000000  0.4489190000000  0.5153020000000 1.0
C      1  0.5651710000000  0.5033830000000  0.5839990000000 1.0
C      1  0.4246260000000  0.5698610000000  0.5609880000000 1.0
C      1  0.5752330000000  0.5899760000000  0.4901020000000 1.0
C      1  0.4268700000000  0.5554730000000  0.4347740000000 1.0
C      1  0.5753250000000  0.4932130000000  0.4108260000000 1.0
C      1  0.4249440000000  0.4338970000000  0.4408750000000 1.0
C      1  0.5749630000000  0.4093040000000  0.5051900000000 1.0
C      1  0.4238700000000  0.4434710000000  0.5647040000000 1.0
C      1  0.5712160000000  0.5432670000000  0.4772300000000 1.0
C      1  0.4264450000000  0.5113590000000  0.4582050000000 1.0
C      1  0.5727540000000  0.4773390000000  0.4566030000000 1.0
C      1  0.4306510000000  0.4563600000000  0.4821730000000 1.0
C      1  0.5764950000000  0.4544040000000  0.5199890000000 1.0
C      1  0.4296640000000  0.4845870000000  0.5414020000000 1.0
C      1  0.5750110000000  0.5212100000000  0.5407950000000 1.0
C      1  0.4217080000000  0.5451610000000  0.5164600000000 1.0
C      1  0.4724440000000  0.4187960000000  0.4352260000000 1.0
C      1  0.5260450000000  0.4011400000000  0.5123830000000 1.0
C      1  0.4718900000000  0.4403240000000  0.5827480000000 1.0
C      1  0.5227320000000  0.5129000000000  0.6089190000000 1.0
C      1  0.4727000000000  0.5870420000000  0.5663190000000 1.0
C      1  0.5268340000000  0.6028900000000  0.4879900000000 1.0
C      1  0.4748780000000  0.5618070000000  0.4219200000000 1.0
C      1  0.5284720000000  0.4843920000000  0.3942300000000 1.0
C      1  0.3950330000000  0.4778800000000  0.4962250000000 1.0
C      1  0.6027480000000  0.4902440000000  0.5188390000000 1.0
C      1  0.3962680000000  0.5046560000000  0.5096170000000 1.0
C      1  0.6029990000000  0.5200800000000  0.5082930000000 1.0
C      1  0.3883650000000  0.5170230000000  0.4839380000000 1.0
C      1  0.6011880000000  0.5107350000000  0.4793740000000 1.0
C      1  0.3884960000000  0.4903510000000  0.4686370000000 1.0
C      1  0.6019230000000  0.4810720000000  0.4883350000000 1.0
C      1  0.5525400000000  0.4409090000000  0.5314710000000 1.0
C      1  0.4476380000000  0.4833090000000  0.5658750000000 1.0
C      1  0.5533860000000  0.5350200000000  0.5546120000000 1.0
C      1  0.4493890000000  0.5576310000000  0.5197250000000 1.0
C      1  0.5451100000000  0.5585570000000  0.4722610000000 1.0
C      1  0.4520810000000  0.5133020000000  0.4420250000000 1.0
C      1  0.5509890000000  0.4644780000000  0.4388050000000 1.0
C      1  0.4544430000000  0.4387890000000  0.4765070000000 1.0
C      1  0.5012120000000  0.4061320000000  0.4376940000000 1.0
C      1  0.4956780000000  0.4012880000000  0.5229260000000 1.0
C      1  0.5001470000000  0.4425540000000  0.5937430000000 1.0
C      1  0.4924840000000  0.5236470000000  0.6072070000000 1.0
C      1  0.5019510000000  0.5940570000000  0.5617880000000 1.0
C      1  0.4987300000000  0.6105020000000  0.4783700000000 1.0
C      1  0.5050620000000  0.5559660000000  0.4136840000000 1.0
C      1  0.4999410000000  0.4755580000000  0.3896150000000 1.0
C      1  0.4381180000000  0.5113330000000  0.4866140000000 1.0
C      1  0.5583610000000  0.5041680000000  0.4704020000000 1.0
C      1  0.4462840000000  0.4826260000000  0.4881380000000 1.0
C      1  0.5659500000000  0.4735030000000  0.5002110000000 1.0
C      1  0.4465940000000  0.4771240000000  0.5176030000000 1.0
C      1  0.5586780000000  0.4957520000000  0.5194560000000 1.0
C      1  0.4234210000000  0.5148950000000  0.5135330000000 1.0
C      1  0.5594680000000  0.5217360000000  0.4995460000000 1.0
C      1  0.4657560000000  0.3811050000000  0.4841460000000 1.0
C      1  0.5385500000000  0.4037420000000  0.5858900000000 1.0
C      1  0.4603480000000  0.4844430000000  0.6253720000000 1.0
C      1  0.5347440000000  0.5736180000000  0.5983750000000 1.0
C      1  0.4670480000000  0.6202160000000  0.5179370000000 1.0
C      1  0.5329650000000  0.5982020000000  0.4239110000000 1.0
C      1  0.4662360000000  0.5153870000000  0.3774820000000 1.0
C      1  0.5326410000000  0.4229980000000  0.3994790000000 1.0
C      1  0.5854470000000  0.5054420000000  0.5625760000000 1.0
C      1  0.4115970000000  0.5483780000000  0.5445300000000 1.0
C      1  0.5889660000000  0.5632890000000  0.4900410000000 1.0
C      1  0.4126930000000  0.5375330000000  0.4538680000000 1.0
C      1  0.5902770000000  0.4918300000000  0.4365660000000 1.0
C      1  0.4143180000000  0.4556280000000  0.4582040000000 1.0
C      1  0.5899860000000  0.4352580000000  0.5023140000000 1.0
C      1  0.4109580000000  0.4613100000000  0.5435890000000 1.0
C      1  0.4739060000000  0.5443340000000  0.5543810000000 1.0
C      1  0.5254270000000  0.5622140000000  0.5058950000000 1.0
C      1  0.4737040000000  0.5461730000000  0.4628760000000 1.0
C      1  0.5243780000000  0.5139290000000  0.4337510000000 1.0
C      1  0.4772440000000  0.4594750000000  0.4522800000000 1.0
C      1  0.5254980000000  0.4368700000000  0.4877680000000 1.0
C      1  0.4811050000000  0.4475670000000  0.5401830000000 1.0
C      1  0.5219130000000  0.4967910000000  0.5560190000000 1.0
C      1  0.4910910000000  0.4482120000000  0.3965030000000 1.0
C      1  0.5102000000000  0.3912630000000  0.4633410000000 1.0
C      1  0.4917030000000  0.4032660000000  0.5524080000000 1.0
C      1  0.5042450000000  0.4651510000000  0.6113850000000 1.0
C      1  0.4881180000000  0.5532530000000  0.6016640000000 1.0
C      1  0.5102990000000  0.6091810000000  0.5375660000000 1.0
C      1  0.4897890000000  0.6033740000000  0.4509530000000 1.0
C      1  0.5106120000000  0.5337800000000  0.3937770000000 1.0
C      1  0.4901730000000  0.4728320000000  0.4989940000000 1.0
C      1  0.5275040000000  0.4553260000000  0.5276910000000 1.0
C      1  0.4779450000000  0.5008510000000  0.5383840000000 1.0
C      1  0.5272360000000  0.5263240000000  0.5447620000000 1.0
C      1  0.4765910000000  0.5405070000000  0.5102660000000 1.0
C      1  0.5141000000000  0.5226840000000  0.4807280000000 1.0
C      1  0.4806420000000  0.5081550000000  0.4549760000000 1.0
C      1  0.5217550000000  0.4775990000000  0.4678140000000 1.0
C      1  0.4982470000000  0.4439720000000  0.4964720000000 1.0
C      1  0.5105800000000  0.4485320000000  0.5510930000000 1.0
C      1  0.4932960000000  0.4965430000000  0.5625640000000 1.0
C      1  0.5078060000000  0.5494680000000  0.5534220000000 1.0
C      1  0.4944050000000  0.5660430000000  0.5025220000000 1.0
C      1  0.5038710000000  0.5446050000000  0.4638240000000 1.0
C      1  0.4965090000000  0.5004990000000  0.4280980000000 1.0
C      1  0.5083830000000  0.4586450000000  0.4481010000000 1.0
C      1  0.4930000000000  0.5161830000000  0.5194880000000 1.0
C      1  0.5095750000000  0.4943800000000  0.5067490000000 1.0
END
