TITL C-3577077-324-281 -1.34261167388507e-06 125000 -774.963559510721 0 0 125 (C1) n - 1
REM
REM in /home/bkarasulu/work/CARBON/AIRSS/Generating-Clusters/EDIP-Nigel-Params/with-SteepDescent/Higher-Symm/SD-CG/HFTN-CG
REM
REM
REM
REM
REM
REM ./C.cell (12c818d87b63d06a65506943cc24bca4)
REM
REM compiler GCC version 9.2.1 20190827 (Red Hat 9.2.1-1)
REM options -cpp -mtune=generic -march=x86-64 -g -O0 -fpre-include=/usr/include/finclude/math-vector-fortran.h
REM seed 446116051 -1385718838 25012449 -2084440616 525059063 93079293 -698895872 1500303137 534886279 757065593 1378726210 -1627145217 -601297556 -91327170 281144371 -1921533848 -1007068919 1668398873 -970324487 571395314 -592261478 -305496339 1342874288 -522929268 1093247726 2026913296 -1010163991 -557370764 -1679548395 -2112824138 753120964 -574845902 244124244
REM
CELL 1.54180   50.00000   50.00000   50.00000   90.00000   90.00000   90.00000
LATT -1
SFAC C  
C      1  0.4779520000000  0.5289020000000  0.5772700000000 1.0
C      1  0.4348300000000  0.5256160000000  0.5599320000000 1.0
C      1  0.4104910000000  0.5264040000000  0.5175700000000 1.0
C      1  0.4157230000000  0.5278480000000  0.4712390000000 1.0
C      1  0.4469640000000  0.5315350000000  0.4290660000000 1.0
C      1  0.4901130000000  0.5357310000000  0.4081810000000 1.0
C      1  0.5413790000000  0.5319760000000  0.4179780000000 1.0
C      1  0.5764230000000  0.5289550000000  0.4516520000000 1.0
C      1  0.5884190000000  0.5267500000000  0.5036190000000 1.0
C      1  0.5764870000000  0.5318680000000  0.5499410000000 1.0
C      1  0.5360400000000  0.5334890000000  0.5846530000000 1.0
C      1  0.5773010000000  0.4996970000000  0.5128790000000 1.0
C      1  0.5683070000000  0.5042750000000  0.5415580000000 1.0
C      1  0.5219850000000  0.5060390000000  0.5818730000000 1.0
C      1  0.4718730000000  0.4991090000000  0.5734650000000 1.0
C      1  0.4462020000000  0.4978200000000  0.5570080000000 1.0
C      1  0.4217210000000  0.4993120000000  0.5110150000000 1.0
C      1  0.4195850000000  0.4984810000000  0.4789440000000 1.0
C      1  0.4593510000000  0.5042690000000  0.4278510000000 1.0
C      1  0.4845240000000  0.5078260000000  0.4134610000000 1.0
C      1  0.5420980000000  0.5036890000000  0.4283080000000 1.0
C      1  0.5639140000000  0.5015830000000  0.4502890000000 1.0
C      1  0.4705920000000  0.4921400000000  0.4548210000000 1.0
C      1  0.4980380000000  0.5049820000000  0.4659050000000 1.0
C      1  0.5225370000000  0.4878300000000  0.4584410000000 1.0
C      1  0.5448170000000  0.5000060000000  0.4732020000000 1.0
C      1  0.5494960000000  0.4913680000000  0.5012820000000 1.0
C      1  0.5373600000000  0.5065530000000  0.5339310000000 1.0
C      1  0.5215770000000  0.4906960000000  0.5550760000000 1.0
C      1  0.4890390000000  0.4842120000000  0.5523220000000 1.0
C      1  0.4654510000000  0.4794140000000  0.5282720000000 1.0
C      1  0.4540640000000  0.4978230000000  0.5078730000000 1.0
C      1  0.4496750000000  0.4885120000000  0.4783420000000 1.0
C      1  0.5059490000000  0.5406110000000  0.5745540000000 1.0
C      1  0.4565040000000  0.5442290000000  0.5632650000000 1.0
C      1  0.4152080000000  0.5351470000000  0.5431240000000 1.0
C      1  0.4189660000000  0.5443830000000  0.4957830000000 1.0
C      1  0.4290250000000  0.5375180000000  0.4490970000000 1.0
C      1  0.4704240000000  0.5489800000000  0.4268590000000 1.0
C      1  0.5170670000000  0.5431490000000  0.4095740000000 1.0
C      1  0.5541450000000  0.5461210000000  0.4405490000000 1.0
C      1  0.5858110000000  0.5351670000000  0.4771400000000 1.0
C      1  0.5798100000000  0.5465350000000  0.5239950000000 1.0
C      1  0.5563190000000  0.5440500000000  0.5667530000000 1.0
C      1  0.4077150000000  0.4736900000000  0.5230110000000 1.0
C      1  0.4010200000000  0.4757810000000  0.4689370000000 1.0
C      1  0.4426380000000  0.4844730000000  0.4126570000000 1.0
C      1  0.4898320000000  0.4844000000000  0.3967840000000 1.0
C      1  0.5424270000000  0.4797170000000  0.4096230000000 1.0
C      1  0.5793520000000  0.4744010000000  0.4462000000000 1.0
C      1  0.5946240000000  0.4751250000000  0.5134380000000 1.0
C      1  0.5800040000000  0.4809050000000  0.5589220000000 1.0
C      1  0.5304130000000  0.4873380000000  0.6043780000000 1.0
C      1  0.4663480000000  0.4826060000000  0.5985370000000 1.0
C      1  0.4275260000000  0.4785300000000  0.5700480000000 1.0
C      1  0.5135090000000  0.4627770000000  0.6030210000000 1.0
C      1  0.4592830000000  0.4431700000000  0.5703400000000 1.0
C      1  0.4408170000000  0.4413890000000  0.5464190000000 1.0
C      1  0.4096430000000  0.4420060000000  0.5017220000000 1.0
C      1  0.4189990000000  0.4582490000000  0.4523650000000 1.0
C      1  0.4705490000000  0.4480500000000  0.4219350000000 1.0
C      1  0.4999360000000  0.4439570000000  0.4222200000000 1.0
C      1  0.5429100000000  0.4480320000000  0.4319320000000 1.0
C      1  0.5773230000000  0.4551180000000  0.4695080000000 1.0
C      1  0.5532000000000  0.4538040000000  0.5331440000000 1.0
C      1  0.5607810000000  0.4695190000000  0.5775540000000 1.0
C      1  0.4459910000000  0.4636860000000  0.5883330000000 1.0
C      1  0.4174050000000  0.4600000000000  0.5494640000000 1.0
C      1  0.3906170000000  0.4605960000000  0.4918390000000 1.0
C      1  0.4245870000000  0.4692970000000  0.4274200000000 1.0
C      1  0.4642810000000  0.4679910000000  0.4007510000000 1.0
C      1  0.5121890000000  0.4674670000000  0.4069540000000 1.0
C      1  0.5660040000000  0.4621050000000  0.4223390000000 1.0
C      1  0.5951160000000  0.4603700000000  0.4900830000000 1.0
C      1  0.5823780000000  0.4610310000000  0.5368110000000 1.0
C      1  0.5578330000000  0.4815610000000  0.6026720000000 1.0
C      1  0.4873580000000  0.4688890000000  0.6103810000000 1.0
C      1  0.4611900000000  0.5850210000000  0.5031370000000 1.0
C      1  0.4886880000000  0.5787250000000  0.4917850000000 1.0
C      1  0.4911290000000  0.5801710000000  0.4615290000000 1.0
C      1  0.5197080000000  0.5810420000000  0.4527810000000 1.0
C      1  0.5339280000000  0.6023160000000  0.4648250000000 1.0
C      1  0.5455450000000  0.5905850000000  0.4874300000000 1.0
C      1  0.5444330000000  0.6039910000000  0.5121320000000 1.0
C      1  0.5422240000000  0.5831060000000  0.5309120000000 1.0
C      1  0.5156210000000  0.5792260000000  0.5440170000000 1.0
C      1  0.4928430000000  0.5949240000000  0.5388810000000 1.0
C      1  0.4664920000000  0.5864140000000  0.5330790000000 1.0
C      1  0.4693800000000  0.4148030000000  0.4917740000000 1.0
C      1  0.4619160000000  0.4102200000000  0.4664030000000 1.0
C      1  0.4819720000000  0.3998280000000  0.4517120000000 1.0
C      1  0.5087850000000  0.3995150000000  0.4508190000000 1.0
C      1  0.5322860000000  0.4040710000000  0.4627140000000 1.0
C      1  0.5474570000000  0.4173630000000  0.4814550000000 1.0
C      1  0.5503390000000  0.4056550000000  0.5061720000000 1.0
C      1  0.5373780000000  0.3980000000000  0.5280990000000 1.0
C      1  0.5134680000000  0.4021570000000  0.5388950000000 1.0
C      1  0.4909220000000  0.4154630000000  0.5335770000000 1.0
C      1  0.4757770000000  0.4288090000000  0.5145780000000 1.0
C      1  0.4365710000000  0.4511990000000  0.4980750000000 1.0
C      1  0.4438130000000  0.4504710000000  0.4682420000000 1.0
C      1  0.4712050000000  0.4596290000000  0.4521620000000 1.0
C      1  0.5020180000000  0.4432570000000  0.4529170000000 1.0
C      1  0.5285880000000  0.4565450000000  0.4564830000000 1.0
C      1  0.5491120000000  0.4469920000000  0.4788370000000 1.0
C      1  0.5421880000000  0.4618930000000  0.5059150000000 1.0
C      1  0.5371340000000  0.4637930000000  0.5596590000000 1.0
C      1  0.5149870000000  0.4494960000000  0.5761050000000 1.0
C      1  0.4881650000000  0.4478900000000  0.5632750000000 1.0
C      1  0.4555800000000  0.4496590000000  0.5217470000000 1.0
C      1  0.4681860000000  0.5406680000000  0.4814860000000 1.0
C      1  0.4817930000000  0.5519730000000  0.4553570000000 1.0
C      1  0.5058810000000  0.5345130000000  0.4585870000000 1.0
C      1  0.5317630000000  0.5537170000000  0.4605770000000 1.0
C      1  0.5441960000000  0.5612390000000  0.4884630000000 1.0
C      1  0.5512120000000  0.5564810000000  0.5185400000000 1.0
C      1  0.5346510000000  0.5369970000000  0.5355400000000 1.0
C      1  0.5098730000000  0.5498940000000  0.5456610000000 1.0
C      1  0.4877230000000  0.5419970000000  0.5274580000000 1.0
C      1  0.4622780000000  0.5551200000000  0.5347140000000 1.0
C      1  0.4483110000000  0.5553450000000  0.4998270000000 1.0
C      1  0.4955810000000  0.5040210000000  0.4942870000000 1.0
C      1  0.4928810000000  0.5478350000000  0.4987990000000 1.0
C      1  0.5050630000000  0.4859040000000  0.5114750000000 1.0
C      1  0.5139400000000  0.4607500000000  0.5093620000000 1.0
END
