TITL C-3577087-600-485 -2.66063869395937e-06 125000 -955.992686913986 0 0 157 (C1) n - 1
REM
REM in /home/bkarasulu/work/CARBON/AIRSS/Generating-Clusters/EDIP-Nigel-Params/with-SteepDescent/Higher-Symm/SD-CG/HFTN-CG
REM
REM
REM
REM
REM
REM ./C.cell (12c818d87b63d06a65506943cc24bca4)
REM
REM compiler GCC version 9.2.1 20190827 (Red Hat 9.2.1-1)
REM options -cpp -mtune=generic -march=x86-64 -g -O0 -fpre-include=/usr/include/finclude/math-vector-fortran.h
REM seed -1139351137 1661037053 531446062 -444772676 1153419251 1534128518 -1047789283 1115310249 -359647680 868643913 -2055199620 -168119382 689688979 281181610 1698732688 -2135574817 419006867 715737540 -472364210 -1287418162 -428002967 2082697866 1480566760 -1751772030 -1547081208 -811567888 -253260850 -337865547 1622415156 2100513030 -1057716037 355537448 -1958981126
REM
CELL 1.54180   50.00000   50.00000   50.00000   90.00000   90.00000   90.00000
LATT -1
SFAC C  
C      1  0.4811160000000  0.5055530000000  0.5606120000000 1.0
C      1  0.4801350000000  0.4706570000000  0.5488490000000 1.0
C      1  0.4781520000000  0.4485560000000  0.5209180000000 1.0
C      1  0.4923650000000  0.4426530000000  0.4909270000000 1.0
C      1  0.4820320000000  0.4557500000000  0.4630360000000 1.0
C      1  0.4942850000000  0.4806270000000  0.4433540000000 1.0
C      1  0.4899800000000  0.5135910000000  0.4448350000000 1.0
C      1  0.4942130000000  0.5459930000000  0.4636930000000 1.0
C      1  0.4866120000000  0.5567840000000  0.4932460000000 1.0
C      1  0.4903130000000  0.5595010000000  0.5317200000000 1.0
C      1  0.4922220000000  0.5367920000000  0.5556680000000 1.0
C      1  0.5051580000000  0.4124180000000  0.4365090000000 1.0
C      1  0.4966930000000  0.4614790000000  0.3947680000000 1.0
C      1  0.5041400000000  0.5294290000000  0.3884610000000 1.0
C      1  0.5081780000000  0.5869440000000  0.4233970000000 1.0
C      1  0.5057380000000  0.6047910000000  0.4773570000000 1.0
C      1  0.5040540000000  0.6088660000000  0.5461150000000 1.0
C      1  0.5038150000000  0.5692010000000  0.5923410000000 1.0
C      1  0.5057270000000  0.5091530000000  0.6136490000000 1.0
C      1  0.5016090000000  0.4478090000000  0.5921770000000 1.0
C      1  0.5083490000000  0.4026820000000  0.5520630000000 1.0
C      1  0.5116660000000  0.3836820000000  0.4876990000000 1.0
C      1  0.5130520000000  0.4738410000000  0.5884560000000 1.0
C      1  0.5178660000000  0.4301900000000  0.5511370000000 1.0
C      1  0.5199360000000  0.3999720000000  0.5101270000000 1.0
C      1  0.5253950000000  0.4134010000000  0.4578310000000 1.0
C      1  0.5157530000000  0.4476930000000  0.4118050000000 1.0
C      1  0.5185970000000  0.5076890000000  0.3996460000000 1.0
C      1  0.5163530000000  0.5602880000000  0.4175030000000 1.0
C      1  0.5269350000000  0.5896050000000  0.4634540000000 1.0
C      1  0.5104140000000  0.5970920000000  0.5203520000000 1.0
C      1  0.5144650000000  0.5726210000000  0.5639430000000 1.0
C      1  0.5145220000000  0.5265480000000  0.5919520000000 1.0
C      1  0.4735920000000  0.5853760000000  0.5392550000000 1.0
C      1  0.4774720000000  0.5535300000000  0.5793290000000 1.0
C      1  0.4768250000000  0.5035510000000  0.5922730000000 1.0
C      1  0.4754540000000  0.4532620000000  0.5758590000000 1.0
C      1  0.4779140000000  0.4200180000000  0.5377460000000 1.0
C      1  0.4838390000000  0.4103250000000  0.4881280000000 1.0
C      1  0.4781720000000  0.4295290000000  0.4444270000000 1.0
C      1  0.4770310000000  0.4709180000000  0.4159330000000 1.0
C      1  0.4800240000000  0.5223050000000  0.4158110000000 1.0
C      1  0.4813820000000  0.5665450000000  0.4424820000000 1.0
C      1  0.4793880000000  0.5870600000000  0.4867220000000 1.0
C      1  0.5510690000000  0.5911990000000  0.5051860000000 1.0
C      1  0.5606440000000  0.5801730000000  0.5477960000000 1.0
C      1  0.5600250000000  0.5428890000000  0.5832900000000 1.0
C      1  0.5594240000000  0.4917410000000  0.5933050000000 1.0
C      1  0.5616980000000  0.4436420000000  0.5764710000000 1.0
C      1  0.5648790000000  0.4085970000000  0.5370620000000 1.0
C      1  0.5610500000000  0.4087100000000  0.4881390000000 1.0
C      1  0.5555170000000  0.4341980000000  0.4258990000000 1.0
C      1  0.5648200000000  0.4737040000000  0.4085580000000 1.0
C      1  0.5551860000000  0.5408940000000  0.4086770000000 1.0
C      1  0.5663700000000  0.5764850000000  0.4393990000000 1.0
C      1  0.5256260000000  0.5489510000000  0.5099790000000 1.0
C      1  0.5293700000000  0.5307300000000  0.5320780000000 1.0
C      1  0.5226560000000  0.5062300000000  0.5461940000000 1.0
C      1  0.5229000000000  0.4776910000000  0.5408650000000 1.0
C      1  0.5323070000000  0.4645810000000  0.5168040000000 1.0
C      1  0.5224420000000  0.4493900000000  0.4911060000000 1.0
C      1  0.5345880000000  0.4597230000000  0.4644980000000 1.0
C      1  0.5251670000000  0.4803780000000  0.4439200000000 1.0
C      1  0.5336320000000  0.5104120000000  0.4472360000000 1.0
C      1  0.5244450000000  0.5369610000000  0.4607010000000 1.0
C      1  0.5397250000000  0.5472050000000  0.4846830000000 1.0
C      1  0.5336570000000  0.3887550000000  0.4698020000000 1.0
C      1  0.5214610000000  0.4201870000000  0.4139960000000 1.0
C      1  0.5139720000000  0.4833470000000  0.3856140000000 1.0
C      1  0.5220830000000  0.5513690000000  0.3913100000000 1.0
C      1  0.5331640000000  0.5966100000000  0.4362010000000 1.0
C      1  0.5201580000000  0.6144790000000  0.5002030000000 1.0
C      1  0.5289510000000  0.5983570000000  0.5603280000000 1.0
C      1  0.5262590000000  0.5513350000000  0.6006410000000 1.0
C      1  0.5249540000000  0.4876340000000  0.6105620000000 1.0
C      1  0.5246970000000  0.4324440000000  0.5793730000000 1.0
C      1  0.5302450000000  0.3908550000000  0.5359350000000 1.0
C      1  0.5826320000000  0.5315090000000  0.4524130000000 1.0
C      1  0.5838300000000  0.5487260000000  0.4789230000000 1.0
C      1  0.5826730000000  0.5520830000000  0.5115400000000 1.0
C      1  0.5834090000000  0.5377350000000  0.5394840000000 1.0
C      1  0.5827480000000  0.5105930000000  0.5539360000000 1.0
C      1  0.5835630000000  0.4800420000000  0.5521490000000 1.0
C      1  0.5844210000000  0.4541280000000  0.5359250000000 1.0
C      1  0.5867330000000  0.4422610000000  0.5082010000000 1.0
C      1  0.5829120000000  0.4529100000000  0.4792290000000 1.0
C      1  0.5825510000000  0.4708420000000  0.4533630000000 1.0
C      1  0.5823340000000  0.5010860000000  0.4453590000000 1.0
C      1  0.4592000000000  0.5193750000000  0.4622560000000 1.0
C      1  0.4482340000000  0.5193370000000  0.4903150000000 1.0
C      1  0.4591030000000  0.5438420000000  0.5043900000000 1.0
C      1  0.4547730000000  0.5417150000000  0.5355830000000 1.0
C      1  0.4526850000000  0.5168400000000  0.5530050000000 1.0
C      1  0.4488100000000  0.4774960000000  0.5480390000000 1.0
C      1  0.4328660000000  0.4539170000000  0.5373570000000 1.0
C      1  0.4479290000000  0.4474690000000  0.5118900000000 1.0
C      1  0.4421450000000  0.4702540000000  0.4922060000000 1.0
C      1  0.4532030000000  0.4669470000000  0.4640560000000 1.0
C      1  0.4512780000000  0.4935370000000  0.4501360000000 1.0
C      1  0.5741690000000  0.4706280000000  0.5786450000000 1.0
C      1  0.5756020000000  0.4319430000000  0.5532820000000 1.0
C      1  0.5790220000000  0.4133450000000  0.5111140000000 1.0
C      1  0.5707600000000  0.4282130000000  0.4689830000000 1.0
C      1  0.5762150000000  0.4554780000000  0.4276880000000 1.0
C      1  0.5707620000000  0.5005240000000  0.4176090000000 1.0
C      1  0.5767580000000  0.5499090000000  0.4287820000000 1.0
C      1  0.5750170000000  0.5755690000000  0.4677130000000 1.0
C      1  0.5743880000000  0.5798590000000  0.5203180000000 1.0
C      1  0.5741700000000  0.5569780000000  0.5604650000000 1.0
C      1  0.5732110000000  0.5160600000000  0.5816430000000 1.0
C      1  0.4590900000000  0.5746320000000  0.5645660000000 1.0
C      1  0.4616530000000  0.5305450000000  0.5938370000000 1.0
C      1  0.4596270000000  0.4766140000000  0.5909490000000 1.0
C      1  0.4614360000000  0.4284330000000  0.5624250000000 1.0
C      1  0.4660870000000  0.4053710000000  0.5130130000000 1.0
C      1  0.4652350000000  0.4111220000000  0.4646040000000 1.0
C      1  0.4587670000000  0.4459300000000  0.4251310000000 1.0
C      1  0.4631370000000  0.4975260000000  0.4075790000000 1.0
C      1  0.4633810000000  0.5472650000000  0.4256310000000 1.0
C      1  0.4646620000000  0.5831670000000  0.4608290000000 1.0
C      1  0.4582650000000  0.5900610000000  0.5114240000000 1.0
C      1  0.5306530000000  0.5758270000000  0.5228800000000 1.0
C      1  0.5319320000000  0.5481750000000  0.5570200000000 1.0
C      1  0.5315000000000  0.5109770000000  0.5742890000000 1.0
C      1  0.5326330000000  0.4683240000000  0.5674400000000 1.0
C      1  0.5392610000000  0.4371730000000  0.5303800000000 1.0
C      1  0.5363600000000  0.4218620000000  0.5017730000000 1.0
C      1  0.5464960000000  0.4341400000000  0.4535100000000 1.0
C      1  0.5347950000000  0.4703380000000  0.4156100000000 1.0
C      1  0.5436410000000  0.5145590000000  0.4180380000000 1.0
C      1  0.5348480000000  0.5539050000000  0.4386520000000 1.0
C      1  0.5482650000000  0.5762340000000  0.4800730000000 1.0
C      1  0.4358410000000  0.4818650000000  0.5746710000000 1.0
C      1  0.4344500000000  0.4321720000000  0.5564120000000 1.0
C      1  0.4425710000000  0.4195350000000  0.5019630000000 1.0
C      1  0.4395140000000  0.4161260000000  0.4741640000000 1.0
C      1  0.4357240000000  0.4523640000000  0.4440970000000 1.0
C      1  0.4395640000000  0.4957570000000  0.4234930000000 1.0
C      1  0.4422320000000  0.5417050000000  0.4489240000000 1.0
C      1  0.4417930000000  0.5669670000000  0.4666200000000 1.0
C      1  0.4393280000000  0.5655550000000  0.4968990000000 1.0
C      1  0.4374000000000  0.5622340000000  0.5491540000000 1.0
C      1  0.4390060000000  0.5256990000000  0.5776770000000 1.0
C      1  0.4132520000000  0.5261700000000  0.4576070000000 1.0
C      1  0.4182060000000  0.5241530000000  0.4872200000000 1.0
C      1  0.4134380000000  0.5487690000000  0.5034560000000 1.0
C      1  0.4104170000000  0.5417300000000  0.5314270000000 1.0
C      1  0.4036770000000  0.5160360000000  0.5398030000000 1.0
C      1  0.4068160000000  0.4907360000000  0.5509860000000 1.0
C      1  0.4058500000000  0.4666230000000  0.5344510000000 1.0
C      1  0.3958050000000  0.4684580000000  0.5083540000000 1.0
C      1  0.4133750000000  0.4744430000000  0.4875960000000 1.0
C      1  0.4080400000000  0.4745320000000  0.4589210000000 1.0
C      1  0.4077980000000  0.5000570000000  0.4450820000000 1.0
C      1  0.4550220000000  0.4941670000000  0.5037040000000 1.0
C      1  0.4816780000000  0.4915640000000  0.5095520000000 1.0
C      1  0.5060660000000  0.4984780000000  0.5056020000000 1.0
END
