TITL C-3578203-1966-219 1.01265878593641e-07 125000 -31.5108688542981 0 0 7 (D3h) n - 1
REM
REM in /home/bkarasulu/work/CARBON/AIRSS/Generating-Clusters/EDIP-Nigel-Params/with-SteepDescent/Higher-Symm/SD-CG/HFTN-CG
REM
REM
REM
REM
REM
REM ./C.cell (12c818d87b63d06a65506943cc24bca4)
REM
REM compiler GCC version 9.2.1 20190827 (Red Hat 9.2.1-1)
REM options -cpp -mtune=generic -march=x86-64 -g -O0 -fpre-include=/usr/include/finclude/math-vector-fortran.h
REM seed -1808778292 196858582 -757674509 -1283917641 -873850024 1586712741 1884652783 1307892692 -783665155 980895622 -1210700900 -916794683 -626954907 1300176722 -603463597 1116256310 1781813205 -1994876317 827661332 -1810558154 473643099 1009308960 -763103899 -895599514 -611332378 -44239707 230010291 1905568820 1774019804 -144619805 134828589 32721790 -1048165691
REM
CELL 1.54180   50.00000   50.00000   50.00000   90.00000   90.00000   90.00000
LATT -1
SFAC C  
C      1  0.4750080000000  0.5013100000000  0.4989910000000 1.0
C      1  0.5184220000000  0.5024980000000  0.5180020000000 1.0
C      1  0.5132030000000  0.5009120000000  0.4709090000000 1.0
C      1  0.4495620000000  0.5010640000000  0.5018190000000 1.0
C      1  0.5335860000000  0.5033620000000  0.5386150000000 1.0
C      1  0.5234850000000  0.5002940000000  0.4474680000000 1.0
C      1  0.5022110000000  0.5015730000000  0.4959670000000 1.0
END
