TITL C-3578209-2550-627 0.00157740793727402 125000 -56.3762679750107 0 0 11 (C1) n - 1
REM
REM in /home/bkarasulu/work/CARBON/AIRSS/Generating-Clusters/EDIP-Nigel-Params/with-SteepDescent/Higher-Symm/SD-CG/HFTN-CG
REM
REM
REM
REM
REM
REM ./C.cell (12c818d87b63d06a65506943cc24bca4)
REM
REM compiler GCC version 9.2.1 20190827 (Red Hat 9.2.1-1)
REM options -cpp -mtune=generic -march=x86-64 -g -O0 -fpre-include=/usr/include/finclude/math-vector-fortran.h
REM seed -619859550 538751628 1696592116 -309490800 1241301008 1645926237 1735198274 1621857458 -322954950 918721983 -1283821752 225200642 -411640337 1919860 -2068656374 -831758282 1647866908 -247299212 822908369 -855012301 -2143371497 -640054145 1304095928 638201527 -1315459542 -311786919 -1449198648 1302221646 100153731 -642170694 358266454 -1086195490 -709872673
REM
CELL 1.54180   50.00000   50.00000   50.00000   90.00000   90.00000   90.00000
LATT -1
SFAC C  
C      1  0.5101010000000  0.5445410000000  0.5003910000000 1.0
C      1  0.5096630000000  0.4724610000000  0.4865920000000 1.0
C      1  0.4854720000000  0.5353670000000  0.5124820000000 1.0
C      1  0.4699050000000  0.5055740000000  0.5318970000000 1.0
C      1  0.4443420000000  0.5009800000000  0.5357550000000 1.0
C      1  0.5244720000000  0.5197260000000  0.4883120000000 1.0
C      1  0.5366980000000  0.5453000000000  0.4905410000000 1.0
C      1  0.5160940000000  0.4233120000000  0.4709950000000 1.0
C      1  0.5076540000000  0.4976640000000  0.4972370000000 1.0
C      1  0.4822850000000  0.5077570000000  0.5064430000000 1.0
C      1  0.5133140000000  0.4473170000000  0.4793550000000 1.0
END
