TITL C-3578198-8939-594 -1.92491533235985e-06 125000 -681.617110304396 0 0 114 (C1) n - 1
REM
REM in /home/bkarasulu/work/CARBON/AIRSS/Generating-Clusters/EDIP-Nigel-Params/with-SteepDescent/Higher-Symm/SD-CG/HFTN-CG
REM
REM
REM
REM
REM
REM ./C.cell (12c818d87b63d06a65506943cc24bca4)
REM
REM compiler GCC version 9.2.1 20190827 (Red Hat 9.2.1-1)
REM options -cpp -mtune=generic -march=x86-64 -g -O0 -fpre-include=/usr/include/finclude/math-vector-fortran.h
REM seed 1826554014 -1040855366 364299245 606339162 719119912 -288342917 -1768455372 1010079529 1381297705 233417897 -1299340961 2037608017 718916528 -1148774534 1223212462 -648755365 1161805798 -2147425195 -1034171395 -1535324480 423048597 -1344396469 -666397974 -1001264853 1505278096 340776686 -1188506746 -220938507 1981179675 -944011766 622000016 1209372358 -429830643
REM
CELL 1.54180   50.00000   50.00000   50.00000   90.00000   90.00000   90.00000
LATT -1
SFAC C  
C      1  0.5517640000000  0.4787020000000  0.4401820000000 1.0
C      1  0.4295200000000  0.5524750000000  0.4783040000000 1.0
C      1  0.4764250000000  0.4189900000000  0.5507590000000 1.0
C      1  0.4452790000000  0.4777130000000  0.5731010000000 1.0
C      1  0.5524440000000  0.5211200000000  0.5741000000000 1.0
C      1  0.4468030000000  0.5237040000000  0.4208280000000 1.0
C      1  0.5683980000000  0.5492560000000  0.5233620000000 1.0
C      1  0.4351350000000  0.4501190000000  0.5258920000000 1.0
C      1  0.5799100000000  0.4455540000000  0.4806760000000 1.0
C      1  0.5232840000000  0.4339610000000  0.4493870000000 1.0
C      1  0.4757850000000  0.5712130000000  0.4480910000000 1.0
C      1  0.5219800000000  0.5690230000000  0.5445340000000 1.0
C      1  0.5476190000000  0.5224050000000  0.4210590000000 1.0
C      1  0.4297340000000  0.4483570000000  0.4781220000000 1.0
C      1  0.4785810000000  0.5720430000000  0.5519800000000 1.0
C      1  0.4483110000000  0.5240100000000  0.5756250000000 1.0
C      1  0.5490060000000  0.4744100000000  0.5719270000000 1.0
C      1  0.4491350000000  0.4797940000000  0.4247010000000 1.0
C      1  0.5688510000000  0.4452390000000  0.5273110000000 1.0
C      1  0.4307920000000  0.5524750000000  0.5280420000000 1.0
C      1  0.5725860000000  0.5505120000000  0.4756680000000 1.0
C      1  0.5247580000000  0.5654990000000  0.4445430000000 1.0
C      1  0.4750120000000  0.4392730000000  0.4502170000000 1.0
C      1  0.5210650000000  0.4293660000000  0.5511060000000 1.0
C      1  0.4639290000000  0.4851320000000  0.4794860000000 1.0
C      1  0.4818350000000  0.4603220000000  0.4924430000000 1.0
C      1  0.4817130000000  0.4922320000000  0.4554040000000 1.0
C      1  0.5477510000000  0.4810550000000  0.5130260000000 1.0
C      1  0.4566510000000  0.5187110000000  0.5150560000000 1.0
C      1  0.5474220000000  0.5106040000000  0.4800610000000 1.0
C      1  0.5231720000000  0.4664990000000  0.5173670000000 1.0
C      1  0.4811720000000  0.5346810000000  0.5228630000000 1.0
C      1  0.5089370000000  0.5366010000000  0.4797880000000 1.0
C      1  0.5104790000000  0.4813750000000  0.5411310000000 1.0
C      1  0.4874150000000  0.5190100000000  0.5468100000000 1.0
C      1  0.5226690000000  0.5147480000000  0.4631590000000 1.0
C      1  0.4581020000000  0.5157570000000  0.4871820000000 1.0
C      1  0.4793320000000  0.5362070000000  0.4749220000000 1.0
C      1  0.4801670000000  0.5210160000000  0.4491610000000 1.0
C      1  0.5397280000000  0.5188130000000  0.5098450000000 1.0
C      1  0.4597330000000  0.4921260000000  0.5252980000000 1.0
C      1  0.5524740000000  0.4821460000000  0.4842570000000 1.0
C      1  0.5122110000000  0.5353380000000  0.5090470000000 1.0
C      1  0.4790910000000  0.4528120000000  0.5203600000000 1.0
C      1  0.5110380000000  0.4659400000000  0.4877450000000 1.0
C      1  0.5148980000000  0.5105060000000  0.5455370000000 1.0
C      1  0.4807130000000  0.4754870000000  0.5394580000000 1.0
C      1  0.5099410000000  0.4872960000000  0.4627180000000 1.0
C      1  0.4546270000000  0.5776990000000  0.5663850000000 1.0
C      1  0.5672320000000  0.4521200000000  0.5753340000000 1.0
C      1  0.5712620000000  0.5659260000000  0.4525390000000 1.0
C      1  0.5517670000000  0.5649880000000  0.4326870000000 1.0
C      1  0.4499980000000  0.4326840000000  0.4362730000000 1.0
C      1  0.5441250000000  0.4222210000000  0.5660950000000 1.0
C      1  0.4357180000000  0.4544900000000  0.4236350000000 1.0
C      1  0.5568210000000  0.5471580000000  0.4116190000000 1.0
C      1  0.4322860000000  0.5478190000000  0.5775390000000 1.0
C      1  0.4301380000000  0.5661110000000  0.5548500000000 1.0
C      1  0.5691740000000  0.4318210000000  0.5542610000000 1.0
C      1  0.4278030000000  0.4320700000000  0.4546030000000 1.0
C      1  0.4501020000000  0.4171280000000  0.5594380000000 1.0
C      1  0.5671530000000  0.5444170000000  0.5707060000000 1.0
C      1  0.5796120000000  0.4361950000000  0.4534030000000 1.0
C      1  0.5468280000000  0.4314320000000  0.4330830000000 1.0
C      1  0.4485020000000  0.5726870000000  0.4353680000000 1.0
C      1  0.5456750000000  0.5818210000000  0.5523030000000 1.0
C      1  0.4350010000000  0.5497200000000  0.4225710000000 1.0
C      1  0.5662060000000  0.4532920000000  0.4331820000000 1.0
C      1  0.4278040000000  0.4560570000000  0.5723280000000 1.0
C      1  0.4325420000000  0.4375290000000  0.5522720000000 1.0
C      1  0.5654770000000  0.5623650000000  0.5495260000000 1.0
C      1  0.4271660000000  0.5695020000000  0.4552290000000 1.0
C      1  0.5262650000000  0.4355780000000  0.5219500000000 1.0
C      1  0.5198760000000  0.5237220000000  0.4318090000000 1.0
C      1  0.4278450000000  0.5227080000000  0.5270430000000 1.0
C      1  0.4760970000000  0.4337580000000  0.4795260000000 1.0
C      1  0.5245640000000  0.5615230000000  0.4728770000000 1.0
C      1  0.4728950000000  0.5640870000000  0.5233990000000 1.0
C      1  0.4795280000000  0.5257060000000  0.5751080000000 1.0
C      1  0.5183410000000  0.4695510000000  0.5683530000000 1.0
C      1  0.4789910000000  0.4776830000000  0.4291060000000 1.0
C      1  0.5746600000000  0.5207790000000  0.4717150000000 1.0
C      1  0.4337420000000  0.4788650000000  0.4738500000000 1.0
C      1  0.5741160000000  0.4760510000000  0.5283300000000 1.0
C      1  0.5185440000000  0.5649480000000  0.5147890000000 1.0
C      1  0.5211280000000  0.4761100000000  0.4366740000000 1.0
C      1  0.4320260000000  0.4808420000000  0.5255890000000 1.0
C      1  0.4713740000000  0.5660960000000  0.4802910000000 1.0
C      1  0.5259980000000  0.4393510000000  0.4791940000000 1.0
C      1  0.4760920000000  0.4233690000000  0.5211970000000 1.0
C      1  0.4752180000000  0.4713050000000  0.5696220000000 1.0
C      1  0.5226950000000  0.5228350000000  0.5724210000000 1.0
C      1  0.4784560000000  0.5264950000000  0.4197640000000 1.0
C      1  0.5799360000000  0.4748330000000  0.4805210000000 1.0
C      1  0.4311540000000  0.5219720000000  0.4748580000000 1.0
C      1  0.5672880000000  0.5188980000000  0.5253910000000 1.0
C      1  0.4348210000000  0.5025600000000  0.5594710000000 1.0
C      1  0.5643750000000  0.5056490000000  0.4379030000000 1.0
C      1  0.4394720000000  0.5662460000000  0.5029430000000 1.0
C      1  0.4952870000000  0.4379960000000  0.5646340000000 1.0
C      1  0.4987660000000  0.5571260000000  0.4320570000000 1.0
C      1  0.5586330000000  0.4343050000000  0.4997840000000 1.0
C      1  0.5540170000000  0.5590710000000  0.4979800000000 1.0
C      1  0.4438580000000  0.4347060000000  0.5012630000000 1.0
C      1  0.4362750000000  0.5020970000000  0.4417740000000 1.0
C      1  0.4996840000000  0.4439970000000  0.4347070000000 1.0
C      1  0.5619300000000  0.4979970000000  0.5582160000000 1.0
C      1  0.5025460000000  0.5554560000000  0.5648600000000 1.0
C      1  0.4995010000000  0.5004730000000  0.4147440000000 1.0
C      1  0.4200740000000  0.4940700000000  0.4990100000000 1.0
C      1  0.5039270000000  0.4201810000000  0.5039140000000 1.0
C      1  0.4966180000000  0.4951330000000  0.5825260000000 1.0
C      1  0.5855340000000  0.5036580000000  0.5036110000000 1.0
C      1  0.4918580000000  0.5775500000000  0.5034500000000 1.0
END
