TITL C-3578206-1180-535 -1.27217889496627e-07 125000 -219.305669365982 0 0 36 (C1) n - 1
REM
REM in /home/bkarasulu/work/CARBON/AIRSS/Generating-Clusters/EDIP-Nigel-Params/with-SteepDescent/Higher-Symm/SD-CG/HFTN-CG
REM
REM
REM
REM
REM
REM ./C.cell (12c818d87b63d06a65506943cc24bca4)
REM
REM compiler GCC version 9.2.1 20190827 (Red Hat 9.2.1-1)
REM options -cpp -mtune=generic -march=x86-64 -g -O0 -fpre-include=/usr/include/finclude/math-vector-fortran.h
REM seed -1597525449 -151964942 -89020582 -1865541500 1538865349 200545916 -1729436006 2119504393 -1428227498 -98394530 1168874669 659140558 -1944853058 386468362 65269178 -1714341145 1720491966 1187456929 1019622257 -488321019 -676898004 -2095856120 1113680162 287651176 417232166 270292233 1286571321 990967478 434939727 1884845978 -1846227159 -135998016 -1389457690
REM
CELL 1.54180   50.00000   50.00000   50.00000   90.00000   90.00000   90.00000
LATT -1
SFAC C  
C      1  0.5334340000000  0.4496730000000  0.4702020000000 1.0
C      1  0.5384690000000  0.4559830000000  0.5433800000000 1.0
C      1  0.5311030000000  0.5364820000000  0.5565820000000 1.0
C      1  0.5295300000000  0.5422220000000  0.4980790000000 1.0
C      1  0.5258730000000  0.5188720000000  0.4488550000000 1.0
C      1  0.4705410000000  0.5449290000000  0.5145000000000 1.0
C      1  0.4680160000000  0.5310280000000  0.4606870000000 1.0
C      1  0.4698100000000  0.4762880000000  0.4567150000000 1.0
C      1  0.4726550000000  0.4553660000000  0.5100290000000 1.0
C      1  0.4734930000000  0.4982150000000  0.5445960000000 1.0
C      1  0.4526870000000  0.4762300000000  0.5049560000000 1.0
C      1  0.4529670000000  0.4993640000000  0.5235820000000 1.0
C      1  0.4511360000000  0.5240840000000  0.5069170000000 1.0
C      1  0.4497460000000  0.5161140000000  0.4781520000000 1.0
C      1  0.4510070000000  0.4864110000000  0.4768650000000 1.0
C      1  0.4805990000000  0.4734280000000  0.5553490000000 1.0
C      1  0.4778430000000  0.5463660000000  0.5414160000000 1.0
C      1  0.4740480000000  0.5572660000000  0.4681070000000 1.0
C      1  0.4729670000000  0.4915480000000  0.4335080000000 1.0
C      1  0.4809500000000  0.4410350000000  0.4876260000000 1.0
C      1  0.5406210000000  0.4717080000000  0.5206190000000 1.0
C      1  0.5409660000000  0.5127600000000  0.5460770000000 1.0
C      1  0.5352010000000  0.5151150000000  0.4964180000000 1.0
C      1  0.5310300000000  0.5025550000000  0.4706900000000 1.0
C      1  0.5399230000000  0.4760440000000  0.4643730000000 1.0
C      1  0.5121880000000  0.4515840000000  0.4526070000000 1.0
C      1  0.5149460000000  0.4456690000000  0.5331120000000 1.0
C      1  0.5100070000000  0.5220700000000  0.5673450000000 1.0
C      1  0.5114950000000  0.5621680000000  0.4969280000000 1.0
C      1  0.5060220000000  0.5255520000000  0.4318760000000 1.0
C      1  0.4840780000000  0.5229590000000  0.5553270000000 1.0
C      1  0.4837730000000  0.5610230000000  0.4940850000000 1.0
C      1  0.4795110000000  0.5185230000000  0.4370980000000 1.0
C      1  0.4852940000000  0.4523920000000  0.4624630000000 1.0
C      1  0.4892520000000  0.4581140000000  0.5335420000000 1.0
C      1  0.5366730000000  0.4999170000000  0.5209300000000 1.0
END
