TITL C-3578197-9521-246 -1.53606929117643e-06 125000 -1242.72183921696 0 0 198 (C1) n - 1
REM
REM in /home/bkarasulu/work/CARBON/AIRSS/Generating-Clusters/EDIP-Nigel-Params/with-SteepDescent/Higher-Symm/SD-CG/HFTN-CG
REM
REM
REM
REM
REM
REM ./C.cell (12c818d87b63d06a65506943cc24bca4)
REM
REM compiler GCC version 9.2.1 20190827 (Red Hat 9.2.1-1)
REM options -cpp -mtune=generic -march=x86-64 -g -O0 -fpre-include=/usr/include/finclude/math-vector-fortran.h
REM seed -712483037 -1611932681 -866736935 -447758774 -1998566382 -803858399 -667605641 -1789332112 -493008586 -572700673 33763128 -623646717 93664830 -1063172676 144061844 864615201 -892006947 -1757341003 1637127055 19171440 687828490 -401536087 -1638518184 -991694077 1335278061 649466390 -281333302 2127074457 1055726406 -998665944 684703489 2116889658 -537516265
REM
CELL 1.54180   50.00000   50.00000   50.00000   90.00000   90.00000   90.00000
LATT -1
SFAC C  
C      1  0.4205260000000  0.5055050000000  0.5783310000000 1.0
C      1  0.4200430000000  0.4965950000000  0.4211990000000 1.0
C      1  0.4725060000000  0.3852920000000  0.4816260000000 1.0
C      1  0.4738200000000  0.6165140000000  0.5164540000000 1.0
C      1  0.5528510000000  0.4372810000000  0.5581560000000 1.0
C      1  0.5373770000000  0.5527350000000  0.4491180000000 1.0
C      1  0.5972430000000  0.5540590000000  0.5133760000000 1.0
C      1  0.5970870000000  0.4472490000000  0.4870340000000 1.0
C      1  0.5411610000000  0.3947150000000  0.5471830000000 1.0
C      1  0.5368040000000  0.6001910000000  0.4559910000000 1.0
C      1  0.5296590000000  0.4194400000000  0.5547480000000 1.0
C      1  0.5192370000000  0.5760890000000  0.4578820000000 1.0
C      1  0.4990000000000  0.6194420000000  0.4997710000000 1.0
C      1  0.4960300000000  0.3807860000000  0.5002340000000 1.0
C      1  0.5958800000000  0.4746280000000  0.5272510000000 1.0
C      1  0.5973980000000  0.5248550000000  0.4737180000000 1.0
C      1  0.4045290000000  0.5345050000000  0.4465810000000 1.0
C      1  0.4035570000000  0.4673920000000  0.5538960000000 1.0
C      1  0.4995010000000  0.4506920000000  0.4560510000000 1.0
C      1  0.4987440000000  0.5513330000000  0.5394500000000 1.0
C      1  0.5810940000000  0.4040920000000  0.4791190000000 1.0
C      1  0.5744900000000  0.5930020000000  0.5190240000000 1.0
C      1  0.5910840000000  0.4213610000000  0.4988440000000 1.0
C      1  0.5910160000000  0.5796640000000  0.5010690000000 1.0
C      1  0.4476000000000  0.4272070000000  0.4757680000000 1.0
C      1  0.4493280000000  0.5743000000000  0.5227580000000 1.0
C      1  0.5237360000000  0.5664820000000  0.4090930000000 1.0
C      1  0.5308050000000  0.4373860000000  0.5987850000000 1.0
C      1  0.3945180000000  0.5393770000000  0.4740050000000 1.0
C      1  0.3940710000000  0.4619850000000  0.5261440000000 1.0
C      1  0.4635410000000  0.6064670000000  0.4693460000000 1.0
C      1  0.4597680000000  0.3941910000000  0.5281450000000 1.0
C      1  0.4823180000000  0.5279780000000  0.4694300000000 1.0
C      1  0.4811070000000  0.4688110000000  0.5326150000000 1.0
C      1  0.6071160000000  0.5326030000000  0.4471980000000 1.0
C      1  0.6073590000000  0.4666880000000  0.5529240000000 1.0
C      1  0.5659300000000  0.5102410000000  0.5105660000000 1.0
C      1  0.5651940000000  0.4870590000000  0.4911180000000 1.0
C      1  0.5079380000000  0.4743900000000  0.5448920000000 1.0
C      1  0.5083070000000  0.5214720000000  0.4571020000000 1.0
C      1  0.4518670000000  0.6138810000000  0.4958970000000 1.0
C      1  0.4495530000000  0.3863720000000  0.5008280000000 1.0
C      1  0.5250200000000  0.6107560000000  0.5123940000000 1.0
C      1  0.5220970000000  0.3912770000000  0.4904900000000 1.0
C      1  0.4767760000000  0.4622170000000  0.4137150000000 1.0
C      1  0.4778420000000  0.5376040000000  0.5826440000000 1.0
C      1  0.5294260000000  0.5147900000000  0.5519570000000 1.0
C      1  0.5327900000000  0.4818150000000  0.4471180000000 1.0
C      1  0.4076490000000  0.5550460000000  0.5460720000000 1.0
C      1  0.4063180000000  0.4465950000000  0.4531160000000 1.0
C      1  0.5907320000000  0.4803700000000  0.4498740000000 1.0
C      1  0.5896770000000  0.5206610000000  0.5507840000000 1.0
C      1  0.4497060000000  0.5676410000000  0.4653900000000 1.0
C      1  0.4523880000000  0.4250150000000  0.5299790000000 1.0
C      1  0.5675480000000  0.4170050000000  0.4583780000000 1.0
C      1  0.5602570000000  0.5793430000000  0.5397140000000 1.0
C      1  0.4828870000000  0.5294100000000  0.5226210000000 1.0
C      1  0.4814310000000  0.4751860000000  0.4760200000000 1.0
C      1  0.5512680000000  0.4865710000000  0.4132180000000 1.0
C      1  0.5488920000000  0.5124190000000  0.5852590000000 1.0
C      1  0.4320600000000  0.4610370000000  0.5603130000000 1.0
C      1  0.4341670000000  0.5408800000000  0.4414730000000 1.0
C      1  0.3950330000000  0.4498950000000  0.4796850000000 1.0
C      1  0.3955250000000  0.5517030000000  0.5200020000000 1.0
C      1  0.5716270000000  0.4954250000000  0.4321210000000 1.0
C      1  0.5737870000000  0.5048520000000  0.5716340000000 1.0
C      1  0.5326690000000  0.5566670000000  0.5736500000000 1.0
C      1  0.5333950000000  0.4423970000000  0.4227490000000 1.0
C      1  0.5249890000000  0.4629520000000  0.6113410000000 1.0
C      1  0.5165580000000  0.5477250000000  0.3889850000000 1.0
C      1  0.5838400000000  0.4321020000000  0.4412840000000 1.0
C      1  0.5802240000000  0.5695790000000  0.5585090000000 1.0
C      1  0.3974610000000  0.4960220000000  0.5613900000000 1.0
C      1  0.3977990000000  0.5063730000000  0.4386870000000 1.0
C      1  0.5271970000000  0.5441860000000  0.5469670000000 1.0
C      1  0.5294890000000  0.4525740000000  0.4502020000000 1.0
C      1  0.4892690000000  0.4383050000000  0.4298550000000 1.0
C      1  0.4890140000000  0.5618450000000  0.5665600000000 1.0
C      1  0.5944150000000  0.5542190000000  0.4346120000000 1.0
C      1  0.5951650000000  0.4452040000000  0.5663260000000 1.0
C      1  0.4345810000000  0.4701850000000  0.4985170000000 1.0
C      1  0.4348460000000  0.5301110000000  0.5015900000000 1.0
C      1  0.5203550000000  0.4100930000000  0.4671210000000 1.0
C      1  0.5232850000000  0.5920750000000  0.5361320000000 1.0
C      1  0.4997520000000  0.4380350000000  0.5040340000000 1.0
C      1  0.4996190000000  0.5686640000000  0.4893540000000 1.0
C      1  0.5385260000000  0.4941170000000  0.4744790000000 1.0
C      1  0.5442500000000  0.4999960000000  0.5304900000000 1.0
C      1  0.4599030000000  0.5467680000000  0.5082510000000 1.0
C      1  0.4591090000000  0.4545800000000  0.4904990000000 1.0
C      1  0.5930620000000  0.5494280000000  0.5430400000000 1.0
C      1  0.5944770000000  0.4521680000000  0.4576240000000 1.0
C      1  0.3789390000000  0.5195970000000  0.4884780000000 1.0
C      1  0.3788920000000  0.4820490000000  0.5115450000000 1.0
C      1  0.5028650000000  0.5279870000000  0.6016310000000 1.0
C      1  0.5047430000000  0.4734570000000  0.3949200000000 1.0
C      1  0.5466160000000  0.5556810000000  0.5286480000000 1.0
C      1  0.5432030000000  0.4309820000000  0.4688390000000 1.0
C      1  0.4127460000000  0.5504280000000  0.4943840000000 1.0
C      1  0.4123000000000  0.4503530000000  0.5055330000000 1.0
C      1  0.4883630000000  0.3886050000000  0.5280140000000 1.0
C      1  0.4929970000000  0.6088200000000  0.4725660000000 1.0
C      1  0.5506950000000  0.5290570000000  0.4626380000000 1.0
C      1  0.5512500000000  0.4713010000000  0.5388190000000 1.0
C      1  0.4545860000000  0.5907650000000  0.4344890000000 1.0
C      1  0.4590430000000  0.4088530000000  0.5644170000000 1.0
C      1  0.5558590000000  0.4410150000000  0.5864430000000 1.0
C      1  0.5466430000000  0.5576450000000  0.4228460000000 1.0
C      1  0.4900480000000  0.4870410000000  0.5914050000000 1.0
C      1  0.4899840000000  0.5127740000000  0.4068900000000 1.0
C      1  0.4718640000000  0.4123840000000  0.4667450000000 1.0
C      1  0.4733590000000  0.5900020000000  0.5318270000000 1.0
C      1  0.4722570000000  0.4850040000000  0.4351660000000 1.0
C      1  0.4731750000000  0.5132950000000  0.5621500000000 1.0
C      1  0.5128310000000  0.4221130000000  0.4199230000000 1.0
C      1  0.5122100000000  0.5770870000000  0.5776910000000 1.0
C      1  0.5627930000000  0.4608120000000  0.5114880000000 1.0
C      1  0.5640780000000  0.5371050000000  0.4894710000000 1.0
C      1  0.5944880000000  0.5774820000000  0.4494750000000 1.0
C      1  0.5877400000000  0.4224910000000  0.5507710000000 1.0
C      1  0.4668930000000  0.4467860000000  0.5867330000000 1.0
C      1  0.4653970000000  0.5509630000000  0.4113040000000 1.0
C      1  0.5185050000000  0.5443630000000  0.4886080000000 1.0
C      1  0.5188220000000  0.4630190000000  0.5104590000000 1.0
C      1  0.4312820000000  0.5713640000000  0.5466750000000 1.0
C      1  0.4297090000000  0.4300190000000  0.4519150000000 1.0
C      1  0.4289690000000  0.5120790000000  0.5253210000000 1.0
C      1  0.4291530000000  0.4880490000000  0.4743340000000 1.0
C      1  0.5025800000000  0.5750680000000  0.4306240000000 1.0
C      1  0.5098130000000  0.4211840000000  0.5776410000000 1.0
C      1  0.5933720000000  0.5051190000000  0.5254290000000 1.0
C      1  0.5935880000000  0.4944710000000  0.4757650000000 1.0
C      1  0.4273770000000  0.4678820000000  0.4292420000000 1.0
C      1  0.4292590000000  0.5330770000000  0.5686390000000 1.0
C      1  0.4698510000000  0.4167600000000  0.4364170000000 1.0
C      1  0.4710490000000  0.5848240000000  0.5622720000000 1.0
C      1  0.4454430000000  0.5743880000000  0.5721400000000 1.0
C      1  0.4440530000000  0.4266970000000  0.4265040000000 1.0
C      1  0.5317740000000  0.4659960000000  0.4053710000000 1.0
C      1  0.5308890000000  0.5342650000000  0.5925110000000 1.0
C      1  0.4448130000000  0.5136470000000  0.4284430000000 1.0
C      1  0.4442220000000  0.4866020000000  0.5716760000000 1.0
C      1  0.4732340000000  0.5541740000000  0.4817740000000 1.0
C      1  0.4735940000000  0.4452600000000  0.5158090000000 1.0
C      1  0.4249980000000  0.4251150000000  0.5160770000000 1.0
C      1  0.4261210000000  0.5747360000000  0.4829220000000 1.0
C      1  0.4421880000000  0.5648750000000  0.4225070000000 1.0
C      1  0.4447830000000  0.4357290000000  0.5716150000000 1.0
C      1  0.4980960000000  0.3802170000000  0.5530770000000 1.0
C      1  0.4942960000000  0.6181540000000  0.4455530000000 1.0
C      1  0.5815600000000  0.5830180000000  0.4735170000000 1.0
C      1  0.5761690000000  0.4206000000000  0.5244100000000 1.0
C      1  0.5706520000000  0.5248750000000  0.4390510000000 1.0
C      1  0.5719170000000  0.4752290000000  0.5638760000000 1.0
C      1  0.3988470000000  0.5055120000000  0.5316440000000 1.0
C      1  0.3992280000000  0.4960190000000  0.4682850000000 1.0
C      1  0.5165120000000  0.6009990000000  0.5628930000000 1.0
C      1  0.5171090000000  0.4013640000000  0.4391050000000 1.0
C      1  0.5026360000000  0.5080110000000  0.6224610000000 1.0
C      1  0.5077550000000  0.4958060000000  0.3765220000000 1.0
C      1  0.3808800000000  0.4757620000000  0.4823280000000 1.0
C      1  0.3809430000000  0.5259800000000  0.5176000000000 1.0
C      1  0.4716820000000  0.5048290000000  0.4857750000000 1.0
C      1  0.4698060000000  0.4934450000000  0.5231000000000 1.0
C      1  0.6189410000000  0.4891730000000  0.4908630000000 1.0
C      1  0.6187870000000  0.5115930000000  0.5105510000000 1.0
C      1  0.5435740000000  0.5574800000000  0.4998570000000 1.0
C      1  0.5434140000000  0.4375530000000  0.4994690000000 1.0
C      1  0.5042530000000  0.4940080000000  0.4438390000000 1.0
C      1  0.5020160000000  0.5028690000000  0.5518090000000 1.0
C      1  0.4921140000000  0.4436980000000  0.5726550000000 1.0
C      1  0.4859200000000  0.5514090000000  0.4319950000000 1.0
C      1  0.4324190000000  0.4089340000000  0.4935640000000 1.0
C      1  0.4343600000000  0.5919860000000  0.5043600000000 1.0
C      1  0.4429830000000  0.5119970000000  0.4804080000000 1.0
C      1  0.4420190000000  0.4869840000000  0.5212240000000 1.0
C      1  0.4971220000000  0.4277390000000  0.4751310000000 1.0
C      1  0.4992430000000  0.5760480000000  0.5227310000000 1.0
C      1  0.5024790000000  0.4795110000000  0.6182260000000 1.0
C      1  0.5025740000000  0.5241420000000  0.3816550000000 1.0
C      1  0.6121110000000  0.4649320000000  0.5044100000000 1.0
C      1  0.6131490000000  0.5361200000000  0.4966770000000 1.0
C      1  0.5400930000000  0.5910960000000  0.4937510000000 1.0
C      1  0.5330400000000  0.4096650000000  0.5118720000000 1.0
C      1  0.5060770000000  0.5305860000000  0.4271450000000 1.0
C      1  0.5082320000000  0.4670020000000  0.5760230000000 1.0
C      1  0.4613010000000  0.5223500000000  0.4057440000000 1.0
C      1  0.4625390000000  0.4757720000000  0.5922170000000 1.0
C      1  0.5580270000000  0.3977390000000  0.5238280000000 1.0
C      1  0.5601340000000  0.6025420000000  0.4735020000000 1.0
C      1  0.4468650000000  0.4524840000000  0.4105030000000 1.0
C      1  0.4486020000000  0.5480520000000  0.5873060000000 1.0
C      1  0.4468960000000  0.5226540000000  0.5472600000000 1.0
C      1  0.4455250000000  0.4764850000000  0.4510360000000 1.0
C      1  0.5129940000000  0.4903320000000  0.4926470000000 1.0
C      1  0.5076850000000  0.5202260000000  0.5048080000000 1.0
C      1  0.4878890000000  0.3996440000000  0.5711010000000 1.0
C      1  0.4833980000000  0.5984960000000  0.4277480000000 1.0
END
