TITL C-3577091-527-596 -2.81567381863138e-06 125000 -873.59191885146 0 0 141 (C1) n - 1
REM
REM in /home/bkarasulu/work/CARBON/AIRSS/Generating-Clusters/EDIP-Nigel-Params/with-SteepDescent/Higher-Symm/SD-CG/HFTN-CG
REM
REM
REM
REM
REM
REM ./C.cell (12c818d87b63d06a65506943cc24bca4)
REM
REM compiler GCC version 9.2.1 20190827 (Red Hat 9.2.1-1)
REM options -cpp -mtune=generic -march=x86-64 -g -O0 -fpre-include=/usr/include/finclude/math-vector-fortran.h
REM seed 720246097 -1940326402 -1843609585 -1914263512 -1619829366 679170353 -1702004324 1522268368 1764634989 759278226 -568387643 -469664753 721710094 109651002 -208772528 1504758413 1780629594 -1842814468 -1281339401 1417899442 -264478278 251631267 -1518569001 -880506918 -1564785067 1043822906 1805807979 -694285103 294183436 605338980 1702954007 -213772653 -1413139843
REM
CELL 1.54180   50.00000   50.00000   50.00000   90.00000   90.00000   90.00000
LATT -1
SFAC C  
C      1  0.4393120000000  0.5926210000000  0.5064200000000 1.0
C      1  0.4694160000000  0.5800320000000  0.5420310000000 1.0
C      1  0.4264510000000  0.4224410000000  0.5202200000000 1.0
C      1  0.5644440000000  0.4512560000000  0.5588560000000 1.0
C      1  0.4392100000000  0.5003170000000  0.5746800000000 1.0
C      1  0.5622550000000  0.5545910000000  0.5298320000000 1.0
C      1  0.5608320000000  0.4173000000000  0.5192140000000 1.0
C      1  0.5751160000000  0.5337630000000  0.5712380000000 1.0
C      1  0.5104570000000  0.4584810000000  0.5579380000000 1.0
C      1  0.5015210000000  0.3919690000000  0.5258180000000 1.0
C      1  0.4217490000000  0.5697450000000  0.5028260000000 1.0
C      1  0.4489200000000  0.5729130000000  0.4649220000000 1.0
C      1  0.6000600000000  0.5376310000000  0.5049290000000 1.0
C      1  0.4612030000000  0.4527870000000  0.5742200000000 1.0
C      1  0.4446620000000  0.4313150000000  0.4753490000000 1.0
C      1  0.5101120000000  0.4564130000000  0.3990280000000 1.0
C      1  0.5727400000000  0.5796260000000  0.4907790000000 1.0
C      1  0.4539010000000  0.4759400000000  0.5549310000000 1.0
C      1  0.5686420000000  0.4189210000000  0.4901880000000 1.0
C      1  0.5545750000000  0.4647840000000  0.4773960000000 1.0
C      1  0.4615150000000  0.3962230000000  0.5012610000000 1.0
C      1  0.4978050000000  0.4813700000000  0.5758760000000 1.0
C      1  0.5332080000000  0.4286970000000  0.5151240000000 1.0
C      1  0.5443840000000  0.4980330000000  0.5828990000000 1.0
C      1  0.5504200000000  0.4876730000000  0.5550820000000 1.0
C      1  0.4779080000000  0.4821130000000  0.5362730000000 1.0
C      1  0.5338280000000  0.5878310000000  0.5140990000000 1.0
C      1  0.4282030000000  0.4695400000000  0.4444150000000 1.0
C      1  0.4826800000000  0.4470250000000  0.4602130000000 1.0
C      1  0.5124240000000  0.4167030000000  0.5349560000000 1.0
C      1  0.5250920000000  0.5496160000000  0.4181630000000 1.0
C      1  0.5077800000000  0.5525230000000  0.5186200000000 1.0
C      1  0.5295380000000  0.5267800000000  0.5520820000000 1.0
C      1  0.4067130000000  0.4778540000000  0.5457830000000 1.0
C      1  0.4718950000000  0.5375070000000  0.5921530000000 1.0
C      1  0.5825940000000  0.4837370000000  0.5238630000000 1.0
C      1  0.5050110000000  0.4882260000000  0.4464030000000 1.0
C      1  0.5318590000000  0.4595390000000  0.5140080000000 1.0
C      1  0.4569170000000  0.5647510000000  0.4381880000000 1.0
C      1  0.5306550000000  0.4759440000000  0.4022120000000 1.0
C      1  0.4869020000000  0.5433250000000  0.5679870000000 1.0
C      1  0.4099400000000  0.4656580000000  0.4868080000000 1.0
C      1  0.5645250000000  0.5539250000000  0.4808520000000 1.0
C      1  0.5496040000000  0.4955680000000  0.4832590000000 1.0
C      1  0.4920250000000  0.4575660000000  0.4338520000000 1.0
C      1  0.4221150000000  0.4492850000000  0.4650000000000 1.0
C      1  0.4305300000000  0.4674660000000  0.5351570000000 1.0
C      1  0.5893530000000  0.4819400000000  0.4708790000000 1.0
C      1  0.4605520000000  0.4166460000000  0.4547550000000 1.0
C      1  0.5118320000000  0.4378380000000  0.4212870000000 1.0
C      1  0.5022620000000  0.5934690000000  0.4745410000000 1.0
C      1  0.5373940000000  0.4416950000000  0.4352730000000 1.0
C      1  0.5365040000000  0.4160620000000  0.4817670000000 1.0
C      1  0.4613680000000  0.4834430000000  0.4185430000000 1.0
C      1  0.5217010000000  0.5149500000000  0.4448690000000 1.0
C      1  0.6132050000000  0.5245700000000  0.4834420000000 1.0
C      1  0.4698340000000  0.5285210000000  0.5231910000000 1.0
C      1  0.4654450000000  0.5505300000000  0.5468500000000 1.0
C      1  0.5212980000000  0.4135110000000  0.5638390000000 1.0
C      1  0.5264560000000  0.5555240000000  0.5429300000000 1.0
C      1  0.5179540000000  0.5300720000000  0.5045030000000 1.0
C      1  0.5793260000000  0.4481760000000  0.4872290000000 1.0
C      1  0.4948440000000  0.4168520000000  0.5796660000000 1.0
C      1  0.4954010000000  0.5905540000000  0.5520930000000 1.0
C      1  0.4397240000000  0.4130760000000  0.4979210000000 1.0
C      1  0.4468520000000  0.5289330000000  0.5811970000000 1.0
C      1  0.5070830000000  0.4674660000000  0.4982790000000 1.0
C      1  0.4136010000000  0.5023510000000  0.5589610000000 1.0
C      1  0.4176150000000  0.5348900000000  0.4693240000000 1.0
C      1  0.5784240000000  0.4791910000000  0.5528210000000 1.0
C      1  0.5186280000000  0.4926930000000  0.5915570000000 1.0
C      1  0.4220500000000  0.5252490000000  0.5404600000000 1.0
C      1  0.4731690000000  0.4287050000000  0.5611300000000 1.0
C      1  0.5306910000000  0.5112980000000  0.5240920000000 1.0
C      1  0.5701590000000  0.5365780000000  0.5050030000000 1.0
C      1  0.5655640000000  0.5154330000000  0.4404410000000 1.0
C      1  0.5294670000000  0.4709310000000  0.5408880000000 1.0
C      1  0.4822290000000  0.4610150000000  0.5152420000000 1.0
C      1  0.4918180000000  0.5085750000000  0.5326330000000 1.0
C      1  0.4877900000000  0.5712200000000  0.5029640000000 1.0
C      1  0.5848680000000  0.5452830000000  0.5480580000000 1.0
C      1  0.4716130000000  0.5234950000000  0.4467050000000 1.0
C      1  0.5481060000000  0.4663760000000  0.4234890000000 1.0
C      1  0.4272340000000  0.5224240000000  0.4449140000000 1.0
C      1  0.6080360000000  0.4964190000000  0.5178620000000 1.0
C      1  0.5015290000000  0.5173790000000  0.5600010000000 1.0
C      1  0.4804870000000  0.4997590000000  0.4317230000000 1.0
C      1  0.5339020000000  0.4429960000000  0.4657360000000 1.0
C      1  0.4014580000000  0.5335560000000  0.5187380000000 1.0
C      1  0.5488940000000  0.5259520000000  0.5762450000000 1.0
C      1  0.4826490000000  0.4617550000000  0.5928670000000 1.0
C      1  0.4892990000000  0.3947920000000  0.5015380000000 1.0
C      1  0.4918400000000  0.4395060000000  0.5401450000000 1.0
C      1  0.4994070000000  0.5229270000000  0.4830850000000 1.0
C      1  0.5270590000000  0.5821320000000  0.4858370000000 1.0
C      1  0.4971200000000  0.5122250000000  0.3929580000000 1.0
C      1  0.5308320000000  0.4409560000000  0.5734610000000 1.0
C      1  0.5018280000000  0.5379010000000  0.4533150000000 1.0
C      1  0.4730190000000  0.5318180000000  0.4930740000000 1.0
C      1  0.5067400000000  0.4482700000000  0.4766820000000 1.0
C      1  0.4376060000000  0.5450140000000  0.5580150000000 1.0
C      1  0.5121980000000  0.6040510000000  0.5294390000000 1.0
C      1  0.5229290000000  0.5040230000000  0.4018600000000 1.0
C      1  0.4959140000000  0.5523190000000  0.4119890000000 1.0
C      1  0.4439840000000  0.5146160000000  0.5245540000000 1.0
C      1  0.5853850000000  0.4557280000000  0.5148680000000 1.0
C      1  0.5361310000000  0.5547840000000  0.4727520000000 1.0
C      1  0.5042660000000  0.5814990000000  0.4477020000000 1.0
C      1  0.4688470000000  0.4858070000000  0.4754950000000 1.0
C      1  0.4257430000000  0.5610660000000  0.4761960000000 1.0
C      1  0.4348220000000  0.5043560000000  0.4996390000000 1.0
C      1  0.3994980000000  0.4917190000000  0.4751630000000 1.0
C      1  0.5289420000000  0.5658190000000  0.4435870000000 1.0
C      1  0.4974550000000  0.4917720000000  0.4765860000000 1.0
C      1  0.4081740000000  0.5171080000000  0.4916040000000 1.0
C      1  0.5584800000000  0.5058440000000  0.5097740000000 1.0
C      1  0.4597200000000  0.4632540000000  0.4928840000000 1.0
C      1  0.4782570000000  0.5317870000000  0.4014730000000 1.0
C      1  0.6090980000000  0.4975000000000  0.4884450000000 1.0
C      1  0.4888200000000  0.6028280000000  0.5098950000000 1.0
C      1  0.5753690000000  0.4724530000000  0.4250780000000 1.0
C      1  0.4599770000000  0.5918120000000  0.4852280000000 1.0
C      1  0.4551960000000  0.5124630000000  0.4774080000000 1.0
C      1  0.4417290000000  0.4648980000000  0.4203950000000 1.0
C      1  0.4516340000000  0.5370710000000  0.4276230000000 1.0
C      1  0.4149150000000  0.4950040000000  0.4494170000000 1.0
C      1  0.5010300000000  0.4393290000000  0.5975430000000 1.0
C      1  0.4504860000000  0.5976910000000  0.5312390000000 1.0
C      1  0.5464090000000  0.5182620000000  0.4629280000000 1.0
C      1  0.4886580000000  0.4095430000000  0.4559430000000 1.0
C      1  0.5052790000000  0.4039470000000  0.4790670000000 1.0
C      1  0.5629630000000  0.5823030000000  0.5176480000000 1.0
C      1  0.4839060000000  0.5711430000000  0.4301600000000 1.0
C      1  0.5084280000000  0.5667680000000  0.5647960000000 1.0
C      1  0.3990410000000  0.5614510000000  0.5167000000000 1.0
C      1  0.5415800000000  0.5244360000000  0.4129480000000 1.0
C      1  0.4333030000000  0.4742040000000  0.5042010000000 1.0
C      1  0.5836580000000  0.4923090000000  0.4428480000000 1.0
C      1  0.6058320000000  0.5309230000000  0.5326690000000 1.0
C      1  0.5765400000000  0.4365120000000  0.5349440000000 1.0
C      1  0.4206360000000  0.4413820000000  0.5388900000000 1.0
END
