TITL C-3577087-600-377 4.32585302839932e-07 125000 -1129.42403497839 0 0 181 (C1) n - 1
REM
REM in /home/bkarasulu/work/CARBON/AIRSS/Generating-Clusters/EDIP-Nigel-Params/with-SteepDescent/Higher-Symm/SD-CG/HFTN-CG
REM
REM
REM
REM
REM
REM ./C.cell (12c818d87b63d06a65506943cc24bca4)
REM
REM compiler GCC version 9.2.1 20190827 (Red Hat 9.2.1-1)
REM options -cpp -mtune=generic -march=x86-64 -g -O0 -fpre-include=/usr/include/finclude/math-vector-fortran.h
REM seed 1643961501 1164061369 1599663584 -635870937 -1661171785 1191763519 -320024845 -1971400166 114212813 492085830 855440978 -1168062699 1697143686 -1952933863 -1016108944 -2046490813 799973502 1635900951 -1746517601 1260789780 246331221 -1439952702 -884164414 1311714259 -887836302 -2051355971 386903360 709161328 -1924905693 -1495902862 -1121522776 1994183962 1784626122
REM
CELL 1.54180   50.00000   50.00000   50.00000   90.00000   90.00000   90.00000
LATT -1
SFAC C  
C      1  0.5281790000000  0.5866080000000  0.5265660000000 1.0
C      1  0.5305420000000  0.5584880000000  0.5924390000000 1.0
C      1  0.5282750000000  0.5030970000000  0.5954090000000 1.0
C      1  0.5366280000000  0.4140760000000  0.5795660000000 1.0
C      1  0.5308590000000  0.4054110000000  0.5091550000000 1.0
C      1  0.5262650000000  0.4136210000000  0.4462580000000 1.0
C      1  0.5239160000000  0.4836670000000  0.4069470000000 1.0
C      1  0.5267390000000  0.5343310000000  0.4059380000000 1.0
C      1  0.5198250000000  0.5796910000000  0.4600860000000 1.0
C      1  0.4963300000000  0.4755400000000  0.6231080000000 1.0
C      1  0.4880690000000  0.3988190000000  0.5745570000000 1.0
C      1  0.4915190000000  0.3774690000000  0.4982700000000 1.0
C      1  0.4939900000000  0.3949670000000  0.4124740000000 1.0
C      1  0.4914220000000  0.4892210000000  0.3684220000000 1.0
C      1  0.4920500000000  0.5708330000000  0.3912060000000 1.0
C      1  0.4919490000000  0.6180580000000  0.4711920000000 1.0
C      1  0.4937950000000  0.6129510000000  0.5581260000000 1.0
C      1  0.4901010000000  0.5534610000000  0.6194320000000 1.0
C      1  0.4209010000000  0.4309370000000  0.4599110000000 1.0
C      1  0.4175820000000  0.4632520000000  0.4193110000000 1.0
C      1  0.4130950000000  0.5227500000000  0.4292830000000 1.0
C      1  0.4208210000000  0.5551560000000  0.4653530000000 1.0
C      1  0.4159360000000  0.5764850000000  0.5114470000000 1.0
C      1  0.4200520000000  0.5537420000000  0.5531350000000 1.0
C      1  0.4212600000000  0.5077540000000  0.5767410000000 1.0
C      1  0.4184890000000  0.4601120000000  0.5578950000000 1.0
C      1  0.4196040000000  0.4363340000000  0.5137890000000 1.0
C      1  0.4825760000000  0.4477850000000  0.4156470000000 1.0
C      1  0.4821340000000  0.5155070000000  0.4076640000000 1.0
C      1  0.4680800000000  0.5726030000000  0.4406010000000 1.0
C      1  0.4695190000000  0.5802710000000  0.5139940000000 1.0
C      1  0.4806360000000  0.5872370000000  0.5701210000000 1.0
C      1  0.4840370000000  0.5176560000000  0.5821600000000 1.0
C      1  0.4925990000000  0.4554270000000  0.5760310000000 1.0
C      1  0.4873910000000  0.4294750000000  0.5325570000000 1.0
C      1  0.4724390000000  0.4149650000000  0.4636660000000 1.0
C      1  0.5712160000000  0.4283370000000  0.5219180000000 1.0
C      1  0.5693910000000  0.4297160000000  0.4678160000000 1.0
C      1  0.5635400000000  0.4696080000000  0.4380220000000 1.0
C      1  0.5697900000000  0.5220500000000  0.4257370000000 1.0
C      1  0.5718570000000  0.5640250000000  0.4621390000000 1.0
C      1  0.5735090000000  0.5723920000000  0.5127110000000 1.0
C      1  0.5716800000000  0.5488060000000  0.5593180000000 1.0
C      1  0.5798400000000  0.5042510000000  0.5863950000000 1.0
C      1  0.5728500000000  0.4510730000000  0.5672480000000 1.0
C      1  0.5538180000000  0.5916330000000  0.5171310000000 1.0
C      1  0.5529490000000  0.5645950000000  0.5750490000000 1.0
C      1  0.5553380000000  0.5065880000000  0.5989470000000 1.0
C      1  0.5578460000000  0.4335480000000  0.5860070000000 1.0
C      1  0.5473960000000  0.4151900000000  0.5304630000000 1.0
C      1  0.5521580000000  0.4104830000000  0.4565970000000 1.0
C      1  0.5392030000000  0.4618550000000  0.4220740000000 1.0
C      1  0.5542730000000  0.5309130000000  0.4042330000000 1.0
C      1  0.5472470000000  0.5764970000000  0.4582660000000 1.0
C      1  0.4809490000000  0.4404520000000  0.4533290000000 1.0
C      1  0.4742900000000  0.4747830000000  0.4247160000000 1.0
C      1  0.4700910000000  0.5299320000000  0.4283220000000 1.0
C      1  0.4724830000000  0.5609530000000  0.4671250000000 1.0
C      1  0.4869270000000  0.5578460000000  0.5281690000000 1.0
C      1  0.4892730000000  0.5597580000000  0.5595210000000 1.0
C      1  0.4709830000000  0.4988740000000  0.5647760000000 1.0
C      1  0.5077390000000  0.4457250000000  0.5508250000000 1.0
C      1  0.4872440000000  0.4376320000000  0.5027340000000 1.0
C      1  0.4322790000000  0.5756250000000  0.5373540000000 1.0
C      1  0.4393030000000  0.5338980000000  0.5648380000000 1.0
C      1  0.4329080000000  0.4793270000000  0.5757110000000 1.0
C      1  0.4369360000000  0.4484410000000  0.5369570000000 1.0
C      1  0.4339730000000  0.4271360000000  0.4885900000000 1.0
C      1  0.4341800000000  0.4406010000000  0.4331440000000 1.0
C      1  0.4299390000000  0.4938300000000  0.4175760000000 1.0
C      1  0.4260430000000  0.5496930000000  0.4336060000000 1.0
C      1  0.4292030000000  0.5785690000000  0.4842190000000 1.0
C      1  0.4480800000000  0.5958120000000  0.5531240000000 1.0
C      1  0.4685870000000  0.5430670000000  0.5770260000000 1.0
C      1  0.4674140000000  0.4742660000000  0.5814740000000 1.0
C      1  0.4607710000000  0.4313420000000  0.5463420000000 1.0
C      1  0.4635830000000  0.4173650000000  0.4911240000000 1.0
C      1  0.4578840000000  0.4290010000000  0.4174210000000 1.0
C      1  0.4615560000000  0.4916910000000  0.4051190000000 1.0
C      1  0.4549040000000  0.5540730000000  0.4223370000000 1.0
C      1  0.4590030000000  0.5819060000000  0.4854020000000 1.0
C      1  0.4827970000000  0.5102350000000  0.6116060000000 1.0
C      1  0.4822520000000  0.4329490000000  0.5915090000000 1.0
C      1  0.4871120000000  0.3978500000000  0.5312690000000 1.0
C      1  0.4781770000000  0.3911570000000  0.4472590000000 1.0
C      1  0.4868590000000  0.4542610000000  0.3851320000000 1.0
C      1  0.4816840000000  0.5344160000000  0.3839520000000 1.0
C      1  0.4714320000000  0.6019310000000  0.4421740000000 1.0
C      1  0.4774680000000  0.6076870000000  0.5179990000000 1.0
C      1  0.4787350000000  0.5853240000000  0.6001280000000 1.0
C      1  0.4836250000000  0.5007310000000  0.5372700000000 1.0
C      1  0.4735970000000  0.4787560000000  0.5199180000000 1.0
C      1  0.4851090000000  0.4677640000000  0.4956070000000 1.0
C      1  0.4695080000000  0.4665080000000  0.4696200000000 1.0
C      1  0.4772130000000  0.4873650000000  0.4503180000000 1.0
C      1  0.4653600000000  0.5138150000000  0.4502220000000 1.0
C      1  0.4626040000000  0.5309860000000  0.4726860000000 1.0
C      1  0.4816670000000  0.5215230000000  0.4928090000000 1.0
C      1  0.4763330000000  0.5275860000000  0.5217710000000 1.0
C      1  0.4279270000000  0.4775560000000  0.4997070000000 1.0
C      1  0.4394720000000  0.4683120000000  0.4742100000000 1.0
C      1  0.4241550000000  0.4852140000000  0.4554060000000 1.0
C      1  0.4139320000000  0.5078860000000  0.4707410000000 1.0
C      1  0.4333250000000  0.5301300000000  0.4786940000000 1.0
C      1  0.4292240000000  0.5345640000000  0.5062410000000 1.0
C      1  0.4464630000000  0.5272890000000  0.5292660000000 1.0
C      1  0.4369760000000  0.5001160000000  0.5367010000000 1.0
C      1  0.4454690000000  0.4751840000000  0.5232970000000 1.0
C      1  0.5016890000000  0.5592630000000  0.4703330000000 1.0
C      1  0.5148410000000  0.5620120000000  0.5186580000000 1.0
C      1  0.5185260000000  0.5468850000000  0.5677040000000 1.0
C      1  0.5132270000000  0.5165320000000  0.5728910000000 1.0
C      1  0.5358380000000  0.4304270000000  0.5541170000000 1.0
C      1  0.5157840000000  0.4339270000000  0.4908540000000 1.0
C      1  0.5114820000000  0.4361230000000  0.4591780000000 1.0
C      1  0.5141920000000  0.4651660000000  0.4402500000000 1.0
C      1  0.5127640000000  0.5116220000000  0.4191760000000 1.0
C      1  0.5971640000000  0.4573560000000  0.4967670000000 1.0
C      1  0.6019890000000  0.4668670000000  0.4667860000000 1.0
C      1  0.5948390000000  0.4969420000000  0.4571820000000 1.0
C      1  0.6047650000000  0.5272770000000  0.4617820000000 1.0
C      1  0.6064330000000  0.5426260000000  0.4877580000000 1.0
C      1  0.5972090000000  0.5340260000000  0.5220240000000 1.0
C      1  0.6061820000000  0.5164430000000  0.5457580000000 1.0
C      1  0.5969950000000  0.4870420000000  0.5453850000000 1.0
C      1  0.6036930000000  0.4618150000000  0.5280130000000 1.0
C      1  0.5639930000000  0.4898500000000  0.5481590000000 1.0
C      1  0.5512970000000  0.4657430000000  0.5354520000000 1.0
C      1  0.5608930000000  0.4678260000000  0.5058370000000 1.0
C      1  0.5510810000000  0.4778360000000  0.4638980000000 1.0
C      1  0.5681660000000  0.4993870000000  0.4720500000000 1.0
C      1  0.5526920000000  0.5249580000000  0.4657250000000 1.0
C      1  0.5531230000000  0.5384140000000  0.4932690000000 1.0
C      1  0.5704840000000  0.5210730000000  0.5125230000000 1.0
C      1  0.5543010000000  0.5153520000000  0.5358670000000 1.0
C      1  0.5117620000000  0.5004710000000  0.6190620000000 1.0
C      1  0.5106890000000  0.4076470000000  0.5909160000000 1.0
C      1  0.5120870000000  0.3855980000000  0.5174310000000 1.0
C      1  0.5098490000000  0.3910510000000  0.4373830000000 1.0
C      1  0.5118230000000  0.4729560000000  0.3817260000000 1.0
C      1  0.5104620000000  0.5477840000000  0.3853410000000 1.0
C      1  0.5084190000000  0.6047690000000  0.4524000000000 1.0
C      1  0.5116360000000  0.6089430000000  0.5346080000000 1.0
C      1  0.5121280000000  0.5699230000000  0.6114480000000 1.0
C      1  0.4030540000000  0.4629790000000  0.5114890000000 1.0
C      1  0.3956910000000  0.4436950000000  0.4594720000000 1.0
C      1  0.4005220000000  0.4673110000000  0.4444220000000 1.0
C      1  0.3937280000000  0.5215850000000  0.4544210000000 1.0
C      1  0.3921330000000  0.5465470000000  0.4730820000000 1.0
C      1  0.4030030000000  0.5486030000000  0.5086620000000 1.0
C      1  0.3994990000000  0.5366760000000  0.5386330000000 1.0
C      1  0.4081730000000  0.5051790000000  0.5467550000000 1.0
C      1  0.3980200000000  0.4744360000000  0.5402900000000 1.0
C      1  0.4664100000000  0.5573650000000  0.6033030000000 1.0
C      1  0.4702970000000  0.4819490000000  0.6105940000000 1.0
C      1  0.4637500000000  0.4169640000000  0.5722480000000 1.0
C      1  0.4675000000000  0.3919100000000  0.5064920000000 1.0
C      1  0.4654120000000  0.3999250000000  0.4192290000000 1.0
C      1  0.4664190000000  0.4781260000000  0.3788610000000 1.0
C      1  0.4642460000000  0.5597070000000  0.3935650000000 1.0
C      1  0.4647540000000  0.6085540000000  0.4717920000000 1.0
C      1  0.4658170000000  0.6178500000000  0.5428720000000 1.0
C      1  0.5817120000000  0.4316110000000  0.4945860000000 1.0
C      1  0.5827480000000  0.4494910000000  0.4505180000000 1.0
C      1  0.5807630000000  0.4947850000000  0.4290010000000 1.0
C      1  0.5828790000000  0.5408840000000  0.4457070000000 1.0
C      1  0.5872140000000  0.5656370000000  0.4871550000000 1.0
C      1  0.5854700000000  0.5584390000000  0.5350370000000 1.0
C      1  0.5891750000000  0.5265450000000  0.5688160000000 1.0
C      1  0.5896090000000  0.4773400000000  0.5753690000000 1.0
C      1  0.5870610000000  0.4412650000000  0.5422460000000 1.0
C      1  0.5277130000000  0.5154360000000  0.5257500000000 1.0
C      1  0.5124790000000  0.4988350000000  0.5440860000000 1.0
C      1  0.5208660000000  0.4692600000000  0.5371740000000 1.0
C      1  0.5298930000000  0.4603460000000  0.4988380000000 1.0
C      1  0.5116520000000  0.4805070000000  0.4895020000000 1.0
C      1  0.5227600000000  0.4853250000000  0.4623810000000 1.0
C      1  0.5224640000000  0.5154740000000  0.4556980000000 1.0
C      1  0.5077930000000  0.5320800000000  0.4809950000000 1.0
C      1  0.5258010000000  0.5374400000000  0.5051750000000 1.0
C      1  0.5738740000000  0.4948640000000  0.4995010000000 1.0
END
