TITL C-3577089-586-719 -8.42594698009532e-06 125000 -862.729070355099 0 0 139 (C1) n - 1
REM
REM in /home/bkarasulu/work/CARBON/AIRSS/Generating-Clusters/EDIP-Nigel-Params/with-SteepDescent/Higher-Symm/SD-CG/HFTN-CG
REM
REM
REM
REM
REM
REM ./C.cell (12c818d87b63d06a65506943cc24bca4)
REM
REM compiler GCC version 9.2.1 20190827 (Red Hat 9.2.1-1)
REM options -cpp -mtune=generic -march=x86-64 -g -O0 -fpre-include=/usr/include/finclude/math-vector-fortran.h
REM seed -963567211 1284616035 -902961715 -612271410 -1129594264 -1037646008 1504935644 -2123800904 -1534175421 -858385939 -1564996092 -903655413 1189024424 1256064229 1825702894 435444320 -1595933030 1107044451 -463940984 1308552426 321989615 -2052496514 -1815795200 -1444940854 -1485316398 1117595074 743201011 887363102 2113916662 705915270 783017601 1992846277 -1667096034
REM
CELL 1.54180   50.00000   50.00000   50.00000   90.00000   90.00000   90.00000
LATT -1
SFAC C  
C      1  0.5522460000000  0.5053720000000  0.4765840000000 1.0
C      1  0.5539990000000  0.5080880000000  0.5255320000000 1.0
C      1  0.5137390000000  0.5047560000000  0.5551200000000 1.0
C      1  0.4658280000000  0.5079010000000  0.5422730000000 1.0
C      1  0.4446540000000  0.5081270000000  0.4991350000000 1.0
C      1  0.4662440000000  0.5056560000000  0.4559290000000 1.0
C      1  0.5135140000000  0.5091160000000  0.4472540000000 1.0
C      1  0.4992970000000  0.4091930000000  0.5357430000000 1.0
C      1  0.4797760000000  0.3929070000000  0.5163860000000 1.0
C      1  0.4637090000000  0.4082200000000  0.4922510000000 1.0
C      1  0.4855840000000  0.3973860000000  0.4727200000000 1.0
C      1  0.5143240000000  0.4153410000000  0.4715310000000 1.0
C      1  0.5264530000000  0.3931790000000  0.5013860000000 1.0
C      1  0.5291650000000  0.4078410000000  0.5271470000000 1.0
C      1  0.4189020000000  0.4635140000000  0.5338020000000 1.0
C      1  0.4250660000000  0.4621210000000  0.4615140000000 1.0
C      1  0.4836520000000  0.4635870000000  0.4173470000000 1.0
C      1  0.5551810000000  0.4631130000000  0.4366980000000 1.0
C      1  0.5880600000000  0.4627650000000  0.5032920000000 1.0
C      1  0.5493890000000  0.4617350000000  0.5669600000000 1.0
C      1  0.4741540000000  0.4640640000000  0.5826000000000 1.0
C      1  0.4775510000000  0.4849490000000  0.6022900000000 1.0
C      1  0.4045830000000  0.4844300000000  0.5474650000000 1.0
C      1  0.4038410000000  0.4813340000000  0.4578810000000 1.0
C      1  0.4722380000000  0.4825510000000  0.3988250000000 1.0
C      1  0.5623650000000  0.4817510000000  0.4162690000000 1.0
C      1  0.6080950000000  0.4821880000000  0.4961240000000 1.0
C      1  0.5677140000000  0.4795660000000  0.5806420000000 1.0
C      1  0.6056920000000  0.4937590000000  0.4697130000000 1.0
C      1  0.5889300000000  0.4922670000000  0.5648860000000 1.0
C      1  0.5046490000000  0.4932350000000  0.6071110000000 1.0
C      1  0.4171880000000  0.4943040000000  0.5715060000000 1.0
C      1  0.3910210000000  0.4924940000000  0.4810060000000 1.0
C      1  0.4459190000000  0.4925620000000  0.4038040000000 1.0
C      1  0.5404580000000  0.4929000000000  0.4016400000000 1.0
C      1  0.4755310000000  0.5361600000000  0.5322810000000 1.0
C      1  0.4591160000000  0.5363760000000  0.5013440000000 1.0
C      1  0.4732770000000  0.5352690000000  0.4671680000000 1.0
C      1  0.5062180000000  0.5376650000000  0.4584210000000 1.0
C      1  0.5385920000000  0.5342430000000  0.4828050000000 1.0
C      1  0.5393990000000  0.5346210000000  0.5169540000000 1.0
C      1  0.5117600000000  0.5343090000000  0.5396280000000 1.0
C      1  0.5291380000000  0.5875820000000  0.5141760000000 1.0
C      1  0.5068800000000  0.5871500000000  0.5321970000000 1.0
C      1  0.4788050000000  0.5872610000000  0.5262000000000 1.0
C      1  0.4660590000000  0.5871590000000  0.5003790000000 1.0
C      1  0.4783170000000  0.5874580000000  0.4743150000000 1.0
C      1  0.5062770000000  0.5880320000000  0.4675420000000 1.0
C      1  0.5288330000000  0.5877800000000  0.4854990000000 1.0
C      1  0.5232160000000  0.4582580000000  0.5794720000000 1.0
C      1  0.4479470000000  0.4620390000000  0.5716530000000 1.0
C      1  0.4117190000000  0.4577830000000  0.5070380000000 1.0
C      1  0.4403550000000  0.4582600000000  0.4379320000000 1.0
C      1  0.5119580000000  0.4616230000000  0.4154410000000 1.0
C      1  0.5755080000000  0.4594540000000  0.4563610000000 1.0
C      1  0.5830340000000  0.4596870000000  0.5312260000000 1.0
C      1  0.4558440000000  0.5213360000000  0.5894490000000 1.0
C      1  0.4039850000000  0.5202030000000  0.5214340000000 1.0
C      1  0.4237390000000  0.5204030000000  0.4389400000000 1.0
C      1  0.5002490000000  0.5219820000000  0.4019170000000 1.0
C      1  0.5766490000000  0.5223380000000  0.4395920000000 1.0
C      1  0.5963060000000  0.5218260000000  0.5240020000000 1.0
C      1  0.5426090000000  0.5214630000000  0.5887970000000 1.0
C      1  0.4440660000000  0.4548930000000  0.5438900000000 1.0
C      1  0.4317560000000  0.4497290000000  0.4872310000000 1.0
C      1  0.4686400000000  0.4536550000000  0.4404570000000 1.0
C      1  0.5277090000000  0.4532570000000  0.4379910000000 1.0
C      1  0.5686860000000  0.4542940000000  0.4836170000000 1.0
C      1  0.5572050000000  0.4508980000000  0.5409700000000 1.0
C      1  0.4964020000000  0.4514570000000  0.5687790000000 1.0
C      1  0.4264930000000  0.5458940000000  0.4534560000000 1.0
C      1  0.4899740000000  0.5472630000000  0.4129100000000 1.0
C      1  0.5610270000000  0.5473130000000  0.4399380000000 1.0
C      1  0.5871010000000  0.5470470000000  0.5112630000000 1.0
C      1  0.5460850000000  0.5468380000000  0.5742730000000 1.0
C      1  0.4712570000000  0.5445410000000  0.5808600000000 1.0
C      1  0.4177650000000  0.5458470000000  0.5282640000000 1.0
C      1  0.5333990000000  0.4810510000000  0.4855300000000 1.0
C      1  0.5398470000000  0.4831090000000  0.5166040000000 1.0
C      1  0.5185580000000  0.4720650000000  0.5377370000000 1.0
C      1  0.4798040000000  0.4884660000000  0.5242750000000 1.0
C      1  0.4646660000000  0.4864600000000  0.4997890000000 1.0
C      1  0.4801300000000  0.4837500000000  0.4742620000000 1.0
C      1  0.5087660000000  0.4904380000000  0.4702650000000 1.0
C      1  0.4309620000000  0.4713950000000  0.4149110000000 1.0
C      1  0.5234470000000  0.4725230000000  0.3922290000000 1.0
C      1  0.5994210000000  0.4732440000000  0.4514040000000 1.0
C      1  0.6008060000000  0.4727470000000  0.5484580000000 1.0
C      1  0.5221880000000  0.4715290000000  0.6041190000000 1.0
C      1  0.4270660000000  0.4729680000000  0.5869710000000 1.0
C      1  0.3882920000000  0.4711000000000  0.4990480000000 1.0
C      1  0.4556820000000  0.5538270000000  0.4493610000000 1.0
C      1  0.5105850000000  0.5556710000000  0.4339130000000 1.0
C      1  0.5588500000000  0.5542920000000  0.4695910000000 1.0
C      1  0.5618190000000  0.5543450000000  0.5266200000000 1.0
C      1  0.5182260000000  0.5536070000000  0.5638130000000 1.0
C      1  0.4611580000000  0.5537830000000  0.5535810000000 1.0
C      1  0.4333130000000  0.5540050000000  0.5031340000000 1.0
C      1  0.5000760000000  0.5423090000000  0.5843690000000 1.0
C      1  0.4337700000000  0.5422610000000  0.5527290000000 1.0
C      1  0.4172950000000  0.5419650000000  0.4810470000000 1.0
C      1  0.4626350000000  0.5426660000000  0.4226660000000 1.0
C      1  0.5360990000000  0.5434680000000  0.4246380000000 1.0
C      1  0.5838810000000  0.5437100000000  0.4820080000000 1.0
C      1  0.5669550000000  0.5435120000000  0.5540290000000 1.0
C      1  0.5142360000000  0.5195240000000  0.5968730000000 1.0
C      1  0.4337000000000  0.5188900000000  0.5708750000000 1.0
C      1  0.4022540000000  0.5182920000000  0.4918570000000 1.0
C      1  0.4453790000000  0.5183470000000  0.4189900000000 1.0
C      1  0.5292130000000  0.5201890000000  0.4071580000000 1.0
C      1  0.5922010000000  0.5203710000000  0.4647910000000 1.0
C      1  0.5864890000000  0.5203360000000  0.5523660000000 1.0
C      1  0.4612430000000  0.5820810000000  0.4529660000000 1.0
C      1  0.5119970000000  0.5839290000000  0.4405210000000 1.0
C      1  0.5536040000000  0.5824190000000  0.4741670000000 1.0
C      1  0.5539630000000  0.5822200000000  0.5256100000000 1.0
C      1  0.5136170000000  0.5817410000000  0.5585990000000 1.0
C      1  0.4623470000000  0.5823080000000  0.5481490000000 1.0
C      1  0.4385800000000  0.5824350000000  0.5005580000000 1.0
C      1  0.4656360000000  0.4466360000000  0.5257830000000 1.0
C      1  0.4606560000000  0.4395030000000  0.4943560000000 1.0
C      1  0.4810020000000  0.4537920000000  0.4678570000000 1.0
C      1  0.5142240000000  0.4471000000000  0.4644590000000 1.0
C      1  0.5422210000000  0.4433650000000  0.4907070000000 1.0
C      1  0.5385310000000  0.4371170000000  0.5215600000000 1.0
C      1  0.4908090000000  0.4388650000000  0.5412590000000 1.0
C      1  0.4338230000000  0.5044790000000  0.4646500000000 1.0
C      1  0.4867570000000  0.5056490000000  0.4260070000000 1.0
C      1  0.5491540000000  0.5057090000000  0.4433690000000 1.0
C      1  0.5781890000000  0.5052190000000  0.5028440000000 1.0
C      1  0.5467520000000  0.5051310000000  0.5617580000000 1.0
C      1  0.4830620000000  0.5045730000000  0.5697780000000 1.0
C      1  0.4316490000000  0.5050170000000  0.5293560000000 1.0
C      1  0.5016060000000  0.5485630000000  0.4987560000000 1.0
C      1  0.5006960000000  0.5226560000000  0.4990370000000 1.0
C      1  0.5056850000000  0.4563660000000  0.5097990000000 1.0
C      1  0.5046750000000  0.4996210000000  0.5131070000000 1.0
C      1  0.4991980000000  0.3819520000000  0.4959460000000 1.0
C      1  0.5020670000000  0.4265110000000  0.5007400000000 1.0
END
