TITL C-3577082-504-211 -1.9556898497511e-06 125000 -1034.75987075261 0 0 164 (C1) n - 1
REM
REM in /home/bkarasulu/work/CARBON/AIRSS/Generating-Clusters/EDIP-Nigel-Params/with-SteepDescent/Higher-Symm/SD-CG/HFTN-CG
REM
REM
REM
REM
REM
REM ./C.cell (12c818d87b63d06a65506943cc24bca4)
REM
REM compiler GCC version 9.2.1 20190827 (Red Hat 9.2.1-1)
REM options -cpp -mtune=generic -march=x86-64 -g -O0 -fpre-include=/usr/include/finclude/math-vector-fortran.h
REM seed 1247137603 726029235 192078605 2127256098 -990080090 -1372019132 55577453 -1307970569 -424919882 -146004555 -1979417929 1928912750 47300137 989696377 -1125255519 -796466055 1536672592 -1355613375 2052673131 -1378366982 -121091424 1407624682 -1306477580 -1927902450 398151275 1820392935 -526774869 1997389438 -1395131233 1664159054 517781040 -628374195 -766160448
REM
CELL 1.54180   50.00000   50.00000   50.00000   90.00000   90.00000   90.00000
LATT -1
SFAC C  
C      1  0.4248540000000  0.5096440000000  0.5061480000000 1.0
C      1  0.4633780000000  0.4991780000000  0.4327260000000 1.0
C      1  0.5507630000000  0.5069640000000  0.4394330000000 1.0
C      1  0.5691980000000  0.5026050000000  0.5380580000000 1.0
C      1  0.4910040000000  0.5009650000000  0.5769200000000 1.0
C      1  0.5189090000000  0.4862620000000  0.5742720000000 1.0
C      1  0.4378680000000  0.5044210000000  0.5341010000000 1.0
C      1  0.4455280000000  0.4834320000000  0.4522840000000 1.0
C      1  0.5264330000000  0.4904120000000  0.4321100000000 1.0
C      1  0.5691940000000  0.4993430000000  0.5068410000000 1.0
C      1  0.4938390000000  0.4236420000000  0.4360920000000 1.0
C      1  0.5644350000000  0.4220120000000  0.4740550000000 1.0
C      1  0.5469180000000  0.4217270000000  0.5509670000000 1.0
C      1  0.4694720000000  0.4238210000000  0.5582650000000 1.0
C      1  0.4376380000000  0.4246510000000  0.4880440000000 1.0
C      1  0.5966520000000  0.5203040000000  0.5359620000000 1.0
C      1  0.4963800000000  0.5218480000000  0.6011400000000 1.0
C      1  0.3994740000000  0.5258630000000  0.5322790000000 1.0
C      1  0.4439990000000  0.5178570000000  0.4179240000000 1.0
C      1  0.5607370000000  0.5202240000000  0.4137470000000 1.0
C      1  0.5206430000000  0.5322340000000  0.5656870000000 1.0
C      1  0.4492880000000  0.5337560000000  0.5366260000000 1.0
C      1  0.4445260000000  0.5566730000000  0.4615460000000 1.0
C      1  0.5168050000000  0.5446260000000  0.4425650000000 1.0
C      1  0.5601040000000  0.5285700000000  0.5001850000000 1.0
C      1  0.5667870000000  0.5379220000000  0.5756070000000 1.0
C      1  0.4505870000000  0.5374710000000  0.5849760000000 1.0
C      1  0.4035770000000  0.5359250000000  0.4775420000000 1.0
C      1  0.4879260000000  0.5369610000000  0.4020800000000 1.0
C      1  0.5913990000000  0.5355780000000  0.4622650000000 1.0
C      1  0.4328820000000  0.4711000000000  0.5623920000000 1.0
C      1  0.4146140000000  0.4592570000000  0.4504050000000 1.0
C      1  0.5215200000000  0.4638030000000  0.4043010000000 1.0
C      1  0.5973950000000  0.4688910000000  0.4931980000000 1.0
C      1  0.5420530000000  0.4610970000000  0.5932140000000 1.0
C      1  0.4569380000000  0.4668000000000  0.5028870000000 1.0
C      1  0.4855570000000  0.4667950000000  0.4578660000000 1.0
C      1  0.5412680000000  0.4623880000000  0.4753320000000 1.0
C      1  0.5384410000000  0.4610490000000  0.5263210000000 1.0
C      1  0.4903600000000  0.4618320000000  0.5429040000000 1.0
C      1  0.3889890000000  0.4795280000000  0.5166380000000 1.0
C      1  0.4498620000000  0.4777970000000  0.3953130000000 1.0
C      1  0.5787390000000  0.4779700000000  0.4216520000000 1.0
C      1  0.6024120000000  0.4790030000000  0.5560500000000 1.0
C      1  0.4832510000000  0.4774280000000  0.6156700000000 1.0
C      1  0.4788830000000  0.5317450000000  0.5399340000000 1.0
C      1  0.4567170000000  0.5423640000000  0.4870690000000 1.0
C      1  0.4899320000000  0.5397620000000  0.4548950000000 1.0
C      1  0.5375650000000  0.5256330000000  0.4813640000000 1.0
C      1  0.5360790000000  0.5201120000000  0.5426950000000 1.0
C      1  0.4195160000000  0.5432590000000  0.4540620000000 1.0
C      1  0.5143560000000  0.5500390000000  0.4130040000000 1.0
C      1  0.5854330000000  0.5443050000000  0.4900170000000 1.0
C      1  0.5393420000000  0.5490700000000  0.5816840000000 1.0
C      1  0.4360450000000  0.5465480000000  0.5609400000000 1.0
C      1  0.5596420000000  0.4642720000000  0.5701000000000 1.0
C      1  0.4562740000000  0.4655810000000  0.5778020000000 1.0
C      1  0.4152510000000  0.4661180000000  0.4792410000000 1.0
C      1  0.4927460000000  0.4627490000000  0.4084120000000 1.0
C      1  0.5884150000000  0.4645930000000  0.4665130000000 1.0
C      1  0.4521120000000  0.4128110000000  0.5117160000000 1.0
C      1  0.4769360000000  0.4118380000000  0.4574770000000 1.0
C      1  0.5372510000000  0.4107900000000  0.4635830000000 1.0
C      1  0.5491860000000  0.4104200000000  0.5226180000000 1.0
C      1  0.4963270000000  0.4105790000000  0.5519990000000 1.0
C      1  0.5414390000000  0.5002730000000  0.5958210000000 1.0
C      1  0.4233240000000  0.5009330000000  0.5702960000000 1.0
C      1  0.4099820000000  0.4979780000000  0.4487020000000 1.0
C      1  0.5211350000000  0.5028110000000  0.4009460000000 1.0
C      1  0.6050060000000  0.5001340000000  0.4910230000000 1.0
C      1  0.5385040000000  0.5819890000000  0.4639690000000 1.0
C      1  0.5387270000000  0.5820560000000  0.5181880000000 1.0
C      1  0.4893060000000  0.5951090000000  0.5631680000000 1.0
C      1  0.4383480000000  0.5988090000000  0.5096940000000 1.0
C      1  0.4819440000000  0.5989930000000  0.4596140000000 1.0
C      1  0.5226110000000  0.4268100000000  0.4408440000000 1.0
C      1  0.5698550000000  0.4249980000000  0.5036100000000 1.0
C      1  0.5207020000000  0.4241270000000  0.5650120000000 1.0
C      1  0.4476850000000  0.4277530000000  0.5383500000000 1.0
C      1  0.4500850000000  0.4252910000000  0.4611840000000 1.0
C      1  0.3835670000000  0.5020840000000  0.5323620000000 1.0
C      1  0.4347490000000  0.5020180000000  0.3948700000000 1.0
C      1  0.5725450000000  0.4970220000000  0.4014740000000 1.0
C      1  0.6166470000000  0.5016930000000  0.5470210000000 1.0
C      1  0.4988410000000  0.5013380000000  0.6233760000000 1.0
C      1  0.5626440000000  0.4534120000000  0.4314220000000 1.0
C      1  0.5962970000000  0.4540200000000  0.5396980000000 1.0
C      1  0.4950590000000  0.4518370000000  0.6033350000000 1.0
C      1  0.4039680000000  0.4551060000000  0.5261140000000 1.0
C      1  0.4471040000000  0.4523940000000  0.4136050000000 1.0
C      1  0.4616500000000  0.4830640000000  0.5316260000000 1.0
C      1  0.4603310000000  0.4872230000000  0.4791780000000 1.0
C      1  0.5060940000000  0.4913410000000  0.4561930000000 1.0
C      1  0.5459450000000  0.4792610000000  0.5002850000000 1.0
C      1  0.5176390000000  0.4764910000000  0.5441430000000 1.0
C      1  0.4301170000000  0.4514120000000  0.4988230000000 1.0
C      1  0.4801480000000  0.4497470000000  0.4313730000000 1.0
C      1  0.5645980000000  0.4493770000000  0.4615780000000 1.0
C      1  0.5593630000000  0.4483630000000  0.5459030000000 1.0
C      1  0.4790220000000  0.4494940000000  0.5692100000000 1.0
C      1  0.5658900000000  0.5735920000000  0.4530550000000 1.0
C      1  0.5541600000000  0.5769830000000  0.5430800000000 1.0
C      1  0.4682800000000  0.5799620000000  0.5741740000000 1.0
C      1  0.4184390000000  0.5832740000000  0.4931600000000 1.0
C      1  0.4782440000000  0.5836270000000  0.4349830000000 1.0
C      1  0.5255850000000  0.3941850000000  0.5118230000000 1.0
C      1  0.4994500000000  0.3948420000000  0.5263310000000 1.0
C      1  0.4780820000000  0.3981320000000  0.5065290000000 1.0
C      1  0.4904370000000  0.3986770000000  0.4804930000000 1.0
C      1  0.5193380000000  0.3962490000000  0.4830820000000 1.0
C      1  0.4376650000000  0.4433530000000  0.4405740000000 1.0
C      1  0.5353680000000  0.4478830000000  0.4246370000000 1.0
C      1  0.5872260000000  0.4489550000000  0.5123160000000 1.0
C      1  0.5185830000000  0.4445780000000  0.5871730000000 1.0
C      1  0.4278210000000  0.4506470000000  0.5423620000000 1.0
C      1  0.4765340000000  0.4870120000000  0.4057680000000 1.0
C      1  0.5852430000000  0.4880810000000  0.4493960000000 1.0
C      1  0.5754220000000  0.4882560000000  0.5648160000000 1.0
C      1  0.4667870000000  0.4882900000000  0.5922870000000 1.0
C      1  0.4046390000000  0.4897910000000  0.4934720000000 1.0
C      1  0.5233590000000  0.4379830000000  0.5137000000000 1.0
C      1  0.4947640000000  0.4384400000000  0.5247620000000 1.0
C      1  0.4758240000000  0.4420860000000  0.5012270000000 1.0
C      1  0.4925220000000  0.4427280000000  0.4756690000000 1.0
C      1  0.5223610000000  0.4403950000000  0.4830670000000 1.0
C      1  0.5679290000000  0.5094250000000  0.5847110000000 1.0
C      1  0.4442380000000  0.5092300000000  0.5909960000000 1.0
C      1  0.3943900000000  0.5077590000000  0.4726380000000 1.0
C      1  0.4929210000000  0.5090190000000  0.3939900000000 1.0
C      1  0.6017510000000  0.5085120000000  0.4622930000000 1.0
C      1  0.4487860000000  0.5133060000000  0.4886440000000 1.0
C      1  0.4847600000000  0.5108500000000  0.4502770000000 1.0
C      1  0.5213800000000  0.5007760000000  0.4841650000000 1.0
C      1  0.5191490000000  0.5010020000000  0.5282590000000 1.0
C      1  0.4802560000000  0.5043100000000  0.5482960000000 1.0
C      1  0.6043830000000  0.5261990000000  0.5076110000000 1.0
C      1  0.5264560000000  0.5241110000000  0.6080560000000 1.0
C      1  0.4111570000000  0.5284820000000  0.5591940000000 1.0
C      1  0.4204170000000  0.5216790000000  0.4351330000000 1.0
C      1  0.5357080000000  0.5297410000000  0.3999370000000 1.0
C      1  0.5760590000000  0.5451180000000  0.5474980000000 1.0
C      1  0.4769080000000  0.5521220000000  0.5860730000000 1.0
C      1  0.4108000000000  0.5502360000000  0.5050550000000 1.0
C      1  0.4612930000000  0.5424030000000  0.4142200000000 1.0
C      1  0.5694920000000  0.5450170000000  0.4442670000000 1.0
C      1  0.5343170000000  0.5746110000000  0.5650000000000 1.0
C      1  0.4448830000000  0.5761660000000  0.5556910000000 1.0
C      1  0.4362600000000  0.5839240000000  0.4690820000000 1.0
C      1  0.5059380000000  0.5831020000000  0.4240870000000 1.0
C      1  0.5774280000000  0.5751020000000  0.4834600000000 1.0
C      1  0.4949540000000  0.5470600000000  0.5599470000000 1.0
C      1  0.4428940000000  0.5522300000000  0.5132650000000 1.0
C      1  0.4676400000000  0.5562790000000  0.4401300000000 1.0
C      1  0.5419140000000  0.5321370000000  0.4536600000000 1.0
C      1  0.5511720000000  0.5412680000000  0.5270420000000 1.0
C      1  0.4585760000000  0.6004860000000  0.4774240000000 1.0
C      1  0.5177400000000  0.5959950000000  0.4489530000000 1.0
C      1  0.5500600000000  0.5868400000000  0.4918510000000 1.0
C      1  0.5064100000000  0.5747820000000  0.5516090000000 1.0
C      1  0.4505360000000  0.5788350000000  0.5263040000000 1.0
C      1  0.5027280000000  0.5047780000000  0.5055430000000 1.0
C      1  0.5104470000000  0.5788910000000  0.5215560000000 1.0
C      1  0.4968380000000  0.5667140000000  0.5004030000000 1.0
C      1  0.4862020000000  0.5459480000000  0.4849770000000 1.0
END
