TITL C-3578205-846-57 7.2428882565776e-07 125000 -735.36659682603 0 0 119 (C1) n - 1
REM
REM in /home/bkarasulu/work/CARBON/AIRSS/Generating-Clusters/EDIP-Nigel-Params/with-SteepDescent/Higher-Symm/SD-CG/HFTN-CG
REM
REM
REM
REM
REM
REM ./C.cell (12c818d87b63d06a65506943cc24bca4)
REM
REM compiler GCC version 9.2.1 20190827 (Red Hat 9.2.1-1)
REM options -cpp -mtune=generic -march=x86-64 -g -O0 -fpre-include=/usr/include/finclude/math-vector-fortran.h
REM seed 298547355 -1640346996 452812902 -1405180 231270533 -284074603 1801442860 1501208452 448519052 577844450 -507278029 -1893874690 -1136199555 -1429356772 -1712099456 825412940 1274290640 -708506875 866987258 -1461460625 154589115 706046849 1553766379 -161113950 -1614415437 1372721308 102464749 703786721 1432962186 940191422 564363612 1162923622 723679130
REM
CELL 1.54180   50.00000   50.00000   50.00000   90.00000   90.00000   90.00000
LATT -1
SFAC C  
C      1  0.4251670000000  0.5126750000000  0.4889190000000 1.0
C      1  0.4474510000000  0.5197080000000  0.4355380000000 1.0
C      1  0.4901570000000  0.5028580000000  0.4215830000000 1.0
C      1  0.5428500000000  0.5049990000000  0.4316390000000 1.0
C      1  0.5768220000000  0.5093210000000  0.4780160000000 1.0
C      1  0.5706730000000  0.5080860000000  0.5326250000000 1.0
C      1  0.5316670000000  0.5104830000000  0.5748570000000 1.0
C      1  0.4811760000000  0.5094530000000  0.5804160000000 1.0
C      1  0.4379210000000  0.5121290000000  0.5487490000000 1.0
C      1  0.4633970000000  0.5534940000000  0.5701970000000 1.0
C      1  0.4318720000000  0.5533850000000  0.5263810000000 1.0
C      1  0.4210180000000  0.5565740000000  0.4654210000000 1.0
C      1  0.4562100000000  0.5640190000000  0.4363640000000 1.0
C      1  0.5028160000000  0.5487200000000  0.4314320000000 1.0
C      1  0.5506120000000  0.5467830000000  0.4538880000000 1.0
C      1  0.5766720000000  0.5546900000000  0.4986470000000 1.0
C      1  0.5608710000000  0.5524780000000  0.5486020000000 1.0
C      1  0.5255800000000  0.5609520000000  0.5851150000000 1.0
C      1  0.5326870000000  0.5689720000000  0.5135190000000 1.0
C      1  0.5215630000000  0.5803300000000  0.5381010000000 1.0
C      1  0.4944350000000  0.5872600000000  0.5403640000000 1.0
C      1  0.4676340000000  0.5851140000000  0.5319430000000 1.0
C      1  0.4599020000000  0.5911630000000  0.5057470000000 1.0
C      1  0.4634300000000  0.5812610000000  0.4798810000000 1.0
C      1  0.4891510000000  0.5863090000000  0.4679890000000 1.0
C      1  0.5155270000000  0.5745050000000  0.4672470000000 1.0
C      1  0.5369970000000  0.5798600000000  0.4864310000000 1.0
C      1  0.5409180000000  0.4474280000000  0.4302600000000 1.0
C      1  0.5728960000000  0.4458940000000  0.4717590000000 1.0
C      1  0.5701590000000  0.4495840000000  0.5272600000000 1.0
C      1  0.5374270000000  0.4447980000000  0.5689920000000 1.0
C      1  0.4854220000000  0.4474580000000  0.5782490000000 1.0
C      1  0.4413340000000  0.4448780000000  0.5480480000000 1.0
C      1  0.4249890000000  0.4468000000000  0.4975760000000 1.0
C      1  0.4412970000000  0.4400840000000  0.4488890000000 1.0
C      1  0.4876800000000  0.4401580000000  0.4229680000000 1.0
C      1  0.5034000000000  0.5273790000000  0.4119700000000 1.0
C      1  0.5633380000000  0.5262910000000  0.4362730000000 1.0
C      1  0.5915240000000  0.5308510000000  0.4923480000000 1.0
C      1  0.5741960000000  0.5260360000000  0.5561130000000 1.0
C      1  0.5169030000000  0.5336030000000  0.5902800000000 1.0
C      1  0.4577670000000  0.5268350000000  0.5865240000000 1.0
C      1  0.4175050000000  0.5305750000000  0.5354010000000 1.0
C      1  0.4118160000000  0.5302190000000  0.4673060000000 1.0
C      1  0.4423240000000  0.5447840000000  0.4217460000000 1.0
C      1  0.4900090000000  0.4226920000000  0.5656790000000 1.0
C      1  0.4497570000000  0.4186770000000  0.5421010000000 1.0
C      1  0.4352840000000  0.4207640000000  0.4978900000000 1.0
C      1  0.4483770000000  0.4140610000000  0.4576200000000 1.0
C      1  0.4914750000000  0.4135490000000  0.4313730000000 1.0
C      1  0.5376210000000  0.4221300000000  0.4422980000000 1.0
C      1  0.5637060000000  0.4192830000000  0.4752210000000 1.0
C      1  0.5659740000000  0.4219410000000  0.5236630000000 1.0
C      1  0.5325790000000  0.4185400000000  0.5598650000000 1.0
C      1  0.4524240000000  0.4752090000000  0.4163040000000 1.0
C      1  0.5084980000000  0.4830280000000  0.4080170000000 1.0
C      1  0.5795330000000  0.4818770000000  0.4395500000000 1.0
C      1  0.5894320000000  0.4865650000000  0.4936760000000 1.0
C      1  0.5686500000000  0.4824850000000  0.5684560000000 1.0
C      1  0.5195910000000  0.4870040000000  0.5908220000000 1.0
C      1  0.4464990000000  0.4817430000000  0.5821310000000 1.0
C      1  0.4184590000000  0.4860790000000  0.5314080000000 1.0
C      1  0.4203600000000  0.4850270000000  0.4636680000000 1.0
C      1  0.4704260000000  0.4093720000000  0.5257480000000 1.0
C      1  0.4629280000000  0.4170360000000  0.4995300000000 1.0
C      1  0.4710000000000  0.4088150000000  0.4735260000000 1.0
C      1  0.4952230000000  0.4154370000000  0.4589900000000 1.0
C      1  0.5213580000000  0.4288990000000  0.4657280000000 1.0
C      1  0.5380360000000  0.4146070000000  0.4864250000000 1.0
C      1  0.5394850000000  0.4202760000000  0.5145380000000 1.0
C      1  0.5215560000000  0.4109070000000  0.5349870000000 1.0
C      1  0.4940840000000  0.4184480000000  0.5383430000000 1.0
C      1  0.4632740000000  0.5360390000000  0.5122740000000 1.0
C      1  0.4424310000000  0.5738350000000  0.4603310000000 1.0
C      1  0.4801130000000  0.5531210000000  0.4506690000000 1.0
C      1  0.5259530000000  0.5597880000000  0.4447560000000 1.0
C      1  0.5612620000000  0.5651090000000  0.4751270000000 1.0
C      1  0.5549280000000  0.5501300000000  0.5192800000000 1.0
C      1  0.5355530000000  0.5645180000000  0.5585500000000 1.0
C      1  0.4937510000000  0.5523280000000  0.5651550000000 1.0
C      1  0.4517470000000  0.5643720000000  0.5442200000000 1.0
C      1  0.5699330000000  0.4636870000000  0.4966080000000 1.0
C      1  0.5595520000000  0.4593570000000  0.5548540000000 1.0
C      1  0.5134500000000  0.4605620000000  0.5784350000000 1.0
C      1  0.4578310000000  0.4588990000000  0.5696040000000 1.0
C      1  0.4289280000000  0.4597080000000  0.5247080000000 1.0
C      1  0.4289660000000  0.4578500000000  0.4697750000000 1.0
C      1  0.4596940000000  0.4511650000000  0.4279710000000 1.0
C      1  0.5126030000000  0.4579260000000  0.4230490000000 1.0
C      1  0.5628690000000  0.4603330000000  0.4475220000000 1.0
C      1  0.5416840000000  0.4764240000000  0.4906010000000 1.0
C      1  0.5273880000000  0.4740830000000  0.5140200000000 1.0
C      1  0.5152830000000  0.4828680000000  0.5365400000000 1.0
C      1  0.4888190000000  0.4755410000000  0.5372460000000 1.0
C      1  0.4696320000000  0.4910390000000  0.5254200000000 1.0
C      1  0.4683600000000  0.4920570000000  0.4976820000000 1.0
C      1  0.4762930000000  0.4700870000000  0.4833570000000 1.0
C      1  0.4938920000000  0.4745130000000  0.4629000000000 1.0
C      1  0.5228130000000  0.4639730000000  0.4655550000000 1.0
C      1  0.5950440000000  0.5025460000000  0.5178360000000 1.0
C      1  0.5616090000000  0.5087260000000  0.5761650000000 1.0
C      1  0.4976270000000  0.5014600000000  0.6022950000000 1.0
C      1  0.4369240000000  0.5079970000000  0.5780600000000 1.0
C      1  0.4100300000000  0.5095060000000  0.5150290000000 1.0
C      1  0.4204640000000  0.5096240000000  0.4459520000000 1.0
C      1  0.4608950000000  0.5011910000000  0.4163100000000 1.0
C      1  0.5314070000000  0.5015010000000  0.4052470000000 1.0
C      1  0.5834610000000  0.5083130000000  0.4488620000000 1.0
C      1  0.5460670000000  0.5071420000000  0.4858570000000 1.0
C      1  0.5458760000000  0.5201730000000  0.5182700000000 1.0
C      1  0.5208530000000  0.5105690000000  0.5448040000000 1.0
C      1  0.4918290000000  0.5227410000000  0.5548240000000 1.0
C      1  0.4660390000000  0.5170910000000  0.5363250000000 1.0
C      1  0.4559240000000  0.5172370000000  0.4889600000000 1.0
C      1  0.4693200000000  0.5239370000000  0.4594020000000 1.0
C      1  0.4945850000000  0.5025700000000  0.4521240000000 1.0
C      1  0.5271900000000  0.5023560000000  0.4576660000000 1.0
C      1  0.5098270000000  0.5300330000000  0.4966820000000 1.0
C      1  0.4898900000000  0.5436120000000  0.5060940000000 1.0
END
