TITL C-3577085-527-598 -8.00521403862187e-07 125000 -889.307052821454 0 0 140 (C1) n - 1
REM
REM in /home/bkarasulu/work/CARBON/AIRSS/Generating-Clusters/EDIP-Nigel-Params/with-SteepDescent/Higher-Symm/SD-CG/HFTN-CG
REM
REM
REM
REM
REM
REM ./C.cell (12c818d87b63d06a65506943cc24bca4)
REM
REM compiler GCC version 9.2.1 20190827 (Red Hat 9.2.1-1)
REM options -cpp -mtune=generic -march=x86-64 -g -O0 -fpre-include=/usr/include/finclude/math-vector-fortran.h
REM seed 1604973562 -565455421 -246693232 -1527438096 -743377462 2131465370 -24189914 -1190365017 -1886442265 1318219142 1628386502 -1691760648 2063981362 1615400082 -1854819943 -1505244451 1965419019 314096427 -90496664 -2113462592 -659313492 -894732002 -1317721472 -334566450 -123823234 -858280370 -635991935 -2030224408 1029119982 445744238 375260405 1088081882 -44467255
REM
CELL 1.54180   50.00000   50.00000   50.00000   90.00000   90.00000   90.00000
LATT -1
SFAC C  
C      1  0.5619330000000  0.5026800000000  0.4133270000000 1.0
C      1  0.5620600000000  0.4269090000000  0.5441340000000 1.0
C      1  0.5622960000000  0.5727350000000  0.5421280000000 1.0
C      1  0.4304010000000  0.4945140000000  0.5750190000000 1.0
C      1  0.4295260000000  0.5701580000000  0.4672690000000 1.0
C      1  0.4321280000000  0.4385240000000  0.4557820000000 1.0
C      1  0.4152290000000  0.4795750000000  0.5179090000000 1.0
C      1  0.4150080000000  0.5277790000000  0.5072630000000 1.0
C      1  0.4167730000000  0.4946310000000  0.4722780000000 1.0
C      1  0.5178100000000  0.5080580000000  0.4499270000000 1.0
C      1  0.5238250000000  0.4572610000000  0.5129880000000 1.0
C      1  0.5227900000000  0.5355440000000  0.5284660000000 1.0
C      1  0.4373450000000  0.5717720000000  0.4960280000000 1.0
C      1  0.4417710000000  0.4629190000000  0.4415640000000 1.0
C      1  0.4385020000000  0.4690700000000  0.5618910000000 1.0
C      1  0.5480690000000  0.5233630000000  0.4878060000000 1.0
C      1  0.5454930000000  0.4840820000000  0.4837500000000 1.0
C      1  0.5497550000000  0.4964370000000  0.5208390000000 1.0
C      1  0.5297500000000  0.5099480000000  0.5428240000000 1.0
C      1  0.5263650000000  0.5338730000000  0.4671970000000 1.0
C      1  0.5306240000000  0.4563440000000  0.4834520000000 1.0
C      1  0.5365890000000  0.5672250000000  0.5559850000000 1.0
C      1  0.5369070000000  0.5174290000000  0.4111620000000 1.0
C      1  0.5367130000000  0.4188110000000  0.5304180000000 1.0
C      1  0.5626030000000  0.5708310000000  0.5084920000000 1.0
C      1  0.5608240000000  0.4725270000000  0.4349620000000 1.0
C      1  0.5643170000000  0.4553390000000  0.5594610000000 1.0
C      1  0.4233820000000  0.5419650000000  0.4596450000000 1.0
C      1  0.4247760000000  0.4451740000000  0.4837150000000 1.0
C      1  0.4233160000000  0.5151140000000  0.5548970000000 1.0
C      1  0.5689760000000  0.5150030000000  0.4556080000000 1.0
C      1  0.5728990000000  0.4517310000000  0.5091310000000 1.0
C      1  0.5703080000000  0.5279780000000  0.5324140000000 1.0
C      1  0.5432270000000  0.4494360000000  0.4264110000000 1.0
C      1  0.5441770000000  0.4604300000000  0.5812800000000 1.0
C      1  0.5432460000000  0.5891500000000  0.4939390000000 1.0
C      1  0.5927760000000  0.5067350000000  0.4704920000000 1.0
C      1  0.5952740000000  0.4702880000000  0.5052360000000 1.0
C      1  0.5946160000000  0.5190740000000  0.5189980000000 1.0
C      1  0.4898380000000  0.4116300000000  0.4955850000000 1.0
C      1  0.4893370000000  0.5404600000000  0.5776070000000 1.0
C      1  0.4881950000000  0.5476770000000  0.4256970000000 1.0
C      1  0.5106690000000  0.4156350000000  0.5430620000000 1.0
C      1  0.5104040000000  0.5801460000000  0.5518480000000 1.0
C      1  0.5112170000000  0.5054720000000  0.4067940000000 1.0
C      1  0.4691030000000  0.4296800000000  0.5729580000000 1.0
C      1  0.4684900000000  0.6005600000000  0.5251500000000 1.0
C      1  0.4743340000000  0.4753830000000  0.4036670000000 1.0
C      1  0.5888610000000  0.4790230000000  0.4781430000000 1.0
C      1  0.5929500000000  0.4903100000000  0.5269780000000 1.0
C      1  0.5919490000000  0.5280720000000  0.4910380000000 1.0
C      1  0.4671090000000  0.4278490000000  0.4833140000000 1.0
C      1  0.4661520000000  0.5226880000000  0.5700720000000 1.0
C      1  0.4654950000000  0.5518510000000  0.4454850000000 1.0
C      1  0.4205430000000  0.5567550000000  0.5171910000000 1.0
C      1  0.4257330000000  0.4888810000000  0.4426710000000 1.0
C      1  0.4218130000000  0.4576140000000  0.5386110000000 1.0
C      1  0.4395460000000  0.4358540000000  0.5292540000000 1.0
C      1  0.4380750000000  0.5596240000000  0.5411350000000 1.0
C      1  0.4454250000000  0.5085130000000  0.4322590000000 1.0
C      1  0.5780870000000  0.5493820000000  0.5525170000000 1.0
C      1  0.5776790000000  0.5233980000000  0.4278250000000 1.0
C      1  0.5813650000000  0.4256150000000  0.5215790000000 1.0
C      1  0.5768680000000  0.4601500000000  0.4588720000000 1.0
C      1  0.5778640000000  0.4838650000000  0.5528060000000 1.0
C      1  0.5785590000000  0.5546770000000  0.4842920000000 1.0
C      1  0.4554290000000  0.5964320000000  0.4983450000000 1.0
C      1  0.4596790000000  0.4532740000000  0.4190020000000 1.0
C      1  0.4561290000000  0.4549200000000  0.5824200000000 1.0
C      1  0.5012270000000  0.5956370000000  0.5268470000000 1.0
C      1  0.5047790000000  0.4767150000000  0.4016060000000 1.0
C      1  0.5015120000000  0.4299910000000  0.5684390000000 1.0
C      1  0.4804820000000  0.4476120000000  0.5399530000000 1.0
C      1  0.4791730000000  0.5628720000000  0.5259530000000 1.0
C      1  0.4850670000000  0.4896710000000  0.4384080000000 1.0
C      1  0.5017640000000  0.5284720000000  0.5094370000000 1.0
C      1  0.4996510000000  0.4990190000000  0.4739010000000 1.0
C      1  0.5035850000000  0.4789680000000  0.5181010000000 1.0
C      1  0.4403120000000  0.5381900000000  0.5611910000000 1.0
C      1  0.4410200000000  0.5365450000000  0.4370020000000 1.0
C      1  0.4413380000000  0.4282190000000  0.5009140000000 1.0
C      1  0.5574250000000  0.4389090000000  0.4701050000000 1.0
C      1  0.5592130000000  0.5042030000000  0.5672690000000 1.0
C      1  0.5577390000000  0.5567670000000  0.4611990000000 1.0
C      1  0.4734180000000  0.4777210000000  0.5915430000000 1.0
C      1  0.4726030000000  0.5925750000000  0.4738690000000 1.0
C      1  0.4747090000000  0.4309330000000  0.4333720000000 1.0
C      1  0.4778060000000  0.4573020000000  0.4796800000000 1.0
C      1  0.4753500000000  0.5049660000000  0.5460330000000 1.0
C      1  0.4734810000000  0.5397830000000  0.4734300000000 1.0
C      1  0.4607740000000  0.5522870000000  0.5000530000000 1.0
C      1  0.4649080000000  0.4745060000000  0.4578000000000 1.0
C      1  0.4619570000000  0.4754750000000  0.5432410000000 1.0
C      1  0.4701990000000  0.5094290000000  0.4742570000000 1.0
C      1  0.4753690000000  0.4739440000000  0.5060040000000 1.0
C      1  0.4728850000000  0.5202120000000  0.5199760000000 1.0
C      1  0.4538120000000  0.4203160000000  0.5490780000000 1.0
C      1  0.4529870000000  0.5843550000000  0.5452790000000 1.0
C      1  0.4633040000000  0.5045520000000  0.4086500000000 1.0
C      1  0.5197270000000  0.4147070000000  0.4542170000000 1.0
C      1  0.5186770000000  0.5011310000000  0.5921970000000 1.0
C      1  0.5174720000000  0.5807870000000  0.4525420000000 1.0
C      1  0.5157880000000  0.5284080000000  0.5805030000000 1.0
C      1  0.5145680000000  0.5582410000000  0.4326540000000 1.0
C      1  0.5168320000000  0.4137510000000  0.4842570000000 1.0
C      1  0.5462140000000  0.4937050000000  0.4541550000000 1.0
C      1  0.5500040000000  0.4650610000000  0.5248090000000 1.0
C      1  0.5488950000000  0.5404570000000  0.5140290000000 1.0
C      1  0.5650070000000  0.5339600000000  0.5751570000000 1.0
C      1  0.5641200000000  0.5507070000000  0.4312730000000 1.0
C      1  0.5660380000000  0.4168820000000  0.4930500000000 1.0
C      1  0.5378320000000  0.5457490000000  0.4190690000000 1.0
C      1  0.5393880000000  0.4085380000000  0.5027510000000 1.0
C      1  0.5385970000000  0.5469940000000  0.5775840000000 1.0
C      1  0.4891680000000  0.4131700000000  0.5241280000000 1.0
C      1  0.4885270000000  0.5654460000000  0.5635860000000 1.0
C      1  0.4875390000000  0.5226390000000  0.4094640000000 1.0
C      1  0.5018610000000  0.5465770000000  0.4822410000000 1.0
C      1  0.5046840000000  0.4563060000000  0.4665610000000 1.0
C      1  0.5035500000000  0.4924620000000  0.5478240000000 1.0
C      1  0.4278700000000  0.4734970000000  0.4911240000000 1.0
C      1  0.4252670000000  0.5069460000000  0.5265910000000 1.0
C      1  0.4281600000000  0.5217020000000  0.4806370000000 1.0
C      1  0.4570220000000  0.4208280000000  0.4555030000000 1.0
C      1  0.4561410000000  0.5022950000000  0.5898990000000 1.0
C      1  0.4553390000000  0.5793140000000  0.4531750000000 1.0
C      1  0.5035120000000  0.4378040000000  0.4425880000000 1.0
C      1  0.5015160000000  0.4805340000000  0.5784570000000 1.0
C      1  0.5003330000000  0.5789710000000  0.4775440000000 1.0
C      1  0.3864240000000  0.5206100000000  0.5013780000000 1.0
C      1  0.3873020000000  0.4969620000000  0.4829260000000 1.0
C      1  0.3864910000000  0.4833170000000  0.5097420000000 1.0
C      1  0.5457050000000  0.4893860000000  0.5892130000000 1.0
C      1  0.5444440000000  0.5830240000000  0.4645600000000 1.0
C      1  0.5458250000000  0.4261990000000  0.4455950000000 1.0
C      1  0.5149830000000  0.5901600000000  0.5006260000000 1.0
C      1  0.5183400000000  0.4528360000000  0.4118310000000 1.0
C      1  0.5158700000000  0.4548560000000  0.5772230000000 1.0
C      1  0.4611910000000  0.5006450000000  0.5011040000000 1.0
C      1  0.5126870000000  0.5021520000000  0.5005170000000 1.0
END
