TITL C-3578209-2550-605 -3.46360369397122e-06 125000 -362.644203457668 0 0 59 (C1) n - 1
REM
REM in /home/bkarasulu/work/CARBON/AIRSS/Generating-Clusters/EDIP-Nigel-Params/with-SteepDescent/Higher-Symm/SD-CG/HFTN-CG
REM
REM
REM
REM
REM
REM ./C.cell (12c818d87b63d06a65506943cc24bca4)
REM
REM compiler GCC version 9.2.1 20190827 (Red Hat 9.2.1-1)
REM options -cpp -mtune=generic -march=x86-64 -g -O0 -fpre-include=/usr/include/finclude/math-vector-fortran.h
REM seed 354693393 -1105503323 1776524898 -1463426766 618807631 -755271805 -686100115 1307133441 1554747492 1791682046 -1814663159 -160294388 2075763232 1821152847 729391902 653330770 499506957 72464017 -733670907 248418520 -1849715568 1637401193 -504424109 1894848064 297428417 652161228 -1255252791 -2105236570 -1620755400 2064628140 -692033103 47017781 -1110451078
REM
CELL 1.54180   50.00000   50.00000   50.00000   90.00000   90.00000   90.00000
LATT -1
SFAC C  
C      1  0.5566950000000  0.5166090000000  0.5450020000000 1.0
C      1  0.4434330000000  0.5170120000000  0.4559750000000 1.0
C      1  0.4936510000000  0.5190210000000  0.5369030000000 1.0
C      1  0.5006290000000  0.5211780000000  0.4633880000000 1.0
C      1  0.4528500000000  0.5444620000000  0.4513740000000 1.0
C      1  0.5446280000000  0.5435150000000  0.5448870000000 1.0
C      1  0.5046070000000  0.5652720000000  0.4628080000000 1.0
C      1  0.4946770000000  0.5631870000000  0.5353300000000 1.0
C      1  0.5034670000000  0.4654400000000  0.5331370000000 1.0
C      1  0.4969720000000  0.4708300000000  0.4746930000000 1.0
C      1  0.5185300000000  0.4440100000000  0.4989570000000 1.0
C      1  0.4748700000000  0.4369930000000  0.5032700000000 1.0
C      1  0.5073260000000  0.5251450000000  0.5726530000000 1.0
C      1  0.4852430000000  0.5241150000000  0.4224150000000 1.0
C      1  0.4434430000000  0.4735950000000  0.4893170000000 1.0
C      1  0.5604820000000  0.4679370000000  0.5132640000000 1.0
C      1  0.5780890000000  0.4894690000000  0.5111520000000 1.0
C      1  0.4241290000000  0.4931760000000  0.4934780000000 1.0
C      1  0.5154470000000  0.5464490000000  0.5536880000000 1.0
C      1  0.4812610000000  0.5458320000000  0.4413640000000 1.0
C      1  0.4944820000000  0.4807260000000  0.5580730000000 1.0
C      1  0.5030910000000  0.4926360000000  0.4530980000000 1.0
C      1  0.4561020000000  0.4929350000000  0.4446500000000 1.0
C      1  0.5402070000000  0.4934980000000  0.5512920000000 1.0
C      1  0.5197640000000  0.4263220000000  0.5240490000000 1.0
C      1  0.4815540000000  0.4293290000000  0.4758990000000 1.0
C      1  0.4547360000000  0.4699150000000  0.4627480000000 1.0
C      1  0.5470610000000  0.4666690000000  0.5398880000000 1.0
C      1  0.4717390000000  0.5507910000000  0.4952170000000 1.0
C      1  0.5258510000000  0.5476920000000  0.5022240000000 1.0
C      1  0.5757450000000  0.5145400000000  0.5229740000000 1.0
C      1  0.4247220000000  0.5162960000000  0.4780650000000 1.0
C      1  0.5331150000000  0.4910080000000  0.4485260000000 1.0
C      1  0.4670510000000  0.4897080000000  0.5508880000000 1.0
C      1  0.5296400000000  0.5529510000000  0.4728760000000 1.0
C      1  0.4676770000000  0.5523980000000  0.5256440000000 1.0
C      1  0.4905010000000  0.5731080000000  0.4874490000000 1.0
C      1  0.5088940000000  0.5709310000000  0.5105970000000 1.0
C      1  0.4774810000000  0.4414980000000  0.5474270000000 1.0
C      1  0.5189020000000  0.4476070000000  0.4535610000000 1.0
C      1  0.4231990000000  0.5419510000000  0.4894730000000 1.0
C      1  0.5747380000000  0.5380170000000  0.5075880000000 1.0
C      1  0.5304110000000  0.5263440000000  0.4632450000000 1.0
C      1  0.4643640000000  0.5254210000000  0.5368210000000 1.0
C      1  0.4861220000000  0.5239390000000  0.4892770000000 1.0
C      1  0.5056660000000  0.5145730000000  0.5089890000000 1.0
C      1  0.5163020000000  0.4978930000000  0.5681160000000 1.0
C      1  0.4824400000000  0.4972360000000  0.4308980000000 1.0
C      1  0.4463800000000  0.5549210000000  0.4788510000000 1.0
C      1  0.5513510000000  0.5510670000000  0.5172810000000 1.0
C      1  0.4585550000000  0.4628630000000  0.5391610000000 1.0
C      1  0.5400830000000  0.4656730000000  0.4616170000000 1.0
C      1  0.4715570000000  0.4478920000000  0.4564600000000 1.0
C      1  0.5312240000000  0.4425780000000  0.5455450000000 1.0
C      1  0.4890130000000  0.4247970000000  0.5262090000000 1.0
C      1  0.5106800000000  0.4290580000000  0.4739460000000 1.0
C      1  0.4552120000000  0.4572630000000  0.5101610000000 1.0
C      1  0.5411590000000  0.4626440000000  0.4916410000000 1.0
C      1  0.5045530000000  0.4826280000000  0.5051270000000 1.0
END
