TITL C-3577088-510-639 1.67612570400271e-06 125000 -333.330391291091 0 0 56 (C1) n - 1
REM
REM in /home/bkarasulu/work/CARBON/AIRSS/Generating-Clusters/EDIP-Nigel-Params/with-SteepDescent/Higher-Symm/SD-CG/HFTN-CG
REM
REM
REM
REM
REM
REM ./C.cell (12c818d87b63d06a65506943cc24bca4)
REM
REM compiler GCC version 9.2.1 20190827 (Red Hat 9.2.1-1)
REM options -cpp -mtune=generic -march=x86-64 -g -O0 -fpre-include=/usr/include/finclude/math-vector-fortran.h
REM seed 631666287 -95569965 1980072578 1128019731 -427607410 1021650529 1465512520 -1635445776 -1927381010 -1563213544 -167150151 1284226844 1905187114 705990857 -242763749 389686023 -1519785649 -1565190559 -2106508436 267052926 -582078275 507551145 -1869339871 -1332149396 -1016462481 992624271 -783309622 1228464739 -280926844 233572284 -2002906211 -128791892 471070013
REM
CELL 1.54180   50.00000   50.00000   50.00000   90.00000   90.00000   90.00000
LATT -1
SFAC C  
C      1  0.5348980000000  0.5061200000000  0.5048650000000 1.0
C      1  0.5292140000000  0.4757300000000  0.5005750000000 1.0
C      1  0.4992460000000  0.4626940000000  0.4995480000000 1.0
C      1  0.4743070000000  0.4810510000000  0.5052880000000 1.0
C      1  0.4670250000000  0.5105150000000  0.5071580000000 1.0
C      1  0.4870080000000  0.5331520000000  0.5058300000000 1.0
C      1  0.5176430000000  0.5317310000000  0.5067230000000 1.0
C      1  0.4872420000000  0.5323830000000  0.5528770000000 1.0
C      1  0.5159050000000  0.5288730000000  0.5459110000000 1.0
C      1  0.5339790000000  0.5054630000000  0.5522980000000 1.0
C      1  0.5256400000000  0.4770280000000  0.5490370000000 1.0
C      1  0.4987270000000  0.4645030000000  0.5499000000000 1.0
C      1  0.4729780000000  0.4791070000000  0.5524150000000 1.0
C      1  0.4698790000000  0.5090380000000  0.5462560000000 1.0
C      1  0.4853860000000  0.5589250000000  0.4613820000000 1.0
C      1  0.5366750000000  0.5474490000000  0.4611490000000 1.0
C      1  0.5603870000000  0.5000630000000  0.4621010000000 1.0
C      1  0.5374430000000  0.4523820000000  0.4652660000000 1.0
C      1  0.4846780000000  0.4405970000000  0.4655370000000 1.0
C      1  0.4431390000000  0.4721720000000  0.4594680000000 1.0
C      1  0.4441620000000  0.5256190000000  0.4612940000000 1.0
C      1  0.4914620000000  0.5318150000000  0.4544280000000 1.0
C      1  0.5196380000000  0.5254940000000  0.4552310000000 1.0
C      1  0.5325970000000  0.4995990000000  0.4549620000000 1.0
C      1  0.5197440000000  0.4737550000000  0.4575660000000 1.0
C      1  0.4915790000000  0.4670270000000  0.4565020000000 1.0
C      1  0.4685750000000  0.4844820000000  0.4541030000000 1.0
C      1  0.4689350000000  0.5135440000000  0.4544140000000 1.0
C      1  0.5712520000000  0.5173920000000  0.4818400000000 1.0
C      1  0.5589390000000  0.4580500000000  0.4831910000000 1.0
C      1  0.5000550000000  0.4266880000000  0.4848390000000 1.0
C      1  0.4371810000000  0.4531650000000  0.4798420000000 1.0
C      1  0.4298550000000  0.5158570000000  0.4835770000000 1.0
C      1  0.4681150000000  0.5657590000000  0.4827220000000 1.0
C      1  0.5311420000000  0.5654390000000  0.4822390000000 1.0
C      1  0.4973110000000  0.4441530000000  0.5272250000000 1.0
C      1  0.4576120000000  0.4692890000000  0.5275980000000 1.0
C      1  0.4417780000000  0.5165590000000  0.5352030000000 1.0
C      1  0.4792090000000  0.5513370000000  0.5300840000000 1.0
C      1  0.5301740000000  0.5542370000000  0.5350330000000 1.0
C      1  0.5536780000000  0.5093570000000  0.5290430000000 1.0
C      1  0.5418620000000  0.4636240000000  0.5273870000000 1.0
C      1  0.4321000000000  0.4884220000000  0.4933310000000 1.0
C      1  0.4471390000000  0.5476650000000  0.4935460000000 1.0
C      1  0.5046890000000  0.5714700000000  0.4929570000000 1.0
C      1  0.5584580000000  0.5416100000000  0.4931780000000 1.0
C      1  0.5735950000000  0.4812090000000  0.4937840000000 1.0
C      1  0.5270720000000  0.4291660000000  0.4930960000000 1.0
C      1  0.4575480000000  0.4365260000000  0.4914670000000 1.0
C      1  0.4483140000000  0.5459240000000  0.5235150000000 1.0
C      1  0.5046990000000  0.5699030000000  0.5229550000000 1.0
C      1  0.5566670000000  0.5404250000000  0.5230560000000 1.0
C      1  0.5679600000000  0.4824270000000  0.5229980000000 1.0
C      1  0.5278190000000  0.4360170000000  0.5214040000000 1.0
C      1  0.4645880000000  0.4401400000000  0.5197880000000 1.0
C      1  0.4330990000000  0.4878770000000  0.5230210000000 1.0
END
