TITL C-3578209-2550-574 -9.01527737888947e-07 125000 -152.754133078901 0 0 26 (C1) n - 1
REM
REM in /home/bkarasulu/work/CARBON/AIRSS/Generating-Clusters/EDIP-Nigel-Params/with-SteepDescent/Higher-Symm/SD-CG/HFTN-CG
REM
REM
REM
REM
REM
REM ./C.cell (12c818d87b63d06a65506943cc24bca4)
REM
REM compiler GCC version 9.2.1 20190827 (Red Hat 9.2.1-1)
REM options -cpp -mtune=generic -march=x86-64 -g -O0 -fpre-include=/usr/include/finclude/math-vector-fortran.h
REM seed 1673454742 937754249 1802855447 1474972739 696948832 -1864564280 -964029049 1011859662 1625831634 -1310964725 742487633 -71210376 489077887 2101002041 -80544010 -772920296 -1225250283 -1399098252 2044300614 2147220216 749136063 -1490910424 -2030238988 538455476 -1246329255 -1610947223 269634562 570481032 373746336 1348667999 260492307 75550981 1775152217
REM
CELL 1.54180   50.00000   50.00000   50.00000   90.00000   90.00000   90.00000
LATT -1
SFAC C  
C      1  0.4793450000000  0.4931220000000  0.4541560000000 1.0
C      1  0.4581010000000  0.4833520000000  0.4709030000000 1.0
C      1  0.4491980000000  0.4934680000000  0.4962690000000 1.0
C      1  0.4580690000000  0.4819930000000  0.5209780000000 1.0
C      1  0.4775080000000  0.4906590000000  0.5406290000000 1.0
C      1  0.5042130000000  0.4743980000000  0.5385530000000 1.0
C      1  0.5295270000000  0.4896830000000  0.5422340000000 1.0
C      1  0.5551730000000  0.4893510000000  0.5134420000000 1.0
C      1  0.5414400000000  0.4747040000000  0.4921770000000 1.0
C      1  0.5280380000000  0.4897310000000  0.4696080000000 1.0
C      1  0.5049550000000  0.4798740000000  0.4553540000000 1.0
C      1  0.4629300000000  0.5331190000000  0.4743960000000 1.0
C      1  0.4501810000000  0.5227820000000  0.4974610000000 1.0
C      1  0.4584090000000  0.5308020000000  0.5234140000000 1.0
C      1  0.4804900000000  0.5211060000000  0.5388460000000 1.0
C      1  0.5051830000000  0.5265240000000  0.5227750000000 1.0
C      1  0.5309250000000  0.5185570000000  0.5361620000000 1.0
C      1  0.5529230000000  0.5186800000000  0.5148910000000 1.0
C      1  0.5450630000000  0.5295420000000  0.4898260000000 1.0
C      1  0.5321320000000  0.5187890000000  0.4672410000000 1.0
C      1  0.5088600000000  0.5310170000000  0.4567580000000 1.0
C      1  0.4817210000000  0.5226710000000  0.4559020000000 1.0
C      1  0.5036210000000  0.4611700000000  0.5111700000000 1.0
C      1  0.4925210000000  0.4833930000000  0.4954100000000 1.0
C      1  0.5021580000000  0.5104120000000  0.4991000000000 1.0
C      1  0.5285320000000  0.4512340000000  0.5011560000000 1.0
END
