TITL C-3577088-510-440 -4.40602844017852e-07 125000 -1149.0164611687 0 0 180 (C1) n - 1
REM
REM in /home/bkarasulu/work/CARBON/AIRSS/Generating-Clusters/EDIP-Nigel-Params/with-SteepDescent/Higher-Symm/SD-CG/HFTN-CG
REM
REM
REM
REM
REM
REM ./C.cell (12c818d87b63d06a65506943cc24bca4)
REM
REM compiler GCC version 9.2.1 20190827 (Red Hat 9.2.1-1)
REM options -cpp -mtune=generic -march=x86-64 -g -O0 -fpre-include=/usr/include/finclude/math-vector-fortran.h
REM seed -1425903765 132002418 1686683101 -462359974 360189986 -620481809 -1323595307 2000019743 1312303973 -159899093 -1884788090 -482255891 -293392260 1183793174 -452168547 1716221555 -1452039200 -912009471 291677262 -1180280751 -2030293762 -759918638 -2057359741 -1346364128 1942146524 694782615 -2048671408 -366441532 1361975600 1698479440 1220903617 -438571438 -1246313180
REM
CELL 1.54180   50.00000   50.00000   50.00000   90.00000   90.00000   90.00000
LATT -1
SFAC C  
C      1  0.4955580000000  0.4049200000000  0.4701060000000 1.0
C      1  0.4081630000000  0.4763030000000  0.4695950000000 1.0
C      1  0.4465680000000  0.5783200000000  0.4683000000000 1.0
C      1  0.5599770000000  0.5730700000000  0.4706180000000 1.0
C      1  0.5901170000000  0.4682610000000  0.4685660000000 1.0
C      1  0.4926700000000  0.6039900000000  0.5322010000000 1.0
C      1  0.5971000000000  0.5348880000000  0.5311500000000 1.0
C      1  0.5675090000000  0.4197990000000  0.5321970000000 1.0
C      1  0.4435560000000  0.4114020000000  0.5317790000000 1.0
C      1  0.4001160000000  0.5293400000000  0.5303930000000 1.0
C      1  0.3974180000000  0.4651330000000  0.4949400000000 1.0
C      1  0.4330650000000  0.5811200000000  0.4956430000000 1.0
C      1  0.5615760000000  0.5882690000000  0.4960830000000 1.0
C      1  0.6021980000000  0.4738400000000  0.4961340000000 1.0
C      1  0.5032880000000  0.3916510000000  0.4954930000000 1.0
C      1  0.5204960000000  0.6070650000000  0.4908530000000 1.0
C      1  0.6196430000000  0.5131960000000  0.4863070000000 1.0
C      1  0.5472720000000  0.4011500000000  0.4901930000000 1.0
C      1  0.4194290000000  0.4258090000000  0.4901560000000 1.0
C      1  0.3958550000000  0.5598300000000  0.4851280000000 1.0
C      1  0.4551520000000  0.4765580000000  0.5877060000000 1.0
C      1  0.4649080000000  0.5290710000000  0.5825980000000 1.0
C      1  0.5161290000000  0.5411640000000  0.5820430000000 1.0
C      1  0.5438990000000  0.4967870000000  0.5821300000000 1.0
C      1  0.5099310000000  0.4568370000000  0.5810370000000 1.0
C      1  0.5732880000000  0.4057040000000  0.5065500000000 1.0
C      1  0.4310960000000  0.4021790000000  0.5064500000000 1.0
C      1  0.3877160000000  0.5375470000000  0.5041540000000 1.0
C      1  0.4966160000000  0.6189270000000  0.5067750000000 1.0
C      1  0.6124600000000  0.5358630000000  0.5052800000000 1.0
C      1  0.4905500000000  0.5688740000000  0.4915300000000 1.0
C      1  0.5628160000000  0.5291430000000  0.4933190000000 1.0
C      1  0.5485440000000  0.4496100000000  0.4908540000000 1.0
C      1  0.4662470000000  0.4387240000000  0.4915600000000 1.0
C      1  0.4315430000000  0.5132820000000  0.4932560000000 1.0
C      1  0.5798740000000  0.4458230000000  0.5335510000000 1.0
C      1  0.4719170000000  0.4058790000000  0.5334620000000 1.0
C      1  0.4030770000000  0.5003580000000  0.5322390000000 1.0
C      1  0.4673320000000  0.5902360000000  0.5332760000000 1.0
C      1  0.5773690000000  0.5563000000000  0.5330420000000 1.0
C      1  0.4780530000000  0.3875990000000  0.5102590000000 1.0
C      1  0.3866970000000  0.4885420000000  0.5095720000000 1.0
C      1  0.4511070000000  0.6004650000000  0.5103800000000 1.0
C      1  0.5839710000000  0.5757150000000  0.5107040000000 1.0
C      1  0.5989880000000  0.4474440000000  0.5106570000000 1.0
C      1  0.4028410000000  0.5531710000000  0.4566360000000 1.0
C      1  0.5180360000000  0.6083480000000  0.4600730000000 1.0
C      1  0.6105100000000  0.5145340000000  0.4577230000000 1.0
C      1  0.5501470000000  0.4017830000000  0.4594400000000 1.0
C      1  0.4214290000000  0.4231530000000  0.4593400000000 1.0
C      1  0.4893200000000  0.5562070000000  0.4128120000000 1.0
C      1  0.5487480000000  0.5285560000000  0.4155190000000 1.0
C      1  0.5438090000000  0.4615750000000  0.4129400000000 1.0
C      1  0.4785330000000  0.4481560000000  0.4146580000000 1.0
C      1  0.4453730000000  0.5048500000000  0.4152950000000 1.0
C      1  0.5685330000000  0.4960450000000  0.5319250000000 1.0
C      1  0.5170400000000  0.4321850000000  0.5295010000000 1.0
C      1  0.4401060000000  0.4634390000000  0.5300100000000 1.0
C      1  0.4463690000000  0.5431500000000  0.5320790000000 1.0
C      1  0.5255550000000  0.5636360000000  0.5302750000000 1.0
C      1  0.4771890000000  0.4884790000000  0.6046200000000 1.0
C      1  0.4804580000000  0.5178950000000  0.6061910000000 1.0
C      1  0.5099380000000  0.5232740000000  0.6060030000000 1.0
C      1  0.5243210000000  0.4969500000000  0.6055470000000 1.0
C      1  0.5039170000000  0.4753030000000  0.6045340000000 1.0
C      1  0.5120060000000  0.4755900000000  0.5564390000000 1.0
C      1  0.4833980000000  0.4807650000000  0.5541660000000 1.0
C      1  0.4757700000000  0.5105570000000  0.5594560000000 1.0
C      1  0.5039170000000  0.5255790000000  0.5584430000000 1.0
C      1  0.5259390000000  0.5032120000000  0.5580540000000 1.0
C      1  0.5415090000000  0.4173950000000  0.5733580000000 1.0
C      1  0.4318650000000  0.4353790000000  0.5719260000000 1.0
C      1  0.4162710000000  0.5431030000000  0.5748910000000 1.0
C      1  0.5143850000000  0.5910320000000  0.5736740000000 1.0
C      1  0.5908490000000  0.5149320000000  0.5754920000000 1.0
C      1  0.5490570000000  0.5454300000000  0.5418520000000 1.0
C      1  0.5589620000000  0.4671410000000  0.5417530000000 1.0
C      1  0.4871740000000  0.4322790000000  0.5410430000000 1.0
C      1  0.4316830000000  0.4919840000000  0.5423240000000 1.0
C      1  0.4712560000000  0.5606220000000  0.5418010000000 1.0
C      1  0.5191550000000  0.5373020000000  0.4690360000000 1.0
C      1  0.5419790000000  0.4934500000000  0.4687210000000 1.0
C      1  0.5063790000000  0.4585600000000  0.4691740000000 1.0
C      1  0.4618950000000  0.4811980000000  0.4687570000000 1.0
C      1  0.4700230000000  0.5295100000000  0.4701340000000 1.0
C      1  0.5257550000000  0.5135670000000  0.4031560000000 1.0
C      1  0.5213950000000  0.4819940000000  0.4058620000000 1.0
C      1  0.4896410000000  0.4750610000000  0.4039150000000 1.0
C      1  0.4745660000000  0.5028010000000  0.4049560000000 1.0
C      1  0.4970600000000  0.5267560000000  0.4056160000000 1.0
C      1  0.5611360000000  0.4276050000000  0.4491930000000 1.0
C      1  0.4496330000000  0.4207320000000  0.4496330000000 1.0
C      1  0.4114170000000  0.5254630000000  0.4499720000000 1.0
C      1  0.4941400000000  0.5938380000000  0.4495420000000 1.0
C      1  0.5872290000000  0.5316830000000  0.4506810000000 1.0
C      1  0.5368820000000  0.5182260000000  0.4851390000000 1.0
C      1  0.5294160000000  0.4707280000000  0.4845460000000 1.0
C      1  0.4807360000000  0.4631080000000  0.4844590000000 1.0
C      1  0.4589750000000  0.5065760000000  0.4857290000000 1.0
C      1  0.4935180000000  0.5405160000000  0.4853750000000 1.0
C      1  0.5647840000000  0.4080000000000  0.5582400000000 1.0
C      1  0.4309740000000  0.4103160000000  0.5573860000000 1.0
C      1  0.3934290000000  0.5388010000000  0.5567610000000 1.0
C      1  0.5016280000000  0.6121830000000  0.5581530000000 1.0
C      1  0.6075960000000  0.5314410000000  0.5576850000000 1.0
C      1  0.4552840000000  0.4447250000000  0.4328650000000 1.0
C      1  0.4348710000000  0.5267680000000  0.4319910000000 1.0
C      1  0.5045460000000  0.5715150000000  0.4327620000000 1.0
C      1  0.5698100000000  0.5167330000000  0.4321030000000 1.0
C      1  0.5397220000000  0.4398080000000  0.4324500000000 1.0
C      1  0.4765180000000  0.4886140000000  0.4421660000000 1.0
C      1  0.4815390000000  0.5179720000000  0.4456390000000 1.0
C      1  0.5109150000000  0.5233020000000  0.4424670000000 1.0
C      1  0.5251220000000  0.4959130000000  0.4425860000000 1.0
C      1  0.5036040000000  0.4753970000000  0.4453640000000 1.0
C      1  0.6278720000000  0.4873820000000  0.4956520000000 1.0
C      1  0.5290960000000  0.3801500000000  0.4992690000000 1.0
C      1  0.3938720000000  0.4370780000000  0.4988450000000 1.0
C      1  0.4043950000000  0.5855360000000  0.4945050000000 1.0
C      1  0.5476230000000  0.6128740000000  0.5001330000000 1.0
C      1  0.5155190000000  0.4285410000000  0.4678230000000 1.0
C      1  0.4363540000000  0.4638630000000  0.4682240000000 1.0
C      1  0.4442820000000  0.5472700000000  0.4697770000000 1.0
C      1  0.5298330000000  0.5664970000000  0.4686910000000 1.0
C      1  0.5733920000000  0.4944710000000  0.4698540000000 1.0
C      1  0.5272340000000  0.4117940000000  0.5483530000000 1.0
C      1  0.4223050000000  0.4469530000000  0.5470330000000 1.0
C      1  0.4277260000000  0.5562790000000  0.5515310000000 1.0
C      1  0.5294390000000  0.5863150000000  0.5489940000000 1.0
C      1  0.5904870000000  0.4969780000000  0.5523940000000 1.0
C      1  0.5620180000000  0.5210780000000  0.5839620000000 1.0
C      1  0.5383360000000  0.4464750000000  0.5827760000000 1.0
C      1  0.4584540000000  0.4476090000000  0.5802830000000 1.0
C      1  0.4354220000000  0.5213580000000  0.5845260000000 1.0
C      1  0.4992750000000  0.5660800000000  0.5831950000000 1.0
C      1  0.4716630000000  0.6124960000000  0.4913970000000 1.0
C      1  0.5998450000000  0.5585150000000  0.4910140000000 1.0
C      1  0.5897070000000  0.4257380000000  0.4914590000000 1.0
C      1  0.4546830000000  0.3921840000000  0.4912180000000 1.0
C      1  0.3844260000000  0.5118050000000  0.4898590000000 1.0
C      1  0.4868360000000  0.4368640000000  0.5723500000000 1.0
C      1  0.4325740000000  0.4928780000000  0.5747060000000 1.0
C      1  0.4719800000000  0.5584850000000  0.5727350000000 1.0
C      1  0.5464630000000  0.5445200000000  0.5729170000000 1.0
C      1  0.5563420000000  0.4686890000000  0.5728750000000 1.0
C      1  0.4306210000000  0.4816110000000  0.4162200000000 1.0
C      1  0.4623080000000  0.5616940000000  0.4133290000000 1.0
C      1  0.5464890000000  0.5560570000000  0.4172330000000 1.0
C      1  0.5691610000000  0.4721820000000  0.4137050000000 1.0
C      1  0.4968430000000  0.4273650000000  0.4159070000000 1.0
C      1  0.5718060000000  0.4427200000000  0.4733090000000 1.0
C      1  0.4664960000000  0.4145620000000  0.4741610000000 1.0
C      1  0.4094860000000  0.5069300000000  0.4739550000000 1.0
C      1  0.4762850000000  0.5880590000000  0.4734830000000 1.0
C      1  0.5771340000000  0.5475980000000  0.4746230000000 1.0
C      1  0.4303250000000  0.4557940000000  0.4252420000000 1.0
C      1  0.4380960000000  0.5540200000000  0.4236970000000 1.0
C      1  0.5313910000000  0.5772700000000  0.4258820000000 1.0
C      1  0.5836180000000  0.4929570000000  0.4241680000000 1.0
C      1  0.5214540000000  0.4193360000000  0.4250950000000 1.0
C      1  0.5411940000000  0.5961150000000  0.4455740000000 1.0
C      1  0.6037670000000  0.4875470000000  0.4450930000000 1.0
C      1  0.5243050000000  0.3981620000000  0.4447270000000 1.0
C      1  0.4104650000000  0.4466930000000  0.4443760000000 1.0
C      1  0.4247050000000  0.5706160000000  0.4442420000000 1.0
C      1  0.4388120000000  0.4486680000000  0.4955480000000 1.0
C      1  0.4316780000000  0.5426290000000  0.5028550000000 1.0
C      1  0.5184540000000  0.5771320000000  0.4959400000000 1.0
C      1  0.5802490000000  0.5055790000000  0.5030190000000 1.0
C      1  0.5310640000000  0.4263800000000  0.4951040000000 1.0
C      1  0.4973130000000  0.5255420000000  0.5112380000000 1.0
C      1  0.5237990000000  0.5099170000000  0.5109710000000 1.0
C      1  0.5174070000000  0.4799530000000  0.5102930000000 1.0
C      1  0.4866770000000  0.4769030000000  0.5100560000000 1.0
C      1  0.4742530000000  0.5051340000000  0.5114180000000 1.0
C      1  0.4727640000000  0.4613930000000  0.5336340000000 1.0
C      1  0.4556060000000  0.5130630000000  0.5358510000000 1.0
C      1  0.4995530000000  0.5455190000000  0.5347630000000 1.0
C      1  0.5431390000000  0.5142330000000  0.5351050000000 1.0
C      1  0.5274890000000  0.4620780000000  0.5336060000000 1.0
END
