TITL C-3578204-4308-401 -1.59056123743103e-06 125000 -400.761699614219 0 0 66 (C1) n - 1
REM
REM in /home/bkarasulu/work/CARBON/AIRSS/Generating-Clusters/EDIP-Nigel-Params/with-SteepDescent/Higher-Symm/SD-CG/HFTN-CG
REM
REM
REM
REM
REM
REM ./C.cell (12c818d87b63d06a65506943cc24bca4)
REM
REM compiler GCC version 9.2.1 20190827 (Red Hat 9.2.1-1)
REM options -cpp -mtune=generic -march=x86-64 -g -O0 -fpre-include=/usr/include/finclude/math-vector-fortran.h
REM seed 1942040099 1879953034 -1173732521 1515285412 -541558545 838660258 1993977032 -1639208474 2105382002 1443376557 1002558026 -1729700507 -391930719 1897034301 -600992812 1269981708 -1136328080 2074749518 -2119753187 -242293920 -843332888 1950020749 1701707600 -1161613887 1650171122 -2131578885 713668926 234032789 -2007549705 295561563 -2021768744 -1744111338 -256397506
REM
CELL 1.54180   50.00000   50.00000   50.00000   90.00000   90.00000   90.00000
LATT -1
SFAC C  
C      1  0.4377660000000  0.5208600000000  0.5153850000000 1.0
C      1  0.4935920000000  0.4442490000000  0.5359330000000 1.0
C      1  0.5448360000000  0.4959770000000  0.4382050000000 1.0
C      1  0.4474740000000  0.4715810000000  0.5054240000000 1.0
C      1  0.5570580000000  0.4649880000000  0.4945970000000 1.0
C      1  0.5630680000000  0.5434730000000  0.5049950000000 1.0
C      1  0.4985570000000  0.5445120000000  0.4622490000000 1.0
C      1  0.4995020000000  0.5540180000000  0.5362330000000 1.0
C      1  0.4985160000000  0.4448890000000  0.4571940000000 1.0
C      1  0.5395730000000  0.5044530000000  0.5607080000000 1.0
C      1  0.4758900000000  0.4944580000000  0.4390220000000 1.0
C      1  0.4604010000000  0.5042270000000  0.5597350000000 1.0
C      1  0.4372390000000  0.4960150000000  0.5452540000000 1.0
C      1  0.5149620000000  0.5208210000000  0.4381090000000 1.0
C      1  0.5350390000000  0.4447310000000  0.4938340000000 1.0
C      1  0.4389050000000  0.4946140000000  0.4762420000000 1.0
C      1  0.5601110000000  0.5043120000000  0.4608080000000 1.0
C      1  0.5582430000000  0.5032510000000  0.5378690000000 1.0
C      1  0.4950050000000  0.4657750000000  0.5565130000000 1.0
C      1  0.5049750000000  0.5434580000000  0.5629590000000 1.0
C      1  0.5049780000000  0.4713200000000  0.4476260000000 1.0
C      1  0.5362070000000  0.5539930000000  0.4998430000000 1.0
C      1  0.4570080000000  0.4451080000000  0.4990590000000 1.0
C      1  0.4619600000000  0.5445790000000  0.4988730000000 1.0
C      1  0.4527950000000  0.5615080000000  0.5209660000000 1.0
C      1  0.5208420000000  0.4583210000000  0.5680700000000 1.0
C      1  0.5713560000000  0.5307100000000  0.4560190000000 1.0
C      1  0.4495410000000  0.4366420000000  0.4714430000000 1.0
C      1  0.5402840000000  0.4325800000000  0.5199960000000 1.0
C      1  0.5406510000000  0.5658870000000  0.4738580000000 1.0
C      1  0.5315890000000  0.5459940000000  0.4300040000000 1.0
C      1  0.4785900000000  0.5484070000000  0.5750280000000 1.0
C      1  0.4608070000000  0.4507650000000  0.4272710000000 1.0
C      1  0.5684810000000  0.4763510000000  0.5422680000000 1.0
C      1  0.4321420000000  0.4777840000000  0.4536030000000 1.0
C      1  0.4333410000000  0.5431280000000  0.5598220000000 1.0
C      1  0.4558730000000  0.5305310000000  0.5713700000000 1.0
C      1  0.5206880000000  0.5614540000000  0.4530880000000 1.0
C      1  0.5680610000000  0.4572580000000  0.5207160000000 1.0
C      1  0.4531420000000  0.4776860000000  0.4324680000000 1.0
C      1  0.5594990000000  0.5430630000000  0.4335240000000 1.0
C      1  0.5429130000000  0.4768110000000  0.5699880000000 1.0
C      1  0.5200690000000  0.4326420000000  0.5408440000000 1.0
C      1  0.4736150000000  0.5659600000000  0.5408740000000 1.0
C      1  0.4708410000000  0.4364600000000  0.4499640000000 1.0
C      1  0.5749940000000  0.5486390000000  0.4786770000000 1.0
C      1  0.4268190000000  0.4509430000000  0.4614660000000 1.0
C      1  0.4297480000000  0.5460740000000  0.5319180000000 1.0
C      1  0.4812400000000  0.4874230000000  0.5708190000000 1.0
C      1  0.4934330000000  0.5088810000000  0.4206870000000 1.0
C      1  0.5144530000000  0.5165500000000  0.5691830000000 1.0
C      1  0.5245410000000  0.4785590000000  0.4279150000000 1.0
C      1  0.4840800000000  0.5564340000000  0.4843560000000 1.0
C      1  0.5116890000000  0.4331700000000  0.4804140000000 1.0
C      1  0.5706740000000  0.4880590000000  0.4823020000000 1.0
C      1  0.5707920000000  0.5172300000000  0.5156350000000 1.0
C      1  0.4205000000000  0.5090540000000  0.4936780000000 1.0
C      1  0.4274110000000  0.4786090000000  0.5247320000000 1.0
C      1  0.4806760000000  0.4337980000000  0.5117370000000 1.0
C      1  0.5148240000000  0.5664410000000  0.5149870000000 1.0
C      1  0.5099430000000  0.4904570000000  0.4061970000000 1.0
C      1  0.4058440000000  0.4905450000000  0.5099290000000 1.0
C      1  0.4956570000000  0.4153720000000  0.4959150000000 1.0
C      1  0.4987490000000  0.5019980000000  0.5879680000000 1.0
C      1  0.5885350000000  0.5020700000000  0.4994220000000 1.0
C      1  0.4967480000000  0.5786220000000  0.4968830000000 1.0
END
