TITL C-3577081-279-591 -2.77218836074963e-07 125000 -202.190509034639 0 0 35 (D3) n - 1
REM
REM in /home/bkarasulu/work/CARBON/AIRSS/Generating-Clusters/EDIP-Nigel-Params/with-SteepDescent/Higher-Symm/SD-CG/HFTN-CG
REM
REM
REM
REM
REM
REM ./C.cell (12c818d87b63d06a65506943cc24bca4)
REM
REM compiler GCC version 9.2.1 20190827 (Red Hat 9.2.1-1)
REM options -cpp -mtune=generic -march=x86-64 -g -O0 -fpre-include=/usr/include/finclude/math-vector-fortran.h
REM seed -867287891 211546831 -1034578824 1159781451 1553542121 -43264479 183485910 1468053001 -824011916 -336008485 1123570675 -1456614336 1931539936 1904844539 -1710981631 1539192156 807973449 -1951759085 -1363077507 522777439 265118219 -1837973176 -1055769036 -1972121244 -589281492 -478287601 561969382 -1679546384 1488668312 491508837 -1186930752 1095861241 -1910171372
REM
CELL 1.54180   50.00000   50.00000   50.00000   90.00000   90.00000   90.00000
LATT -1
SFAC C  
C      1  0.4566400000000  0.5185880000000  0.4675340000000 1.0
C      1  0.5377220000000  0.5280220000000  0.4674970000000 1.0
C      1  0.5053510000000  0.4530870000000  0.4674440000000 1.0
C      1  0.4564540000000  0.4816770000000  0.5405960000000 1.0
C      1  0.5374130000000  0.4712400000000  0.5405400000000 1.0
C      1  0.5059720000000  0.5465710000000  0.5406300000000 1.0
C      1  0.4989710000000  0.5545580000000  0.5110850000000 1.0
C      1  0.5477800000000  0.4733370000000  0.5109790000000 1.0
C      1  0.4530360000000  0.4716780000000  0.5110320000000 1.0
C      1  0.4982860000000  0.4451870000000  0.4969970000000 1.0
C      1  0.5480970000000  0.5257970000000  0.4970450000000 1.0
C      1  0.4533810000000  0.5286290000000  0.4971030000000 1.0
C      1  0.4745120000000  0.4555810000000  0.4675920000000 1.0
C      1  0.4742200000000  0.5440490000000  0.4676770000000 1.0
C      1  0.5509810000000  0.5000680000000  0.4675910000000 1.0
C      1  0.4751040000000  0.5444580000000  0.5405170000000 1.0
C      1  0.4737170000000  0.4560010000000  0.5404330000000 1.0
C      1  0.5510170000000  0.4990290000000  0.5404300000000 1.0
C      1  0.5212320000000  0.4810760000000  0.4675700000000 1.0
C      1  0.4729390000000  0.4908410000000  0.4676070000000 1.0
C      1  0.5055420000000  0.5277810000000  0.4676230000000 1.0
C      1  0.5215050000000  0.5183870000000  0.5404860000000 1.0
C      1  0.4730950000000  0.5092210000000  0.5405050000000 1.0
C      1  0.5052390000000  0.4718800000000  0.5404510000000 1.0
C      1  0.5006710000000  0.4724270000000  0.5094670000000 1.0
C      1  0.4758000000000  0.5129320000000  0.5095200000000 1.0
C      1  0.5233140000000  0.5142180000000  0.5094940000000 1.0
C      1  0.5010040000000  0.5272900000000  0.4986120000000 1.0
C      1  0.4756340000000  0.4870960000000  0.4985880000000 1.0
C      1  0.5231280000000  0.4852220000000  0.4985590000000 1.0
C      1  0.4677320000000  0.5564300000000  0.5041130000000 1.0
C      1  0.4670350000000  0.4437010000000  0.5040050000000 1.0
C      1  0.5650090000000  0.4994610000000  0.5040020000000 1.0
C      1  0.4999510000000  0.4998210000000  0.5491870000000 1.0
C      1  0.4998990000000  0.4999070000000  0.4588930000000 1.0
END
