TITL C-3578199-7832-509 -1.87593280202152e-07 125000 -55.3193598658062 0 0 10 (Cs) n - 1
REM
REM in /home/bkarasulu/work/CARBON/AIRSS/Generating-Clusters/EDIP-Nigel-Params/with-SteepDescent/Higher-Symm/SD-CG/HFTN-CG
REM
REM
REM
REM
REM
REM ./C.cell (12c818d87b63d06a65506943cc24bca4)
REM
REM compiler GCC version 9.2.1 20190827 (Red Hat 9.2.1-1)
REM options -cpp -mtune=generic -march=x86-64 -g -O0 -fpre-include=/usr/include/finclude/math-vector-fortran.h
REM seed 882122452 23290288 1356341536 165065624 1443382190 -883834254 -1887798198 -1646378546 -1552982493 942468204 -1713350067 -737985101 -1010947606 1705954151 -2116475239 652171012 -1189120223 -405581205 -705478130 -97963203 -1744730661 -815210177 -709611007 172441114 -1555781695 -1978680250 11947919 -1038043531 -1919919340 1722995875 1660692722 542547415 1379969220
REM
CELL 1.54180   50.00000   50.00000   50.00000   90.00000   90.00000   90.00000
LATT -1
SFAC C  
C      1  0.4882900000000  0.4806650000000  0.5263590000000 1.0
C      1  0.5232850000000  0.4822810000000  0.4954990000000 1.0
C      1  0.4791450000000  0.4823500000000  0.4806090000000 1.0
C      1  0.4878240000000  0.5078000000000  0.5278680000000 1.0
C      1  0.5309840000000  0.5081170000000  0.4955710000000 1.0
C      1  0.4730490000000  0.5082090000000  0.4760270000000 1.0
C      1  0.5179160000000  0.5320860000000  0.4995130000000 1.0
C      1  0.4811260000000  0.5321440000000  0.4871020000000 1.0
C      1  0.4925650000000  0.5318950000000  0.5139260000000 1.0
C      1  0.4970110000000  0.4739350000000  0.5004760000000 1.0
END
