TITL C-3578196-9646-621 5.25945928924793e-06 125000 -1160.05409370449 0 0 183 (C1) n - 1
REM
REM in /home/bkarasulu/work/CARBON/AIRSS/Generating-Clusters/EDIP-Nigel-Params/with-SteepDescent/Higher-Symm/SD-CG/HFTN-CG
REM
REM
REM
REM
REM
REM ./C.cell (12c818d87b63d06a65506943cc24bca4)
REM
REM compiler GCC version 9.2.1 20190827 (Red Hat 9.2.1-1)
REM options -cpp -mtune=generic -march=x86-64 -g -O0 -fpre-include=/usr/include/finclude/math-vector-fortran.h
REM seed -1127098864 1404956227 396043088 1062726114 1597756135 95045752 -1081054612 186393278 -747615362 -1435162996 -1978885546 -733792631 87827765 -1225000314 -995812680 -483988045 -1833113203 -76803924 1292456090 -412048558 720780144 -787113548 -1686060748 1089558032 -516736031 -448861292 -1086815590 1795939613 868461186 2011423413 -2102932338 744082832 -637759813
REM
CELL 1.54180   50.00000   50.00000   50.00000   90.00000   90.00000   90.00000
LATT -1
SFAC C  
C      1  0.5244040000000  0.4634590000000  0.5047350000000 1.0
C      1  0.4745670000000  0.4630030000000  0.5018440000000 1.0
C      1  0.4466720000000  0.5369220000000  0.6027530000000 1.0
C      1  0.5554540000000  0.5376840000000  0.6040450000000 1.0
C      1  0.5402420000000  0.5404650000000  0.5559980000000 1.0
C      1  0.4508450000000  0.5285370000000  0.5472850000000 1.0
C      1  0.5518570000000  0.4514150000000  0.5006440000000 1.0
C      1  0.4482770000000  0.4492820000000  0.4979020000000 1.0
C      1  0.4256600000000  0.5184730000000  0.5941570000000 1.0
C      1  0.5760060000000  0.5193470000000  0.5935840000000 1.0
C      1  0.4088490000000  0.5529280000000  0.4993780000000 1.0
C      1  0.5908220000000  0.5506950000000  0.5003960000000 1.0
C      1  0.5172530000000  0.5817900000000  0.4270860000000 1.0
C      1  0.4790610000000  0.5829090000000  0.4281000000000 1.0
C      1  0.5513450000000  0.5451630000000  0.4066080000000 1.0
C      1  0.4473240000000  0.5483640000000  0.4082510000000 1.0
C      1  0.4079690000000  0.4651210000000  0.5527220000000 1.0
C      1  0.5979250000000  0.4572480000000  0.5551860000000 1.0
C      1  0.4837230000000  0.5872770000000  0.5032850000000 1.0
C      1  0.5147980000000  0.5836420000000  0.5030970000000 1.0
C      1  0.5680320000000  0.4771060000000  0.5081590000000 1.0
C      1  0.4296610000000  0.4727440000000  0.5049870000000 1.0
C      1  0.4809410000000  0.5682130000000  0.5600290000000 1.0
C      1  0.5128100000000  0.5742670000000  0.5558530000000 1.0
C      1  0.5292920000000  0.5373330000000  0.4443040000000 1.0
C      1  0.4717270000000  0.5356300000000  0.4423620000000 1.0
C      1  0.4840060000000  0.4763320000000  0.5746360000000 1.0
C      1  0.5182510000000  0.4762030000000  0.5787500000000 1.0
C      1  0.5887090000000  0.5345480000000  0.5738980000000 1.0
C      1  0.4078330000000  0.5354690000000  0.5812400000000 1.0
C      1  0.4843310000000  0.5448290000000  0.5149960000000 1.0
C      1  0.5123670000000  0.5420770000000  0.5173600000000 1.0
C      1  0.5167720000000  0.5494930000000  0.5861240000000 1.0
C      1  0.4876430000000  0.5516060000000  0.5847880000000 1.0
C      1  0.4825080000000  0.4071440000000  0.5385300000000 1.0
C      1  0.5210480000000  0.4042320000000  0.5406760000000 1.0
C      1  0.4513580000000  0.5713230000000  0.4267080000000 1.0
C      1  0.5447950000000  0.5676910000000  0.4255920000000 1.0
C      1  0.4478610000000  0.4908740000000  0.4598960000000 1.0
C      1  0.5532920000000  0.4943820000000  0.4562700000000 1.0
C      1  0.5156390000000  0.5138800000000  0.4312540000000 1.0
C      1  0.4872990000000  0.5110930000000  0.4365270000000 1.0
C      1  0.5236530000000  0.4394600000000  0.4565770000000 1.0
C      1  0.4777540000000  0.4381950000000  0.4568020000000 1.0
C      1  0.4837720000000  0.5502950000000  0.4677690000000 1.0
C      1  0.5154400000000  0.5495630000000  0.4689080000000 1.0
C      1  0.4731520000000  0.5323530000000  0.4905950000000 1.0
C      1  0.5251100000000  0.5322840000000  0.4928930000000 1.0
C      1  0.4857950000000  0.4681900000000  0.4534210000000 1.0
C      1  0.5165630000000  0.4694510000000  0.4542760000000 1.0
C      1  0.3972900000000  0.4925010000000  0.4594340000000 1.0
C      1  0.5972260000000  0.4890250000000  0.4592190000000 1.0
C      1  0.5661740000000  0.5671840000000  0.4483610000000 1.0
C      1  0.4324770000000  0.5677160000000  0.4499860000000 1.0
C      1  0.4589800000000  0.6001800000000  0.5331460000000 1.0
C      1  0.5385010000000  0.6004690000000  0.5323650000000 1.0
C      1  0.4876310000000  0.3881370000000  0.4791100000000 1.0
C      1  0.5149330000000  0.3883870000000  0.4812690000000 1.0
C      1  0.5733640000000  0.5283670000000  0.4178950000000 1.0
C      1  0.4247850000000  0.5301420000000  0.4185140000000 1.0
C      1  0.5138450000000  0.5950030000000  0.4526590000000 1.0
C      1  0.4845850000000  0.5962530000000  0.4530830000000 1.0
C      1  0.4687860000000  0.4156520000000  0.5636210000000 1.0
C      1  0.5336240000000  0.4150900000000  0.5644920000000 1.0
C      1  0.5255070000000  0.5780110000000  0.4746310000000 1.0
C      1  0.4735790000000  0.5793450000000  0.4749540000000 1.0
C      1  0.3987150000000  0.5225910000000  0.4643770000000 1.0
C      1  0.5978590000000  0.5180190000000  0.4651440000000 1.0
C      1  0.4725440000000  0.5272590000000  0.5924950000000 1.0
C      1  0.5293930000000  0.5256170000000  0.5961770000000 1.0
C      1  0.4872630000000  0.6162510000000  0.5136200000000 1.0
C      1  0.5178440000000  0.6137860000000  0.5123220000000 1.0
C      1  0.5262580000000  0.4825810000000  0.4808990000000 1.0
C      1  0.4737310000000  0.4824190000000  0.4773850000000 1.0
C      1  0.5790830000000  0.5379380000000  0.4462240000000 1.0
C      1  0.4211310000000  0.5384640000000  0.4477020000000 1.0
C      1  0.5321170000000  0.4882150000000  0.4308880000000 1.0
C      1  0.4712250000000  0.4860920000000  0.4297180000000 1.0
C      1  0.5742210000000  0.4547990000000  0.4330800000000 1.0
C      1  0.4266580000000  0.4598710000000  0.4367530000000 1.0
C      1  0.4196220000000  0.5378020000000  0.5543810000000 1.0
C      1  0.5724470000000  0.5444080000000  0.5521070000000 1.0
C      1  0.4661760000000  0.5072060000000  0.5704550000000 1.0
C      1  0.5327430000000  0.5033230000000  0.5777580000000 1.0
C      1  0.5534050000000  0.5256420000000  0.4573140000000 1.0
C      1  0.4469630000000  0.5232870000000  0.4559350000000 1.0
C      1  0.5357290000000  0.4039070000000  0.4923050000000 1.0
C      1  0.4659150000000  0.4023710000000  0.4903070000000 1.0
C      1  0.4221440000000  0.4909880000000  0.5512580000000 1.0
C      1  0.5717320000000  0.4930630000000  0.5534470000000 1.0
C      1  0.4995890000000  0.4447070000000  0.5039400000000 1.0
C      1  0.4977320000000  0.4347360000000  0.5338610000000 1.0
C      1  0.5833240000000  0.4205460000000  0.4943860000000 1.0
C      1  0.4165670000000  0.4187310000000  0.4931240000000 1.0
C      1  0.4862720000000  0.5068820000000  0.4858080000000 1.0
C      1  0.5131790000000  0.5065580000000  0.4885690000000 1.0
C      1  0.4286930000000  0.4498130000000  0.5689230000000 1.0
C      1  0.5729740000000  0.4484140000000  0.5718270000000 1.0
C      1  0.5851790000000  0.4335270000000  0.4481880000000 1.0
C      1  0.4138120000000  0.4383730000000  0.4496360000000 1.0
C      1  0.4855570000000  0.4644650000000  0.3939310000000 1.0
C      1  0.5128660000000  0.4659620000000  0.3985060000000 1.0
C      1  0.4045640000000  0.4413920000000  0.4767730000000 1.0
C      1  0.5961330000000  0.4386590000000  0.4745380000000 1.0
C      1  0.4480610000000  0.5137970000000  0.5221960000000 1.0
C      1  0.5507710000000  0.5223530000000  0.5278790000000 1.0
C      1  0.5545660000000  0.4817530000000  0.3992990000000 1.0
C      1  0.4421300000000  0.4848000000000  0.3995850000000 1.0
C      1  0.5581420000000  0.5845020000000  0.5734950000000 1.0
C      1  0.4377730000000  0.5812530000000  0.5726590000000 1.0
C      1  0.5562320000000  0.5282360000000  0.4985980000000 1.0
C      1  0.4397760000000  0.5246460000000  0.4952070000000 1.0
C      1  0.4853130000000  0.5161310000000  0.3876220000000 1.0
C      1  0.5152780000000  0.5143000000000  0.3869660000000 1.0
C      1  0.4039170000000  0.5135240000000  0.5408850000000 1.0
C      1  0.5996430000000  0.4879230000000  0.5463540000000 1.0
C      1  0.5342580000000  0.4620730000000  0.6014580000000 1.0
C      1  0.4681720000000  0.4638630000000  0.5972610000000 1.0
C      1  0.4278620000000  0.4958060000000  0.4835880000000 1.0
C      1  0.5655440000000  0.4994810000000  0.4871950000000 1.0
C      1  0.4479460000000  0.4372850000000  0.4678510000000 1.0
C      1  0.5524200000000  0.4396450000000  0.4681800000000 1.0
C      1  0.6000050000000  0.5242910000000  0.4940560000000 1.0
C      1  0.3960000000000  0.5290090000000  0.4927170000000 1.0
C      1  0.4868150000000  0.4257830000000  0.5842090000000 1.0
C      1  0.5156310000000  0.4196550000000  0.5874860000000 1.0
C      1  0.5735780000000  0.5740850000000  0.5498110000000 1.0
C      1  0.4242320000000  0.5682700000000  0.5490270000000 1.0
C      1  0.4666880000000  0.5527180000000  0.5372430000000 1.0
C      1  0.5278300000000  0.5599630000000  0.5343380000000 1.0
C      1  0.5630010000000  0.4680460000000  0.5937570000000 1.0
C      1  0.4398930000000  0.4688100000000  0.5899840000000 1.0
C      1  0.4416460000000  0.4270230000000  0.5207310000000 1.0
C      1  0.5593270000000  0.4300770000000  0.5232000000000 1.0
C      1  0.4426190000000  0.4572910000000  0.4124190000000 1.0
C      1  0.5566560000000  0.4532810000000  0.4095510000000 1.0
C      1  0.6107360000000  0.4739600000000  0.5066500000000 1.0
C      1  0.3868030000000  0.4790980000000  0.5079700000000 1.0
C      1  0.4510010000000  0.4379220000000  0.5513530000000 1.0
C      1  0.5489620000000  0.4396100000000  0.5537720000000 1.0
C      1  0.4448460000000  0.5728240000000  0.5273400000000 1.0
C      1  0.5628790000000  0.5841670000000  0.5244310000000 1.0
C      1  0.5616650000000  0.4958440000000  0.5808660000000 1.0
C      1  0.4376530000000  0.4964120000000  0.5776040000000 1.0
C      1  0.6058050000000  0.5021500000000  0.5147520000000 1.0
C      1  0.3965130000000  0.5072780000000  0.5128250000000 1.0
C      1  0.4739710000000  0.4377620000000  0.6058530000000 1.0
C      1  0.5287160000000  0.4351110000000  0.6067680000000 1.0
C      1  0.5557430000000  0.5764350000000  0.4743560000000 1.0
C      1  0.4440090000000  0.5769170000000  0.4754210000000 1.0
C      1  0.5959050000000  0.4549420000000  0.5250570000000 1.0
C      1  0.4003520000000  0.4591070000000  0.5250930000000 1.0
C      1  0.4770110000000  0.4571110000000  0.5488720000000 1.0
C      1  0.5264050000000  0.4611590000000  0.5534960000000 1.0
C      1  0.3927820000000  0.4696650000000  0.4806270000000 1.0
C      1  0.6008490000000  0.4677280000000  0.4797390000000 1.0
C      1  0.4704620000000  0.4759050000000  0.5281240000000 1.0
C      1  0.5268930000000  0.4785050000000  0.5307940000000 1.0
C      1  0.4708150000000  0.4895370000000  0.3908280000000 1.0
C      1  0.5274460000000  0.4877150000000  0.3874490000000 1.0
C      1  0.5534330000000  0.4922740000000  0.5307860000000 1.0
C      1  0.4430870000000  0.4866650000000  0.5281110000000 1.0
C      1  0.4307390000000  0.5014670000000  0.4207530000000 1.0
C      1  0.5716810000000  0.4990650000000  0.4165980000000 1.0
C      1  0.4324520000000  0.5675980000000  0.5002570000000 1.0
C      1  0.5697270000000  0.5697980000000  0.4995880000000 1.0
C      1  0.4120920000000  0.4843250000000  0.4351450000000 1.0
C      1  0.5873560000000  0.4806540000000  0.4333480000000 1.0
C      1  0.4737630000000  0.5374040000000  0.4035980000000 1.0
C      1  0.5332190000000  0.5359150000000  0.3872630000000 1.0
C      1  0.4635930000000  0.5932370000000  0.5626450000000 1.0
C      1  0.5321820000000  0.5968590000000  0.5628620000000 1.0
C      1  0.5597730000000  0.4125080000000  0.4780330000000 1.0
C      1  0.4406340000000  0.4093610000000  0.4767130000000 1.0
C      1  0.4412570000000  0.5635700000000  0.5945620000000 1.0
C      1  0.5571710000000  0.5649170000000  0.5946120000000 1.0
C      1  0.5284420000000  0.4432270000000  0.4071740000000 1.0
C      1  0.4704520000000  0.4464510000000  0.4103140000000 1.0
C      1  0.4611750000000  0.4051050000000  0.5180630000000 1.0
C      1  0.5411370000000  0.4067820000000  0.5198790000000 1.0
C      1  0.4846940000000  0.4276740000000  0.4293080000000 1.0
C      1  0.5160780000000  0.4271910000000  0.4292210000000 1.0
C      1  0.5007100000000  0.4267610000000  0.4774710000000 1.0
END
