TITL C-3578196-9646-33 1.78995639644328e-06 125000 -592.189337591683 0 0 96 (S4) n - 1
REM
REM in /home/bkarasulu/work/CARBON/AIRSS/Generating-Clusters/EDIP-Nigel-Params/with-SteepDescent/Higher-Symm/SD-CG/HFTN-CG
REM
REM
REM
REM
REM
REM ./C.cell (12c818d87b63d06a65506943cc24bca4)
REM
REM compiler GCC version 9.2.1 20190827 (Red Hat 9.2.1-1)
REM options -cpp -mtune=generic -march=x86-64 -g -O0 -fpre-include=/usr/include/finclude/math-vector-fortran.h
REM seed -1725066490 544993938 244786376 -1738446331 -939583124 480834703 2012066998 -218582423 1577323195 1126759288 1596328650 -288895809 726485706 1639550444 -1445139892 -1199597655 -2116576132 1771984311 1045834792 -451289130 -1977929245 1515910425 1897297088 -796558376 -1554977086 -759496722 -1967073245 1691053075 37285401 -1736936450 1158776260 1351542527 -801105897
REM
CELL 1.54180   50.00000   50.00000   50.00000   90.00000   90.00000   90.00000
LATT -1
SFAC C  
C      1  0.5740990000000  0.5030850000000  0.5352320000000 1.0
C      1  0.5352320000000  0.4969130000000  0.4259010000000 1.0
C      1  0.4259010000000  0.5030930000000  0.4647680000000 1.0
C      1  0.4647680000000  0.4969100000000  0.5740990000000 1.0
C      1  0.4786580000000  0.5232250000000  0.4704200000000 1.0
C      1  0.4704190000000  0.4767770000000  0.5213420000000 1.0
C      1  0.5213430000000  0.5232210000000  0.5295810000000 1.0
C      1  0.5295800000000  0.4767760000000  0.4786570000000 1.0
C      1  0.4619080000000  0.5252500000000  0.5364800000000 1.0
C      1  0.5364790000000  0.4747470000000  0.5380920000000 1.0
C      1  0.5380940000000  0.5252500000000  0.4635210000000 1.0
C      1  0.4635190000000  0.4747520000000  0.4619060000000 1.0
C      1  0.5521940000000  0.5428730000000  0.4839320000000 1.0
C      1  0.4839290000000  0.4571280000000  0.4478060000000 1.0
C      1  0.4478090000000  0.5428760000000  0.5160710000000 1.0
C      1  0.5160670000000  0.4571230000000  0.5521910000000 1.0
C      1  0.5766940000000  0.4877430000000  0.4420070000000 1.0
C      1  0.4420080000000  0.5122610000000  0.4233060000000 1.0
C      1  0.4233050000000  0.4877440000000  0.5579920000000 1.0
C      1  0.5579930000000  0.5122520000000  0.5766950000000 1.0
C      1  0.5269380000000  0.4169130000000  0.4914210000000 1.0
C      1  0.4914270000000  0.5830880000000  0.4730620000000 1.0
C      1  0.4730560000000  0.4169140000000  0.5085730000000 1.0
C      1  0.5085790000000  0.5830850000000  0.5269440000000 1.0
C      1  0.5143210000000  0.4399370000000  0.5067720000000 1.0
C      1  0.5067760000000  0.5600620000000  0.4856790000000 1.0
C      1  0.4856740000000  0.4399390000000  0.4932240000000 1.0
C      1  0.4932280000000  0.5600620000000  0.5143260000000 1.0
C      1  0.5820700000000  0.5029940000000  0.4914050000000 1.0
C      1  0.4914050000000  0.4970060000000  0.4179300000000 1.0
C      1  0.4179300000000  0.5030000000000  0.5085950000000 1.0
C      1  0.5085950000000  0.4970000000000  0.5820700000000 1.0
C      1  0.4653940000000  0.5054020000000  0.4103640000000 1.0
C      1  0.4103640000000  0.4946050000000  0.5346060000000 1.0
C      1  0.5346070000000  0.5053930000000  0.5896360000000 1.0
C      1  0.5896360000000  0.4946000000000  0.4653930000000 1.0
C      1  0.5410800000000  0.5539670000000  0.4304300000000 1.0
C      1  0.4304260000000  0.4460380000000  0.4589200000000 1.0
C      1  0.4589240000000  0.5539650000000  0.5695740000000 1.0
C      1  0.5695700000000  0.4460300000000  0.5410760000000 1.0
C      1  0.4835300000000  0.5426100000000  0.5824220000000 1.0
C      1  0.5824190000000  0.4573840000000  0.5164700000000 1.0
C      1  0.5164730000000  0.5426140000000  0.4175810000000 1.0
C      1  0.4175780000000  0.4573920000000  0.4835270000000 1.0
C      1  0.4129110000000  0.4871500000000  0.4845430000000 1.0
C      1  0.4845440000000  0.5128510000000  0.5870890000000 1.0
C      1  0.5870880000000  0.4871420000000  0.5154560000000 1.0
C      1  0.5154570000000  0.5128560000000  0.4129120000000 1.0
C      1  0.4381020000000  0.4484610000000  0.5027600000000 1.0
C      1  0.5027640000000  0.5515390000000  0.5618980000000 1.0
C      1  0.5618940000000  0.4484570000000  0.4972360000000 1.0
C      1  0.4972400000000  0.5515430000000  0.4381060000000 1.0
C      1  0.4801330000000  0.4254560000000  0.5366840000000 1.0
C      1  0.5366890000000  0.5745410000000  0.5198670000000 1.0
C      1  0.5198610000000  0.4254570000000  0.4633110000000 1.0
C      1  0.4633170000000  0.5745450000000  0.4801390000000 1.0
C      1  0.5357430000000  0.4632260000000  0.5047010000000 1.0
C      1  0.5047030000000  0.5367740000000  0.4642570000000 1.0
C      1  0.4642550000000  0.4632290000000  0.4952970000000 1.0
C      1  0.4952990000000  0.5367720000000  0.5357450000000 1.0
C      1  0.5618670000000  0.5068530000000  0.4268100000000 1.0
C      1  0.4268090000000  0.4931530000000  0.4381330000000 1.0
C      1  0.4381330000000  0.5068520000000  0.5731910000000 1.0
C      1  0.5731900000000  0.4931430000000  0.5618670000000 1.0
C      1  0.4458680000000  0.4203760000000  0.4961310000000 1.0
C      1  0.4961370000000  0.5796240000000  0.5541320000000 1.0
C      1  0.5541260000000  0.4203720000000  0.5038630000000 1.0
C      1  0.5038690000000  0.5796280000000  0.4458740000000 1.0
C      1  0.5222890000000  0.4570370000000  0.4571230000000 1.0
C      1  0.4571260000000  0.5429660000000  0.4777110000000 1.0
C      1  0.4777080000000  0.4570350000000  0.5428740000000 1.0
C      1  0.5428780000000  0.5429620000000  0.5222920000000 1.0
C      1  0.5491500000000  0.4964700000000  0.4676710000000 1.0
C      1  0.4676710000000  0.5035330000000  0.4508500000000 1.0
C      1  0.4508490000000  0.4964710000000  0.5323290000000 1.0
C      1  0.5323290000000  0.5035270000000  0.5491510000000 1.0
C      1  0.5119810000000  0.4309530000000  0.5364090000000 1.0
C      1  0.5364150000000  0.5690450000000  0.4880190000000 1.0
C      1  0.4880140000000  0.4309560000000  0.4635860000000 1.0
C      1  0.4635910000000  0.5690460000000  0.5119860000000 1.0
C      1  0.5329870000000  0.5749080000000  0.4497350000000 1.0
C      1  0.4497300000000  0.4250950000000  0.4670130000000 1.0
C      1  0.4670180000000  0.5749070000000  0.5502700000000 1.0
C      1  0.5502640000000  0.4250890000000  0.5329820000000 1.0
C      1  0.4232150000000  0.5314300000000  0.5019540000000 1.0
C      1  0.5019520000000  0.4685700000000  0.5767850000000 1.0
C      1  0.5767870000000  0.5314240000000  0.4980480000000 1.0
C      1  0.4980460000000  0.4685760000000  0.4232130000000 1.0
C      1  0.4725540000000  0.4683670000000  0.5715610000000 1.0
C      1  0.5715630000000  0.5316280000000  0.5274460000000 1.0
C      1  0.5274440000000  0.4683700000000  0.4284370000000 1.0
C      1  0.4284390000000  0.5316350000000  0.4725560000000 1.0
C      1  0.5623450000000  0.5346860000000  0.4354560000000 1.0
C      1  0.4354530000000  0.4653190000000  0.4376550000000 1.0
C      1  0.4376580000000  0.5346860000000  0.5645470000000 1.0
C      1  0.5645440000000  0.4653090000000  0.5623420000000 1.0
END
