TITL C-3577089-586-263 2.43457931109496e-06 125000 -841.407687240693 0 0 135 (C1) n - 1
REM
REM in /home/bkarasulu/work/CARBON/AIRSS/Generating-Clusters/EDIP-Nigel-Params/with-SteepDescent/Higher-Symm/SD-CG/HFTN-CG
REM
REM
REM
REM
REM
REM ./C.cell (12c818d87b63d06a65506943cc24bca4)
REM
REM compiler GCC version 9.2.1 20190827 (Red Hat 9.2.1-1)
REM options -cpp -mtune=generic -march=x86-64 -g -O0 -fpre-include=/usr/include/finclude/math-vector-fortran.h
REM seed -1300390703 -293402185 1736646853 1139316115 -194115176 -1281497443 -771487280 -333095030 -1412782807 -1097465523 2070834625 -1617975159 785869086 343500818 1929934122 -384509511 1399125813 63322771 -565114019 -612761505 1967989231 1613371093 1439945474 1880417749 -1654294928 901407541 -345510483 1543063132 1362068445 -713782164 -2083349191 317101115 151504406
REM
CELL 1.54180   50.00000   50.00000   50.00000   90.00000   90.00000   90.00000
LATT -1
SFAC C  
C      1  0.4056760000000  0.4732270000000  0.4730560000000 1.0
C      1  0.5065830000000  0.5859370000000  0.4953690000000 1.0
C      1  0.5798270000000  0.4516240000000  0.4867260000000 1.0
C      1  0.4069130000000  0.4758220000000  0.5282740000000 1.0
C      1  0.5010440000000  0.5877950000000  0.5235980000000 1.0
C      1  0.5809670000000  0.4531770000000  0.5156350000000 1.0
C      1  0.5943670000000  0.4715470000000  0.4711080000000 1.0
C      1  0.4760230000000  0.5836490000000  0.4876260000000 1.0
C      1  0.4173870000000  0.4484160000000  0.4864180000000 1.0
C      1  0.5899190000000  0.4785240000000  0.5283730000000 1.0
C      1  0.4721770000000  0.5896840000000  0.5259850000000 1.0
C      1  0.4188510000000  0.4512950000000  0.5157790000000 1.0
C      1  0.4477570000000  0.4981830000000  0.5534440000000 1.0
C      1  0.5357310000000  0.5336280000000  0.5446340000000 1.0
C      1  0.5136140000000  0.4593880000000  0.5515980000000 1.0
C      1  0.4473730000000  0.5036320000000  0.4495650000000 1.0
C      1  0.5222070000000  0.5472990000000  0.4476410000000 1.0
C      1  0.5127730000000  0.4636180000000  0.4508430000000 1.0
C      1  0.5468570000000  0.5069290000000  0.5509550000000 1.0
C      1  0.4828770000000  0.5377950000000  0.5398480000000 1.0
C      1  0.4835700000000  0.4584480000000  0.5520420000000 1.0
C      1  0.5481400000000  0.5046200000000  0.4510330000000 1.0
C      1  0.4779550000000  0.5471860000000  0.4467290000000 1.0
C      1  0.4829450000000  0.4629690000000  0.4501680000000 1.0
C      1  0.5984600000000  0.4977200000000  0.4837360000000 1.0
C      1  0.4607510000000  0.4192810000000  0.4889870000000 1.0
C      1  0.4648170000000  0.5546740000000  0.4906680000000 1.0
C      1  0.5964950000000  0.5024190000000  0.5121120000000 1.0
C      1  0.4549510000000  0.4151840000000  0.5169190000000 1.0
C      1  0.4585790000000  0.5486920000000  0.5215050000000 1.0
C      1  0.4209720000000  0.4961470000000  0.4846360000000 1.0
C      1  0.5400190000000  0.4204380000000  0.4877590000000 1.0
C      1  0.5286620000000  0.5676970000000  0.4865350000000 1.0
C      1  0.4127990000000  0.5007350000000  0.5127870000000 1.0
C      1  0.5417060000000  0.4204160000000  0.5163740000000 1.0
C      1  0.5476850000000  0.5586670000000  0.5100710000000 1.0
C      1  0.4795890000000  0.5743050000000  0.5733480000000 1.0
C      1  0.5686200000000  0.4622480000000  0.5681400000000 1.0
C      1  0.4421370000000  0.4377570000000  0.5583350000000 1.0
C      1  0.4957290000000  0.5809100000000  0.4420530000000 1.0
C      1  0.5697010000000  0.4557760000000  0.4331940000000 1.0
C      1  0.4446030000000  0.4407190000000  0.4459020000000 1.0
C      1  0.5094150000000  0.5740790000000  0.5700540000000 1.0
C      1  0.4340390000000  0.4648230000000  0.5663530000000 1.0
C      1  0.5562730000000  0.4390130000000  0.5577190000000 1.0
C      1  0.5237580000000  0.5861060000000  0.4436150000000 1.0
C      1  0.4376690000000  0.4678040000000  0.4378590000000 1.0
C      1  0.5539360000000  0.4369800000000  0.4464990000000 1.0
C      1  0.4639380000000  0.5048450000000  0.4243670000000 1.0
C      1  0.5192410000000  0.5314400000000  0.4220290000000 1.0
C      1  0.5174190000000  0.4778690000000  0.4239010000000 1.0
C      1  0.4665030000000  0.5026910000000  0.5761430000000 1.0
C      1  0.5117090000000  0.5261950000000  0.5807510000000 1.0
C      1  0.5200480000000  0.4746840000000  0.5780390000000 1.0
C      1  0.5340910000000  0.5040780000000  0.4252280000000 1.0
C      1  0.4806600000000  0.5310110000000  0.4214570000000 1.0
C      1  0.4782720000000  0.4777420000000  0.4230830000000 1.0
C      1  0.5317070000000  0.5032990000000  0.5778020000000 1.0
C      1  0.4832450000000  0.5285270000000  0.5705650000000 1.0
C      1  0.4810780000000  0.4758560000000  0.5774030000000 1.0
C      1  0.5601810000000  0.5558320000000  0.4518760000000 1.0
C      1  0.5235310000000  0.4349930000000  0.4465960000000 1.0
C      1  0.4175360000000  0.5115200000000  0.4437650000000 1.0
C      1  0.5471310000000  0.5702980000000  0.5399150000000 1.0
C      1  0.5258660000000  0.4323860000000  0.5579670000000 1.0
C      1  0.4122890000000  0.5091090000000  0.5635030000000 1.0
C      1  0.4506090000000  0.5627830000000  0.4480070000000 1.0
C      1  0.4733960000000  0.4349120000000  0.4432110000000 1.0
C      1  0.5773950000000  0.5051260000000  0.4432610000000 1.0
C      1  0.4353380000000  0.5677850000000  0.5574600000000 1.0
C      1  0.4718170000000  0.4318900000000  0.5608340000000 1.0
C      1  0.5831280000000  0.5116920000000  0.5626590000000 1.0
C      1  0.4118130000000  0.4798750000000  0.4443120000000 1.0
C      1  0.5443000000000  0.5800400000000  0.4632920000000 1.0
C      1  0.5620780000000  0.4324390000000  0.4735840000000 1.0
C      1  0.4099190000000  0.4796700000000  0.5578090000000 1.0
C      1  0.5209330000000  0.5834380000000  0.5448750000000 1.0
C      1  0.5635250000000  0.4342020000000  0.5300260000000 1.0
C      1  0.5867810000000  0.4758450000000  0.4427780000000 1.0
C      1  0.4719620000000  0.5890760000000  0.4572960000000 1.0
C      1  0.4414720000000  0.4367850000000  0.4742630000000 1.0
C      1  0.5834360000000  0.4831680000000  0.5561830000000 1.0
C      1  0.4607750000000  0.5815030000000  0.5515040000000 1.0
C      1  0.4349790000000  0.4315350000000  0.5305490000000 1.0
C      1  0.4687890000000  0.5504510000000  0.5868790000000 1.0
C      1  0.5523900000000  0.5083190000000  0.5978330000000 1.0
C      1  0.4863430000000  0.4575510000000  0.6011350000000 1.0
C      1  0.4587460000000  0.5430290000000  0.4022840000000 1.0
C      1  0.5539760000000  0.5121360000000  0.4022750000000 1.0
C      1  0.4854760000000  0.4579050000000  0.4007620000000 1.0
C      1  0.5253570000000  0.5523400000000  0.5829930000000 1.0
C      1  0.4476750000000  0.5067130000000  0.5982650000000 1.0
C      1  0.5170240000000  0.4545830000000  0.6011800000000 1.0
C      1  0.5423680000000  0.5421110000000  0.4037500000000 1.0
C      1  0.4442760000000  0.5146300000000  0.4023080000000 1.0
C      1  0.5165800000000  0.4559600000000  0.4022170000000 1.0
C      1  0.4758810000000  0.4692710000000  0.5250600000000 1.0
C      1  0.4977540000000  0.5289140000000  0.5149730000000 1.0
C      1  0.5409200000000  0.4913030000000  0.5252210000000 1.0
C      1  0.4745910000000  0.4736670000000  0.4777750000000 1.0
C      1  0.4833390000000  0.5348500000000  0.4736300000000 1.0
C      1  0.5299290000000  0.5051520000000  0.4756770000000 1.0
C      1  0.5198540000000  0.4719390000000  0.5250360000000 1.0
C      1  0.5288560000000  0.5334770000000  0.5152400000000 1.0
C      1  0.4614970000000  0.4932650000000  0.5277710000000 1.0
C      1  0.5182500000000  0.4777650000000  0.4769190000000 1.0
C      1  0.5130790000000  0.5340760000000  0.4736730000000 1.0
C      1  0.4592080000000  0.4987700000000  0.4790050000000 1.0
C      1  0.4832880000000  0.4302200000000  0.4152960000000 1.0
C      1  0.4366990000000  0.5541420000000  0.4205170000000 1.0
C      1  0.5785580000000  0.5209610000000  0.4173910000000 1.0
C      1  0.4834450000000  0.4289290000000  0.5886150000000 1.0
C      1  0.4393460000000  0.5499930000000  0.5808650000000 1.0
C      1  0.5691700000000  0.5265470000000  0.5834950000000 1.0
C      1  0.5139550000000  0.4289000000000  0.4176030000000 1.0
C      1  0.5668430000000  0.5495920000000  0.4217410000000 1.0
C      1  0.4207080000000  0.5266880000000  0.4178320000000 1.0
C      1  0.5146840000000  0.4271070000000  0.5867330000000 1.0
C      1  0.5541600000000  0.5515430000000  0.5734110000000 1.0
C      1  0.4277540000000  0.5223660000000  0.5848300000000 1.0
C      1  0.4907210000000  0.4187860000000  0.4904220000000 1.0
C      1  0.4386130000000  0.5546420000000  0.4750800000000 1.0
C      1  0.5920710000000  0.5191270000000  0.4648540000000 1.0
C      1  0.4932760000000  0.4125360000000  0.5187070000000 1.0
C      1  0.4293710000000  0.5452120000000  0.5278500000000 1.0
C      1  0.5898240000000  0.5295200000000  0.5177580000000 1.0
C      1  0.5149040000000  0.4185620000000  0.4725760000000 1.0
C      1  0.5776110000000  0.5430360000000  0.4730940000000 1.0
C      1  0.4189450000000  0.5344450000000  0.4813190000000 1.0
C      1  0.5187720000000  0.4143500000000  0.5332750000000 1.0
C      1  0.5752830000000  0.5481480000000  0.5017340000000 1.0
C      1  0.4116800000000  0.5307870000000  0.5098630000000 1.0
C      1  0.4669320000000  0.5134520000000  0.5071250000000 1.0
C      1  0.5421390000000  0.5101290000000  0.5025710000000 1.0
C      1  0.4980900000000  0.4709830000000  0.5006240000000 1.0
END
