TITL C-3577083-591-34 -3.06155539526212e-06 125000 -773.362346181027 0 0 124 (C1) n - 1
REM
REM in /home/bkarasulu/work/CARBON/AIRSS/Generating-Clusters/EDIP-Nigel-Params/with-SteepDescent/Higher-Symm/SD-CG/HFTN-CG
REM
REM
REM
REM
REM
REM ./C.cell (12c818d87b63d06a65506943cc24bca4)
REM
REM compiler GCC version 9.2.1 20190827 (Red Hat 9.2.1-1)
REM options -cpp -mtune=generic -march=x86-64 -g -O0 -fpre-include=/usr/include/finclude/math-vector-fortran.h
REM seed -365965649 -19843231 -1171405447 -1241302895 -395112597 -218879105 -1872808215 -994299116 -1837807504 -1543463423 1914195894 -127547257 -1716919139 -747319653 504664959 -623629135 1863331171 -395152967 -1120037297 -1831860599 273951769 1339234683 -905940772 -839652176 -1004952847 522605116 1069890747 1469883181 101244720 1716803180 -1295506180 -1192177957 924986908
REM
CELL 1.54180   50.00000   50.00000   50.00000   90.00000   90.00000   90.00000
LATT -1
SFAC C  
C      1  0.5815050000000  0.5017730000000  0.4576150000000 1.0
C      1  0.4929790000000  0.5283040000000  0.5879980000000 1.0
C      1  0.4580780000000  0.4237930000000  0.4387940000000 1.0
C      1  0.4311540000000  0.4337240000000  0.4779240000000 1.0
C      1  0.4613770000000  0.5804470000000  0.5021960000000 1.0
C      1  0.4514030000000  0.4678110000000  0.4964080000000 1.0
C      1  0.5129590000000  0.4672240000000  0.4032510000000 1.0
C      1  0.4717480000000  0.4533570000000  0.5186810000000 1.0
C      1  0.5295190000000  0.5248790000000  0.5378820000000 1.0
C      1  0.4646200000000  0.3988040000000  0.4797040000000 1.0
C      1  0.5052410000000  0.5959550000000  0.4753860000000 1.0
C      1  0.4430790000000  0.5575300000000  0.4618840000000 1.0
C      1  0.5353590000000  0.4247930000000  0.5447870000000 1.0
C      1  0.5524300000000  0.5751740000000  0.5306190000000 1.0
C      1  0.5425630000000  0.4249890000000  0.4546650000000 1.0
C      1  0.4828700000000  0.5035720000000  0.5488440000000 1.0
C      1  0.5116230000000  0.4128040000000  0.5338650000000 1.0
C      1  0.4747000000000  0.4849380000000  0.4826140000000 1.0
C      1  0.5585900000000  0.4324190000000  0.5237620000000 1.0
C      1  0.5497910000000  0.4433220000000  0.4969220000000 1.0
C      1  0.4435170000000  0.4874470000000  0.4283920000000 1.0
C      1  0.4836690000000  0.4673530000000  0.4125710000000 1.0
C      1  0.4674930000000  0.4922780000000  0.4103250000000 1.0
C      1  0.4259390000000  0.4564310000000  0.4622100000000 1.0
C      1  0.4244190000000  0.4720460000000  0.5681210000000 1.0
C      1  0.5331040000000  0.4252360000000  0.4810580000000 1.0
C      1  0.4758900000000  0.4813780000000  0.5910870000000 1.0
C      1  0.5204470000000  0.5188010000000  0.5851720000000 1.0
C      1  0.4676490000000  0.5390120000000  0.4237600000000 1.0
C      1  0.5608910000000  0.4785220000000  0.5335080000000 1.0
C      1  0.4432490000000  0.5354460000000  0.4411690000000 1.0
C      1  0.5643070000000  0.5005130000000  0.5120730000000 1.0
C      1  0.5558540000000  0.5412170000000  0.4374930000000 1.0
C      1  0.5272680000000  0.4473080000000  0.5632840000000 1.0
C      1  0.4169620000000  0.5045310000000  0.4708770000000 1.0
C      1  0.5159750000000  0.4649770000000  0.5434730000000 1.0
C      1  0.4826090000000  0.5454170000000  0.4784610000000 1.0
C      1  0.5192170000000  0.5856000000000  0.4511650000000 1.0
C      1  0.4996910000000  0.4212320000000  0.4115530000000 1.0
C      1  0.4783780000000  0.4975920000000  0.4533270000000 1.0
C      1  0.4764200000000  0.5910520000000  0.4767250000000 1.0
C      1  0.5959620000000  0.5132800000000  0.4807040000000 1.0
C      1  0.4882810000000  0.4051740000000  0.4931040000000 1.0
C      1  0.4546250000000  0.5455820000000  0.5184090000000 1.0
C      1  0.5494450000000  0.5520940000000  0.4649630000000 1.0
C      1  0.5343400000000  0.4696460000000  0.5217990000000 1.0
C      1  0.4276520000000  0.4695990000000  0.5955460000000 1.0
C      1  0.4791780000000  0.4655750000000  0.4435400000000 1.0
C      1  0.5938570000000  0.4986990000000  0.5068120000000 1.0
C      1  0.4928610000000  0.5554500000000  0.5764010000000 1.0
C      1  0.4866530000000  0.4206750000000  0.4365830000000 1.0
C      1  0.4250090000000  0.4974230000000  0.5543990000000 1.0
C      1  0.5406990000000  0.4745240000000  0.4430250000000 1.0
C      1  0.4223540000000  0.4371080000000  0.5057420000000 1.0
C      1  0.4981390000000  0.4510220000000  0.5050830000000 1.0
C      1  0.4637420000000  0.4269160000000  0.5304190000000 1.0
C      1  0.4128290000000  0.4766430000000  0.4778570000000 1.0
C      1  0.4477060000000  0.4144160000000  0.4642130000000 1.0
C      1  0.5609000000000  0.5769320000000  0.5038240000000 1.0
C      1  0.5033890000000  0.4300860000000  0.4840620000000 1.0
C      1  0.5998150000000  0.5158690000000  0.5337230000000 1.0
C      1  0.5724090000000  0.4583170000000  0.4830120000000 1.0
C      1  0.5773050000000  0.5386170000000  0.5364200000000 1.0
C      1  0.5111060000000  0.5617410000000  0.4360050000000 1.0
C      1  0.4790010000000  0.5875520000000  0.5247200000000 1.0
C      1  0.4728010000000  0.5080690000000  0.5773070000000 1.0
C      1  0.5070570000000  0.5491540000000  0.4954130000000 1.0
C      1  0.4646110000000  0.5218040000000  0.4768040000000 1.0
C      1  0.5942840000000  0.5411050000000  0.4836470000000 1.0
C      1  0.4301600000000  0.5647310000000  0.4875260000000 1.0
C      1  0.4484970000000  0.4912770000000  0.5175820000000 1.0
C      1  0.5415980000000  0.5925080000000  0.4886720000000 1.0
C      1  0.5680340000000  0.4756570000000  0.4588480000000 1.0
C      1  0.5262630000000  0.5781480000000  0.5413070000000 1.0
C      1  0.5547840000000  0.5267970000000  0.5213790000000 1.0
C      1  0.4839010000000  0.5165940000000  0.4136320000000 1.0
C      1  0.4191430000000  0.5185460000000  0.4984090000000 1.0
C      1  0.4697800000000  0.5600210000000  0.5581590000000 1.0
C      1  0.5211050000000  0.5624700000000  0.5664130000000 1.0
C      1  0.5034550000000  0.4712170000000  0.5920240000000 1.0
C      1  0.4540550000000  0.4628950000000  0.5905800000000 1.0
C      1  0.5126710000000  0.4966830000000  0.5474610000000 1.0
C      1  0.4356740000000  0.5083410000000  0.4477620000000 1.0
C      1  0.5104810000000  0.4440340000000  0.5864160000000 1.0
C      1  0.4981220000000  0.4419480000000  0.4538880000000 1.0
C      1  0.4298210000000  0.5489370000000  0.5351470000000 1.0
C      1  0.5727380000000  0.5189380000000  0.4373160000000 1.0
C      1  0.5921480000000  0.4667670000000  0.5040610000000 1.0
C      1  0.4794850000000  0.5310850000000  0.5335190000000 1.0
C      1  0.5141080000000  0.5145950000000  0.4220620000000 1.0
C      1  0.5668120000000  0.4886380000000  0.5613400000000 1.0
C      1  0.5056830000000  0.5777000000000  0.5207260000000 1.0
C      1  0.5055710000000  0.5335530000000  0.5206960000000 1.0
C      1  0.5190090000000  0.4934290000000  0.5085420000000 1.0
C      1  0.5251930000000  0.4906140000000  0.5887940000000 1.0
C      1  0.4436520000000  0.5172850000000  0.5691860000000 1.0
C      1  0.5268240000000  0.4921650000000  0.4618060000000 1.0
C      1  0.5673000000000  0.5378250000000  0.5666050000000 1.0
C      1  0.5004610000000  0.4766590000000  0.4933770000000 1.0
C      1  0.4428500000000  0.5456520000000  0.5608610000000 1.0
C      1  0.4493410000000  0.5196860000000  0.5029260000000 1.0
C      1  0.5687760000000  0.5523610000000  0.4880400000000 1.0
C      1  0.4104790000000  0.4965630000000  0.5252890000000 1.0
C      1  0.5301030000000  0.4883840000000  0.4165350000000 1.0
C      1  0.5791800000000  0.4548820000000  0.5289970000000 1.0
C      1  0.4121330000000  0.5471930000000  0.5010910000000 1.0
C      1  0.5255950000000  0.5344490000000  0.4756580000000 1.0
C      1  0.4678820000000  0.4807820000000  0.5373770000000 1.0
C      1  0.4858160000000  0.4069050000000  0.5229560000000 1.0
C      1  0.5269030000000  0.4456190000000  0.4419340000000 1.0
C      1  0.4130840000000  0.4680630000000  0.5069190000000 1.0
C      1  0.4677050000000  0.5873260000000  0.5499920000000 1.0
C      1  0.5361980000000  0.5063880000000  0.4864170000000 1.0
C      1  0.5292060000000  0.5413490000000  0.4233770000000 1.0
C      1  0.5854820000000  0.5114540000000  0.5629120000000 1.0
C      1  0.4712020000000  0.5666400000000  0.4609320000000 1.0
C      1  0.4823160000000  0.5627250000000  0.4331150000000 1.0
C      1  0.4366850000000  0.4218980000000  0.5246340000000 1.0
C      1  0.5447180000000  0.5812850000000  0.4625730000000 1.0
C      1  0.5511770000000  0.4824760000000  0.5834150000000 1.0
C      1  0.5211920000000  0.4398170000000  0.4128980000000 1.0
C      1  0.4415360000000  0.4584930000000  0.4376010000000 1.0
C      1  0.5072250000000  0.5109070000000  0.4511760000000 1.0
C      1  0.5361400000000  0.5365750000000  0.5659970000000 1.0
END
