TITL C-3577089-586-107 -2.1697947060339e-06 125000 -1168.9966049561 0 0 191 (C1) n - 1
REM
REM in /home/bkarasulu/work/CARBON/AIRSS/Generating-Clusters/EDIP-Nigel-Params/with-SteepDescent/Higher-Symm/SD-CG/HFTN-CG
REM
REM
REM
REM
REM
REM ./C.cell (12c818d87b63d06a65506943cc24bca4)
REM
REM compiler GCC version 9.2.1 20190827 (Red Hat 9.2.1-1)
REM options -cpp -mtune=generic -march=x86-64 -g -O0 -fpre-include=/usr/include/finclude/math-vector-fortran.h
REM seed 210748896 -1940936046 -1605988934 909799301 -470412854 -727190172 -1543610684 -1576223498 1859103001 -1833971512 146843899 -1713543262 880928706 -1734749035 -775934003 94706860 896897183 192019945 -532871502 -1463381266 2055832280 1553797623 270406000 109943303 -1387442575 -1077918073 -1552372206 -103278508 -1161691363 -470169596 -2144953921 1005306709 -1714124571
REM
CELL 1.54180   50.00000   50.00000   50.00000   90.00000   90.00000   90.00000
LATT -1
SFAC C  
C      1  0.4082380000000  0.4263600000000  0.5209680000000 1.0
C      1  0.4027000000000  0.4225500000000  0.4773140000000 1.0
C      1  0.4053050000000  0.4458560000000  0.4409620000000 1.0
C      1  0.4032210000000  0.4868810000000  0.4220430000000 1.0
C      1  0.4074150000000  0.5291050000000  0.4311560000000 1.0
C      1  0.4065390000000  0.5642080000000  0.4576430000000 1.0
C      1  0.4039080000000  0.5787210000000  0.4999770000000 1.0
C      1  0.4070080000000  0.5657620000000  0.5410800000000 1.0
C      1  0.4033260000000  0.5328870000000  0.5704070000000 1.0
C      1  0.4075790000000  0.4900520000000  0.5750320000000 1.0
C      1  0.4044590000000  0.4498860000000  0.5570640000000 1.0
C      1  0.5883230000000  0.4523300000000  0.5455530000000 1.0
C      1  0.5853770000000  0.4415970000000  0.5175990000000 1.0
C      1  0.5935430000000  0.4391720000000  0.4673120000000 1.0
C      1  0.5895630000000  0.4640400000000  0.4486150000000 1.0
C      1  0.5975280000000  0.4893640000000  0.4220410000000 1.0
C      1  0.5969390000000  0.5164890000000  0.4330650000000 1.0
C      1  0.5919820000000  0.5642840000000  0.4677280000000 1.0
C      1  0.5928630000000  0.5725970000000  0.4960880000000 1.0
C      1  0.5869870000000  0.5411020000000  0.5417790000000 1.0
C      1  0.5905790000000  0.5203290000000  0.5634990000000 1.0
C      1  0.5856100000000  0.4890270000000  0.5577200000000 1.0
C      1  0.5028260000000  0.5422890000000  0.5033830000000 1.0
C      1  0.4957750000000  0.5426380000000  0.5296990000000 1.0
C      1  0.5029010000000  0.5190360000000  0.5414290000000 1.0
C      1  0.4972470000000  0.4939830000000  0.5500950000000 1.0
C      1  0.5048210000000  0.4730120000000  0.5348110000000 1.0
C      1  0.4978150000000  0.4529300000000  0.5178100000000 1.0
C      1  0.5089490000000  0.4539300000000  0.4929020000000 1.0
C      1  0.5078150000000  0.4692840000000  0.4693870000000 1.0
C      1  0.5073720000000  0.4972380000000  0.4791260000000 1.0
C      1  0.5040950000000  0.5199030000000  0.4605070000000 1.0
C      1  0.4970160000000  0.5426440000000  0.4767690000000 1.0
C      1  0.5168120000000  0.4132960000000  0.4212180000000 1.0
C      1  0.5122630000000  0.4734540000000  0.3896010000000 1.0
C      1  0.5155250000000  0.5346490000000  0.3883690000000 1.0
C      1  0.5193350000000  0.5921620000000  0.4241100000000 1.0
C      1  0.5143100000000  0.6135670000000  0.4919290000000 1.0
C      1  0.5160570000000  0.6080920000000  0.5543110000000 1.0
C      1  0.5139170000000  0.5586320000000  0.6020280000000 1.0
C      1  0.5140500000000  0.4989970000000  0.6218880000000 1.0
C      1  0.5142390000000  0.4311170000000  0.5986300000000 1.0
C      1  0.5159860000000  0.3903240000000  0.5465540000000 1.0
C      1  0.5165140000000  0.3849690000000  0.4774510000000 1.0
C      1  0.5162260000000  0.4787690000000  0.5982200000000 1.0
C      1  0.5179480000000  0.4350400000000  0.5689730000000 1.0
C      1  0.5195470000000  0.4021900000000  0.5183700000000 1.0
C      1  0.5207540000000  0.4128310000000  0.4694240000000 1.0
C      1  0.5188810000000  0.4440010000000  0.4235640000000 1.0
C      1  0.5188120000000  0.4934400000000  0.4115950000000 1.0
C      1  0.5168950000000  0.5453740000000  0.4170990000000 1.0
C      1  0.5170030000000  0.5868180000000  0.4531750000000 1.0
C      1  0.5190000000000  0.5890540000000  0.5080180000000 1.0
C      1  0.5174650000000  0.5783990000000  0.5621460000000 1.0
C      1  0.5172340000000  0.5335820000000  0.5862600000000 1.0
C      1  0.4427090000000  0.4589670000000  0.4153660000000 1.0
C      1  0.4444130000000  0.5090350000000  0.4070160000000 1.0
C      1  0.4433290000000  0.5604200000000  0.4281630000000 1.0
C      1  0.4447650000000  0.5895570000000  0.4743820000000 1.0
C      1  0.4437610000000  0.5923670000000  0.5250990000000 1.0
C      1  0.4453430000000  0.5605730000000  0.5688360000000 1.0
C      1  0.4429260000000  0.5163460000000  0.5941660000000 1.0
C      1  0.4452240000000  0.4623100000000  0.5831230000000 1.0
C      1  0.4457570000000  0.4234760000000  0.5501370000000 1.0
C      1  0.4465270000000  0.4105520000000  0.4974910000000 1.0
C      1  0.4429080000000  0.4168990000000  0.4497120000000 1.0
C      1  0.5648390000000  0.4869060000000  0.5330200000000 1.0
C      1  0.5495910000000  0.4581700000000  0.5370200000000 1.0
C      1  0.5707190000000  0.4597940000000  0.4988110000000 1.0
C      1  0.5569010000000  0.4492870000000  0.4741720000000 1.0
C      1  0.5777530000000  0.4898450000000  0.4670400000000 1.0
C      1  0.5516560000000  0.5107300000000  0.4456840000000 1.0
C      1  0.5924990000000  0.5149550000000  0.4618260000000 1.0
C      1  0.5783660000000  0.5384280000000  0.4713070000000 1.0
C      1  0.5647800000000  0.5473040000000  0.4980140000000 1.0
C      1  0.5676800000000  0.5297620000000  0.5225950000000 1.0
C      1  0.5461970000000  0.5121480000000  0.5383060000000 1.0
C      1  0.5722100000000  0.5804950000000  0.4529130000000 1.0
C      1  0.5711560000000  0.5897930000000  0.5039490000000 1.0
C      1  0.5755460000000  0.5672590000000  0.5529410000000 1.0
C      1  0.5738360000000  0.5299480000000  0.5856700000000 1.0
C      1  0.5732160000000  0.4810600000000  0.5849970000000 1.0
C      1  0.5741840000000  0.4360060000000  0.5655540000000 1.0
C      1  0.5754600000000  0.4133690000000  0.5188830000000 1.0
C      1  0.5794650000000  0.4130260000000  0.4655790000000 1.0
C      1  0.5692350000000  0.4485740000000  0.4318980000000 1.0
C      1  0.5762120000000  0.4878480000000  0.4015640000000 1.0
C      1  0.5688480000000  0.5274980000000  0.4262390000000 1.0
C      1  0.4662980000000  0.4617610000000  0.5499360000000 1.0
C      1  0.4728580000000  0.4386130000000  0.5186880000000 1.0
C      1  0.4686530000000  0.4409170000000  0.4865040000000 1.0
C      1  0.4812970000000  0.4630370000000  0.4551920000000 1.0
C      1  0.4743270000000  0.4909450000000  0.4461480000000 1.0
C      1  0.4704610000000  0.5295780000000  0.4439140000000 1.0
C      1  0.4747760000000  0.5578260000000  0.4681380000000 1.0
C      1  0.4644800000000  0.5650000000000  0.4978020000000 1.0
C      1  0.4684880000000  0.5499130000000  0.5332590000000 1.0
C      1  0.4633640000000  0.5277490000000  0.5571260000000 1.0
C      1  0.4730580000000  0.4906680000000  0.5643410000000 1.0
C      1  0.4303190000000  0.4423890000000  0.5660860000000 1.0
C      1  0.4332560000000  0.4147680000000  0.5244640000000 1.0
C      1  0.4279640000000  0.4098360000000  0.4737840000000 1.0
C      1  0.4305410000000  0.4378520000000  0.4322020000000 1.0
C      1  0.4286670000000  0.4842820000000  0.4099930000000 1.0
C      1  0.4330280000000  0.5333550000000  0.4207450000000 1.0
C      1  0.4307040000000  0.5762420000000  0.4502460000000 1.0
C      1  0.4292720000000  0.5911800000000  0.4999430000000 1.0
C      1  0.4314740000000  0.5773700000000  0.5477180000000 1.0
C      1  0.4287450000000  0.5386060000000  0.5817510000000 1.0
C      1  0.4315970000000  0.4889640000000  0.5890470000000 1.0
C      1  0.4710210000000  0.6064480000000  0.5238660000000 1.0
C      1  0.4693140000000  0.5734690000000  0.5816180000000 1.0
C      1  0.4696280000000  0.5245220000000  0.6067140000000 1.0
C      1  0.4687760000000  0.4554760000000  0.6014720000000 1.0
C      1  0.4716540000000  0.4144520000000  0.5639610000000 1.0
C      1  0.4692690000000  0.3902890000000  0.5002260000000 1.0
C      1  0.4713890000000  0.4053230000000  0.4495820000000 1.0
C      1  0.4695500000000  0.4547180000000  0.4049390000000 1.0
C      1  0.4736610000000  0.5042800000000  0.3984560000000 1.0
C      1  0.4678060000000  0.5686490000000  0.4141450000000 1.0
C      1  0.4699930000000  0.6062100000000  0.4694290000000 1.0
C      1  0.5315610000000  0.5187190000000  0.6084000000000 1.0
C      1  0.5310430000000  0.4537000000000  0.6071640000000 1.0
C      1  0.5323370000000  0.4103820000000  0.5600440000000 1.0
C      1  0.5356080000000  0.3833850000000  0.4998620000000 1.0
C      1  0.5344440000000  0.4076110000000  0.4435910000000 1.0
C      1  0.5317630000000  0.4530210000000  0.3978270000000 1.0
C      1  0.5331900000000  0.5121020000000  0.3926930000000 1.0
C      1  0.5345550000000  0.5695400000000  0.4153530000000 1.0
C      1  0.5301230000000  0.6086830000000  0.4683550000000 1.0
C      1  0.5336090000000  0.6053610000000  0.5306050000000 1.0
C      1  0.5333600000000  0.5752020000000  0.5880110000000 1.0
C      1  0.4833620000000  0.5439440000000  0.4171460000000 1.0
C      1  0.4855490000000  0.5850540000000  0.4551850000000 1.0
C      1  0.4871950000000  0.5826870000000  0.5128640000000 1.0
C      1  0.4851040000000  0.5762550000000  0.5565350000000 1.0
C      1  0.4855050000000  0.5287970000000  0.5809040000000 1.0
C      1  0.4841060000000  0.4804280000000  0.5946750000000 1.0
C      1  0.4883810000000  0.4395520000000  0.5590240000000 1.0
C      1  0.4846050000000  0.4067630000000  0.5199520000000 1.0
C      1  0.4882190000000  0.4226670000000  0.4692840000000 1.0
C      1  0.4870840000000  0.4457780000000  0.4273410000000 1.0
C      1  0.4905830000000  0.5012300000000  0.4231120000000 1.0
C      1  0.5628680000000  0.4030380000000  0.4927010000000 1.0
C      1  0.5624340000000  0.4200190000000  0.4417500000000 1.0
C      1  0.5564770000000  0.4671880000000  0.4124760000000 1.0
C      1  0.5626330000000  0.5151560000000  0.3989220000000 1.0
C      1  0.5596390000000  0.5610590000000  0.4314240000000 1.0
C      1  0.5569220000000  0.5945810000000  0.4760450000000 1.0
C      1  0.5572470000000  0.5832010000000  0.5318870000000 1.0
C      1  0.5596420000000  0.5552450000000  0.5762320000000 1.0
C      1  0.5575230000000  0.5065760000000  0.5950430000000 1.0
C      1  0.5582280000000  0.4548560000000  0.5845580000000 1.0
C      1  0.5592810000000  0.4171140000000  0.5469780000000 1.0
C      1  0.3949320000000  0.4488420000000  0.4849290000000 1.0
C      1  0.4010470000000  0.4644360000000  0.4614580000000 1.0
C      1  0.3957870000000  0.4900280000000  0.4490910000000 1.0
C      1  0.4004530000000  0.5180310000000  0.4561130000000 1.0
C      1  0.3994250000000  0.5419830000000  0.4729860000000 1.0
C      1  0.3964360000000  0.5515640000000  0.5001260000000 1.0
C      1  0.4024790000000  0.5421020000000  0.5267260000000 1.0
C      1  0.3955190000000  0.5214010000000  0.5456750000000 1.0
C      1  0.4032490000000  0.4934970000000  0.5475300000000 1.0
C      1  0.3958140000000  0.4675400000000  0.5365260000000 1.0
C      1  0.4031070000000  0.4526140000000  0.5125200000000 1.0
C      1  0.5383000000000  0.5383510000000  0.5601500000000 1.0
C      1  0.5352290000000  0.4955850000000  0.5716460000000 1.0
C      1  0.5365220000000  0.4603830000000  0.5635030000000 1.0
C      1  0.5354990000000  0.4311760000000  0.5191390000000 1.0
C      1  0.5429640000000  0.4258630000000  0.4877390000000 1.0
C      1  0.5319130000000  0.4619120000000  0.4522400000000 1.0
C      1  0.5400690000000  0.4846520000000  0.4323000000000 1.0
C      1  0.5275530000000  0.5316580000000  0.4460690000000 1.0
C      1  0.5334680000000  0.5610440000000  0.4602610000000 1.0
C      1  0.5383840000000  0.5637100000000  0.4914270000000 1.0
C      1  0.5329890000000  0.5627590000000  0.5411850000000 1.0
C      1  0.4858960000000  0.4143860000000  0.4257560000000 1.0
C      1  0.4813420000000  0.4756640000000  0.3879500000000 1.0
C      1  0.4868310000000  0.5269970000000  0.3836290000000 1.0
C      1  0.4818920000000  0.5902070000000  0.4259340000000 1.0
C      1  0.4840870000000  0.6171890000000  0.4929420000000 1.0
C      1  0.4850740000000  0.6067080000000  0.5500600000000 1.0
C      1  0.4831020000000  0.5602600000000  0.6039520000000 1.0
C      1  0.4829290000000  0.5007250000000  0.6179850000000 1.0
C      1  0.4832430000000  0.4302920000000  0.5967340000000 1.0
C      1  0.4851600000000  0.3935590000000  0.5477580000000 1.0
C      1  0.4849820000000  0.3839910000000  0.4759140000000 1.0
C      1  0.4608770000000  0.4993020000000  0.5020090000000 1.0
C      1  0.4876000000000  0.4994360000000  0.4989280000000 1.0
C      1  0.4354920000000  0.4997370000000  0.4991040000000 1.0
C      1  0.5773320000000  0.4871270000000  0.4973500000000 1.0
END
