TITL C-3578196-9646-380 -5.00796197140312e-06 125000 -249.430765490675 0 0 42 (C1) n - 1
REM
REM in /home/bkarasulu/work/CARBON/AIRSS/Generating-Clusters/EDIP-Nigel-Params/with-SteepDescent/Higher-Symm/SD-CG/HFTN-CG
REM
REM
REM
REM
REM
REM ./C.cell (12c818d87b63d06a65506943cc24bca4)
REM
REM compiler GCC version 9.2.1 20190827 (Red Hat 9.2.1-1)
REM options -cpp -mtune=generic -march=x86-64 -g -O0 -fpre-include=/usr/include/finclude/math-vector-fortran.h
REM seed -338990827 1590857370 1646131476 -461422506 -608538316 1666829079 -142354279 1254814735 1736200576 -2090062741 1069759595 769743252 -1436800138 -210023173 -1553388002 1480070359 196375499 -226955075 1128703251 -634713666 -1243982453 -2133873479 610766406 -1964682856 69410317 824096765 1339363807 -1390946053 -1426885481 1061629498 -2088487197 -428702777 67401144
REM
CELL 1.54180   50.00000   50.00000   50.00000   90.00000   90.00000   90.00000
LATT -1
SFAC C  
C      1  0.5052440000000  0.4410030000000  0.4661930000000 1.0
C      1  0.4995110000000  0.4441400000000  0.5316700000000 1.0
C      1  0.4790370000000  0.4707590000000  0.4885340000000 1.0
C      1  0.4828330000000  0.4843870000000  0.5136810000000 1.0
C      1  0.5103980000000  0.5380890000000  0.4707980000000 1.0
C      1  0.5131320000000  0.5423680000000  0.5287520000000 1.0
C      1  0.4521830000000  0.4784830000000  0.4771510000000 1.0
C      1  0.4575450000000  0.4849170000000  0.5281880000000 1.0
C      1  0.4619740000000  0.5084660000000  0.5449560000000 1.0
C      1  0.4589570000000  0.5055970000000  0.4652860000000 1.0
C      1  0.5042330000000  0.5322530000000  0.5531090000000 1.0
C      1  0.4998680000000  0.5299370000000  0.4461200000000 1.0
C      1  0.5594670000000  0.5372990000000  0.4720000000000 1.0
C      1  0.5724270000000  0.5366280000000  0.5343640000000 1.0
C      1  0.4812630000000  0.4294520000000  0.4723050000000 1.0
C      1  0.4775580000000  0.4299110000000  0.5243720000000 1.0
C      1  0.4976370000000  0.4823800000000  0.4445560000000 1.0
C      1  0.5036530000000  0.4858870000000  0.5548670000000 1.0
C      1  0.4856630000000  0.5065080000000  0.4518160000000 1.0
C      1  0.4885550000000  0.5095990000000  0.5573610000000 1.0
C      1  0.4655310000000  0.5524540000000  0.4775210000000 1.0
C      1  0.4645640000000  0.5485050000000  0.5203310000000 1.0
C      1  0.5742420000000  0.5533860000000  0.4893350000000 1.0
C      1  0.5609290000000  0.5526590000000  0.5138980000000 1.0
C      1  0.4547670000000  0.4344020000000  0.4813760000000 1.0
C      1  0.4532950000000  0.4368780000000  0.5115460000000 1.0
C      1  0.5342750000000  0.5254690000000  0.4844590000000 1.0
C      1  0.5378640000000  0.5324750000000  0.5146140000000 1.0
C      1  0.5495840000000  0.4893160000000  0.4701770000000 1.0
C      1  0.5494730000000  0.4926350000000  0.5267200000000 1.0
C      1  0.5295800000000  0.4788260000000  0.5135590000000 1.0
C      1  0.5270950000000  0.4818380000000  0.4847630000000 1.0
C      1  0.5665850000000  0.5105040000000  0.4658620000000 1.0
C      1  0.5655080000000  0.5105090000000  0.5384820000000 1.0
C      1  0.5031710000000  0.4696320000000  0.4701480000000 1.0
C      1  0.5048810000000  0.4725800000000  0.5292640000000 1.0
C      1  0.4420380000000  0.4612920000000  0.5214380000000 1.0
C      1  0.4404200000000  0.4546060000000  0.4663610000000 1.0
C      1  0.4924540000000  0.5554960000000  0.4851320000000 1.0
C      1  0.4914520000000  0.5539420000000  0.5137180000000 1.0
C      1  0.4510700000000  0.5287560000000  0.4829270000000 1.0
C      1  0.4500840000000  0.5257760000000  0.5122890000000 1.0
END
