TITL C-3577077-324-481 1.61330484141833e-06 125000 -290.69510899294 0 0 48 (Ci) n - 1
REM
REM in /home/bkarasulu/work/CARBON/AIRSS/Generating-Clusters/EDIP-Nigel-Params/with-SteepDescent/Higher-Symm/SD-CG/HFTN-CG
REM
REM
REM
REM
REM
REM ./C.cell (12c818d87b63d06a65506943cc24bca4)
REM
REM compiler GCC version 9.2.1 20190827 (Red Hat 9.2.1-1)
REM options -cpp -mtune=generic -march=x86-64 -g -O0 -fpre-include=/usr/include/finclude/math-vector-fortran.h
REM seed 214521898 1336350083 -1858325740 -976531121 -1800295518 -1065143377 1467794233 -1245776836 -192244161 1870320749 -1002982682 -1549134476 -1303932685 -1054616696 1583200455 -65946979 -451097843 1473309299 1597992302 -971520888 1410685572 -466343780 1556059042 -856582933 908787627 603972201 1996064707 653814427 -1160865334 1311280329 200504569 -1752072647 -1767302305
REM
CELL 1.54180   50.00000   50.00000   50.00000   90.00000   90.00000   90.00000
LATT -1
SFAC C  
C      1  0.4608860000000  0.5579890000000  0.4925020000000 1.0
C      1  0.5391140000000  0.4420110000000  0.5074980000000 1.0
C      1  0.5033560000000  0.5294700000000  0.5356930000000 1.0
C      1  0.4966440000000  0.4705300000000  0.4643070000000 1.0
C      1  0.5025780000000  0.4931770000000  0.4452440000000 1.0
C      1  0.4974220000000  0.5068230000000  0.5547560000000 1.0
C      1  0.5733300000000  0.5161440000000  0.4915610000000 1.0
C      1  0.4266700000000  0.4838560000000  0.5084390000000 1.0
C      1  0.4763740000000  0.5646870000000  0.5149110000000 1.0
C      1  0.5236260000000  0.4353130000000  0.4850890000000 1.0
C      1  0.5319130000000  0.4870350000000  0.4349430000000 1.0
C      1  0.4680870000000  0.5129650000000  0.5650570000000 1.0
C      1  0.5152940000000  0.5540630000000  0.4918340000000 1.0
C      1  0.4847060000000  0.4459370000000  0.5081660000000 1.0
C      1  0.5603990000000  0.5310570000000  0.5109830000000 1.0
C      1  0.4396010000000  0.4689430000000  0.4890170000000 1.0
C      1  0.4593450000000  0.5035200000000  0.4691650000000 1.0
C      1  0.5406550000000  0.4964800000000  0.5308350000000 1.0
C      1  0.4971070000000  0.4572440000000  0.5312960000000 1.0
C      1  0.5028930000000  0.5427560000000  0.4687040000000 1.0
C      1  0.4579120000000  0.4913780000000  0.5435200000000 1.0
C      1  0.5420880000000  0.5086220000000  0.4564800000000 1.0
C      1  0.4953900000000  0.4800180000000  0.4940180000000 1.0
C      1  0.5046100000000  0.5199820000000  0.5059820000000 1.0
C      1  0.5530470000000  0.4975290000000  0.4823480000000 1.0
C      1  0.4469530000000  0.5024710000000  0.5176520000000 1.0
C      1  0.5170020000000  0.4493070000000  0.4612630000000 1.0
C      1  0.4829980000000  0.5506930000000  0.5387370000000 1.0
C      1  0.5271290000000  0.4960680000000  0.5036850000000 1.0
C      1  0.4728710000000  0.5039320000000  0.4963150000000 1.0
C      1  0.5401140000000  0.5473530000000  0.5015350000000 1.0
C      1  0.4598860000000  0.4526470000000  0.4984650000000 1.0
C      1  0.4347580000000  0.5418210000000  0.5453050000000 1.0
C      1  0.5652420000000  0.4581790000000  0.4546950000000 1.0
C      1  0.5262670000000  0.4546770000000  0.5305630000000 1.0
C      1  0.4737330000000  0.5453230000000  0.4694370000000 1.0
C      1  0.5133360000000  0.5159590000000  0.4627620000000 1.0
C      1  0.4866640000000  0.4840410000000  0.5372380000000 1.0
C      1  0.4330340000000  0.5295240000000  0.5202890000000 1.0
C      1  0.5669660000000  0.4704760000000  0.4797110000000 1.0
C      1  0.4583840000000  0.5272580000000  0.4539800000000 1.0
C      1  0.5416160000000  0.4727420000000  0.5460200000000 1.0
C      1  0.5641780000000  0.4526230000000  0.5011230000000 1.0
C      1  0.4358220000000  0.5473770000000  0.4988770000000 1.0
C      1  0.4608110000000  0.5406700000000  0.5562200000000 1.0
C      1  0.5391890000000  0.4593300000000  0.4437800000000 1.0
C      1  0.5574000000000  0.5183530000000  0.5357540000000 1.0
C      1  0.4426000000000  0.4816470000000  0.4642460000000 1.0
END
