TITL C-3578198-8939-572 -3.33319937452854e-07 125000 -112.501387316134 0 0 20 (C2) n - 1
REM
REM in /home/bkarasulu/work/CARBON/AIRSS/Generating-Clusters/EDIP-Nigel-Params/with-SteepDescent/Higher-Symm/SD-CG/HFTN-CG
REM
REM
REM
REM
REM
REM ./C.cell (12c818d87b63d06a65506943cc24bca4)
REM
REM compiler GCC version 9.2.1 20190827 (Red Hat 9.2.1-1)
REM options -cpp -mtune=generic -march=x86-64 -g -O0 -fpre-include=/usr/include/finclude/math-vector-fortran.h
REM seed 279752454 1529554419 1343195937 226955224 -951519942 217834161 -1616581212 -606288840 1688430132 1387481314 -327379208 -907144201 1732880538 -960761185 -1115835197 250374382 -1698865929 1006835182 408583310 -556824066 -72809148 1333733690 -1696206356 518158962 -121614387 -1092666628 1132869440 -1438194342 -997194501 -1148561618 1570517330 -1046262966 2054328991
REM
CELL 1.54180   50.00000   50.00000   50.00000   90.00000   90.00000   90.00000
LATT -1
SFAC C  
C      1  0.5487830000000  0.5094120000000  0.4734130000000 1.0
C      1  0.4514650000000  0.5092000000000  0.5271100000000 1.0
C      1  0.5482450000000  0.5260230000000  0.5487650000000 1.0
C      1  0.4525020000000  0.5299960000000  0.4528090000000 1.0
C      1  0.4958470000000  0.4486800000000  0.4855960000000 1.0
C      1  0.5027740000000  0.4478600000000  0.5114960000000 1.0
C      1  0.5664170000000  0.5210250000000  0.5050840000000 1.0
C      1  0.4341710000000  0.5230390000000  0.4961540000000 1.0
C      1  0.4532330000000  0.5167870000000  0.4757030000000 1.0
C      1  0.5471790000000  0.5141450000000  0.5251660000000 1.0
C      1  0.4258090000000  0.5068410000000  0.5170300000000 1.0
C      1  0.5743590000000  0.5058080000000  0.4833250000000 1.0
C      1  0.5002230000000  0.4943100000000  0.5286540000000 1.0
C      1  0.4996470000000  0.4959360000000  0.4710720000000 1.0
C      1  0.4748670000000  0.4986680000000  0.5141040000000 1.0
C      1  0.5250990000000  0.4987940000000  0.4858240000000 1.0
C      1  0.4928750000000  0.4686520000000  0.4677640000000 1.0
C      1  0.5062630000000  0.4667130000000  0.5304190000000 1.0
C      1  0.4786110000000  0.5097020000000  0.4874520000000 1.0
C      1  0.5216310000000  0.5084090000000  0.5130570000000 1.0
END
