TITL C-3578198-8939-731 -4.15567801087236e-06 125000 -801.164602191957 0 0 127 (C1) n - 1
REM
REM in /home/bkarasulu/work/CARBON/AIRSS/Generating-Clusters/EDIP-Nigel-Params/with-SteepDescent/Higher-Symm/SD-CG/HFTN-CG
REM
REM
REM
REM
REM
REM ./C.cell (12c818d87b63d06a65506943cc24bca4)
REM
REM compiler GCC version 9.2.1 20190827 (Red Hat 9.2.1-1)
REM options -cpp -mtune=generic -march=x86-64 -g -O0 -fpre-include=/usr/include/finclude/math-vector-fortran.h
REM seed 554484547 1397803851 1365514557 -899749260 -524418102 1524812726 1869719624 456990686 1023634532 -1838870614 -792382361 569005859 925616984 726659059 -1538641746 642801069 -1477679247 -375875427 -2082118835 -1654590677 916274012 -527383122 269525230 -277855790 -2130122149 1714431780 1452377637 440740393 -1353137100 2011004638 1966443527 -632821200 -1710056684
REM
CELL 1.54180   50.00000   50.00000   50.00000   90.00000   90.00000   90.00000
LATT -1
SFAC C  
C      1  0.4488180000000  0.4711040000000  0.5675000000000 1.0
C      1  0.5496990000000  0.4699990000000  0.5698030000000 1.0
C      1  0.5022590000000  0.5579480000000  0.5676140000000 1.0
C      1  0.5506360000000  0.4750400000000  0.4322390000000 1.0
C      1  0.4498260000000  0.4688460000000  0.4265370000000 1.0
C      1  0.4974610000000  0.5599310000000  0.4281840000000 1.0
C      1  0.5659360000000  0.5385390000000  0.4223070000000 1.0
C      1  0.4337420000000  0.5376880000000  0.4247450000000 1.0
C      1  0.5037860000000  0.4268500000000  0.4249870000000 1.0
C      1  0.4354320000000  0.5373570000000  0.5783120000000 1.0
C      1  0.5656250000000  0.5369850000000  0.5753180000000 1.0
C      1  0.4979340000000  0.4221290000000  0.5779070000000 1.0
C      1  0.5279410000000  0.4902930000000  0.4748380000000 1.0
C      1  0.4987250000000  0.5308270000000  0.4689750000000 1.0
C      1  0.4664860000000  0.4858540000000  0.4656700000000 1.0
C      1  0.4759040000000  0.4854800000000  0.5294800000000 1.0
C      1  0.4987260000000  0.5274100000000  0.5318380000000 1.0
C      1  0.5235480000000  0.4849280000000  0.5319520000000 1.0
C      1  0.4758390000000  0.5130410000000  0.5218740000000 1.0
C      1  0.5005240000000  0.4721700000000  0.5170260000000 1.0
C      1  0.5230190000000  0.5132910000000  0.5261530000000 1.0
C      1  0.5238990000000  0.5196730000000  0.4783030000000 1.0
C      1  0.4858380000000  0.4618690000000  0.4728240000000 1.0
C      1  0.4768630000000  0.5113380000000  0.4780690000000 1.0
C      1  0.4364200000000  0.4892480000000  0.5853250000000 1.0
C      1  0.5396410000000  0.4478780000000  0.5845910000000 1.0
C      1  0.5243980000000  0.5593180000000  0.5850360000000 1.0
C      1  0.5615090000000  0.4926620000000  0.4130320000000 1.0
C      1  0.4638250000000  0.4493470000000  0.4114120000000 1.0
C      1  0.4740430000000  0.5604010000000  0.4121710000000 1.0
C      1  0.5488740000000  0.5177490000000  0.4150320000000 1.0
C      1  0.4595560000000  0.5361970000000  0.4144910000000 1.0
C      1  0.4916470000000  0.4504540000000  0.4165240000000 1.0
C      1  0.4496490000000  0.5142760000000  0.5849050000000 1.0
C      1  0.5390840000000  0.5352250000000  0.5835090000000 1.0
C      1  0.5113340000000  0.4462720000000  0.5824800000000 1.0
C      1  0.4130140000000  0.5157510000000  0.5396660000000 1.0
C      1  0.5310610000000  0.4125990000000  0.5437240000000 1.0
C      1  0.5575320000000  0.5663690000000  0.5358140000000 1.0
C      1  0.5961860000000  0.5176610000000  0.4561330000000 1.0
C      1  0.4696940000000  0.4141640000000  0.4583420000000 1.0
C      1  0.4390780000000  0.5712000000000  0.4588580000000 1.0
C      1  0.5936300000000  0.4854060000000  0.4563400000000 1.0
C      1  0.4712970000000  0.5915110000000  0.4566890000000 1.0
C      1  0.4445770000000  0.4313470000000  0.4614830000000 1.0
C      1  0.4089330000000  0.4850070000000  0.5400890000000 1.0
C      1  0.5336970000000  0.5845930000000  0.5385900000000 1.0
C      1  0.5632660000000  0.4324850000000  0.5423580000000 1.0
C      1  0.4158070000000  0.5277430000000  0.4685710000000 1.0
C      1  0.5179910000000  0.4194590000000  0.4708230000000 1.0
C      1  0.5691960000000  0.5596440000000  0.4660410000000 1.0
C      1  0.5913770000000  0.5283640000000  0.5336250000000 1.0
C      1  0.4791290000000  0.4065080000000  0.5343700000000 1.0
C      1  0.4351800000000  0.5627180000000  0.5352340000000 1.0
C      1  0.5904290000000  0.4752070000000  0.5340110000000 1.0
C      1  0.4814310000000  0.5893580000000  0.5337340000000 1.0
C      1  0.4301910000000  0.4363950000000  0.5339080000000 1.0
C      1  0.4170270000000  0.4739440000000  0.4680720000000 1.0
C      1  0.5201010000000  0.5824480000000  0.4682710000000 1.0
C      1  0.5654260000000  0.4444520000000  0.4679840000000 1.0
C      1  0.4855360000000  0.5921920000000  0.5040640000000 1.0
C      1  0.4188070000000  0.4381520000000  0.5060440000000 1.0
C      1  0.5867220000000  0.4713270000000  0.5031680000000 1.0
C      1  0.5140730000000  0.5939880000000  0.4940330000000 1.0
C      1  0.5763810000000  0.4434930000000  0.4946010000000 1.0
C      1  0.4086920000000  0.4642700000000  0.4950670000000 1.0
C      1  0.5125160000000  0.4174340000000  0.5003280000000 1.0
C      1  0.5791270000000  0.5577010000000  0.4932260000000 1.0
C      1  0.4134810000000  0.5371470000000  0.4957360000000 1.0
C      1  0.4884580000000  0.3996830000000  0.5065970000000 1.0
C      1  0.4300850000000  0.5607120000000  0.5058100000000 1.0
C      1  0.5857650000000  0.5298330000000  0.5038380000000 1.0
C      1  0.5461810000000  0.4722490000000  0.5214510000000 1.0
C      1  0.5057900000000  0.5525610000000  0.5162150000000 1.0
C      1  0.4514340000000  0.4755170000000  0.5189080000000 1.0
C      1  0.4520710000000  0.4627530000000  0.4914930000000 1.0
C      1  0.4902710000000  0.5569480000000  0.4881620000000 1.0
C      1  0.5570270000000  0.4853170000000  0.4961230000000 1.0
C      1  0.4602520000000  0.5454970000000  0.4857500000000 1.0
C      1  0.4741190000000  0.4394440000000  0.4939340000000 1.0
C      1  0.5605760000000  0.5145110000000  0.5024880000000 1.0
C      1  0.5346110000000  0.5292910000000  0.5039390000000 1.0
C      1  0.4965610000000  0.4423650000000  0.5154850000000 1.0
C      1  0.4547710000000  0.5243590000000  0.5063710000000 1.0
C      1  0.4969460000000  0.5787870000000  0.4507800000000 1.0
C      1  0.4356210000000  0.4578400000000  0.4509400000000 1.0
C      1  0.5675950000000  0.4708030000000  0.4556740000000 1.0
C      1  0.5056960000000  0.5725100000000  0.5408040000000 1.0
C      1  0.5637900000000  0.4623870000000  0.5435460000000 1.0
C      1  0.4338220000000  0.4662480000000  0.5413630000000 1.0
C      1  0.5024840000000  0.4162680000000  0.5508650000000 1.0
C      1  0.5728570000000  0.5450010000000  0.5495880000000 1.0
C      1  0.4277250000000  0.5391580000000  0.5515050000000 1.0
C      1  0.4965970000000  0.4245490000000  0.4521440000000 1.0
C      1  0.4318820000000  0.5443080000000  0.4518030000000 1.0
C      1  0.5750430000000  0.5373000000000  0.4487560000000 1.0
C      1  0.5225190000000  0.5149900000000  0.5706840000000 1.0
C      1  0.4747580000000  0.5109200000000  0.5710830000000 1.0
C      1  0.5011530000000  0.4703280000000  0.5701420000000 1.0
C      1  0.4762340000000  0.5169850000000  0.4280660000000 1.0
C      1  0.5248490000000  0.5144930000000  0.4311850000000 1.0
C      1  0.4979860000000  0.4738520000000  0.4324080000000 1.0
C      1  0.4717240000000  0.4878240000000  0.4359980000000 1.0
C      1  0.5247240000000  0.4866540000000  0.4421080000000 1.0
C      1  0.5003540000000  0.5313650000000  0.4378930000000 1.0
C      1  0.5249210000000  0.4854810000000  0.5623230000000 1.0
C      1  0.4754750000000  0.4831370000000  0.5604650000000 1.0
C      1  0.4977820000000  0.5288730000000  0.5620160000000 1.0
C      1  0.4343070000000  0.4233710000000  0.4872400000000 1.0
C      1  0.6063060000000  0.4850870000000  0.4843470000000 1.0
C      1  0.4632640000000  0.5982490000000  0.4843400000000 1.0
C      1  0.5620930000000  0.4252540000000  0.5142640000000 1.0
C      1  0.3956900000000  0.4821520000000  0.5139800000000 1.0
C      1  0.5358130000000  0.5976260000000  0.5126960000000 1.0
C      1  0.5678000000000  0.5766430000000  0.5112650000000 1.0
C      1  0.4003950000000  0.5197610000000  0.5140850000000 1.0
C      1  0.5368650000000  0.4092530000000  0.5156050000000 1.0
C      1  0.4373890000000  0.5826830000000  0.4856470000000 1.0
C      1  0.6061310000000  0.5161730000000  0.4854690000000 1.0
C      1  0.4666550000000  0.4017830000000  0.4861450000000 1.0
C      1  0.5465530000000  0.5756780000000  0.4617500000000 1.0
C      1  0.4526800000000  0.4183210000000  0.5364280000000 1.0
C      1  0.4564300000000  0.5796630000000  0.5419040000000 1.0
C      1  0.5430880000000  0.4285600000000  0.4635990000000 1.0
C      1  0.5956850000000  0.5017440000000  0.5417280000000 1.0
C      1  0.4111520000000  0.5007790000000  0.4623420000000 1.0
C      1  0.5041890000000  0.4780990000000  0.4881300000000 1.0
END
