TITL C-3578197-9521-529 -1.07192078313227e-07 125000 -73.9735640211126 0 0 15 (D5h) n - 1
REM
REM in /home/bkarasulu/work/CARBON/AIRSS/Generating-Clusters/EDIP-Nigel-Params/with-SteepDescent/Higher-Symm/SD-CG/HFTN-CG
REM
REM
REM
REM
REM
REM ./C.cell (12c818d87b63d06a65506943cc24bca4)
REM
REM compiler GCC version 9.2.1 20190827 (Red Hat 9.2.1-1)
REM options -cpp -mtune=generic -march=x86-64 -g -O0 -fpre-include=/usr/include/finclude/math-vector-fortran.h
REM seed -620423148 -1533027049 33231407 -1743374259 -1483708707 646905564 711659354 664651830 950143380 -1431472938 1490371692 -958787564 683041171 -569675609 -1028306519 1162665708 -1748635890 -1522322569 1783601589 106078761 -1008614674 -920734583 -708319403 413327588 -1543289657 972424903 1139890534 -152293205 -1916884974 -1845893503 809983856 -2139896854 -880757782
REM
CELL 1.54180   50.00000   50.00000   50.00000   90.00000   90.00000   90.00000
LATT -1
SFAC C  
C      1  0.5080760000000  0.4751850000000  0.5341550000000 1.0
C      1  0.5080770000000  0.4598490000000  0.4869540000000 1.0
C      1  0.5080760000000  0.5000000000000  0.4577830000000 1.0
C      1  0.5080760000000  0.5401510000000  0.4869540000000 1.0
C      1  0.5080760000000  0.5248150000000  0.5341550000000 1.0
C      1  0.4777760000000  0.5248150000000  0.5341550000000 1.0
C      1  0.4777760000000  0.5401510000000  0.4869540000000 1.0
C      1  0.4777760000000  0.5000000000000  0.4577830000000 1.0
C      1  0.4777760000000  0.4598490000000  0.4869540000000 1.0
C      1  0.4777760000000  0.4751850000000  0.5341550000000 1.0
C      1  0.4929260000000  0.5470760000000  0.5152960000000 1.0
C      1  0.4929260000000  0.5000000000000  0.5494990000000 1.0
C      1  0.4929260000000  0.5290950000000  0.4599550000000 1.0
C      1  0.4929260000000  0.4529240000000  0.5152960000000 1.0
C      1  0.4929260000000  0.4709050000000  0.4599550000000 1.0
END
