TITL C-3578202-4305-446 -1.84081536015954e-08 125000 -501.154979015039 0 0 83 (C1) n - 1
REM
REM in /home/bkarasulu/work/CARBON/AIRSS/Generating-Clusters/EDIP-Nigel-Params/with-SteepDescent/Higher-Symm/SD-CG/HFTN-CG
REM
REM
REM
REM
REM
REM ./C.cell (12c818d87b63d06a65506943cc24bca4)
REM
REM compiler GCC version 9.2.1 20190827 (Red Hat 9.2.1-1)
REM options -cpp -mtune=generic -march=x86-64 -g -O0 -fpre-include=/usr/include/finclude/math-vector-fortran.h
REM seed -1933338477 303753087 1865501732 -1195883702 -1240125211 617451818 -3001672 954338931 -1162060837 -1667074887 489673265 -1317651173 -443629081 -1892164760 -1951808417 -2069028325 614248327 -381310275 -1862955180 -1125005383 410332718 -782225832 326678446 -674834162 -1826460281 -648660062 -801667507 361172175 -1525479403 1000000708 553142304 1996223973 -382602893
REM
CELL 1.54180   50.00000   50.00000   50.00000   90.00000   90.00000   90.00000
LATT -1
SFAC C  
C      1  0.5333820000000  0.4303580000000  0.4862480000000 1.0
C      1  0.5779310000000  0.5212540000000  0.4881000000000 1.0
C      1  0.4954800000000  0.5698380000000  0.4915860000000 1.0
C      1  0.4282860000000  0.5346900000000  0.4840790000000 1.0
C      1  0.4444410000000  0.4406500000000  0.4868010000000 1.0
C      1  0.5348290000000  0.4309060000000  0.5149310000000 1.0
C      1  0.5793320000000  0.5215460000000  0.5165100000000 1.0
C      1  0.5058220000000  0.5756720000000  0.5173610000000 1.0
C      1  0.4287050000000  0.5329880000000  0.5127130000000 1.0
C      1  0.4554540000000  0.4416450000000  0.5128240000000 1.0
C      1  0.5619640000000  0.4971920000000  0.5231420000000 1.0
C      1  0.5219020000000  0.5507070000000  0.5217130000000 1.0
C      1  0.4569730000000  0.5418630000000  0.5190740000000 1.0
C      1  0.4521950000000  0.4705590000000  0.5190420000000 1.0
C      1  0.5122130000000  0.4476090000000  0.5255850000000 1.0
C      1  0.5617710000000  0.4957630000000  0.4846240000000 1.0
C      1  0.5157780000000  0.5494110000000  0.4830010000000 1.0
C      1  0.4580590000000  0.5401370000000  0.4799680000000 1.0
C      1  0.4466310000000  0.4702080000000  0.4800190000000 1.0
C      1  0.5100720000000  0.4468640000000  0.4771300000000 1.0
C      1  0.5346850000000  0.4624370000000  0.5656720000000 1.0
C      1  0.5351160000000  0.5080680000000  0.5624260000000 1.0
C      1  0.4970190000000  0.5324790000000  0.5618620000000 1.0
C      1  0.4552920000000  0.5136590000000  0.5512720000000 1.0
C      1  0.4884530000000  0.4824080000000  0.5610880000000 1.0
C      1  0.5269940000000  0.4774040000000  0.4402470000000 1.0
C      1  0.5481660000000  0.5195070000000  0.4508710000000 1.0
C      1  0.5026580000000  0.5226900000000  0.4429850000000 1.0
C      1  0.4552340000000  0.5153780000000  0.4450350000000 1.0
C      1  0.4802580000000  0.4765790000000  0.4437700000000 1.0
C      1  0.4518810000000  0.4215630000000  0.5320200000000 1.0
C      1  0.5601270000000  0.4342930000000  0.5264530000000 1.0
C      1  0.5832010000000  0.5461160000000  0.5290450000000 1.0
C      1  0.4900000000000  0.5864650000000  0.5370790000000 1.0
C      1  0.4148810000000  0.5130340000000  0.5264770000000 1.0
C      1  0.4535980000000  0.4206870000000  0.4699220000000 1.0
C      1  0.5572960000000  0.4319910000000  0.4722030000000 1.0
C      1  0.5754210000000  0.5451420000000  0.4739970000000 1.0
C      1  0.4884330000000  0.5899900000000  0.4738740000000 1.0
C      1  0.4119420000000  0.5176710000000  0.4693580000000 1.0
C      1  0.4572800000000  0.5577710000000  0.5460690000000 1.0
C      1  0.4384030000000  0.4732460000000  0.5453820000000 1.0
C      1  0.4978470000000  0.4350560000000  0.5492010000000 1.0
C      1  0.5735720000000  0.4802670000000  0.5460020000000 1.0
C      1  0.5425760000000  0.5558910000000  0.5433780000000 1.0
C      1  0.4652860000000  0.5574390000000  0.4543380000000 1.0
C      1  0.4323980000000  0.4761310000000  0.4536040000000 1.0
C      1  0.4937820000000  0.4330420000000  0.4559090000000 1.0
C      1  0.5725650000000  0.4796170000000  0.4602810000000 1.0
C      1  0.5314030000000  0.5597610000000  0.4588740000000 1.0
C      1  0.4830350000000  0.4490950000000  0.4359900000000 1.0
C      1  0.5532030000000  0.4926020000000  0.4409750000000 1.0
C      1  0.5287180000000  0.5377660000000  0.4388090000000 1.0
C      1  0.4750360000000  0.5349970000000  0.4376870000000 1.0
C      1  0.4536330000000  0.4881020000000  0.4365520000000 1.0
C      1  0.4974060000000  0.4553110000000  0.5700650000000 1.0
C      1  0.5542500000000  0.4843280000000  0.5692820000000 1.0
C      1  0.5450250000000  0.5351850000000  0.5621830000000 1.0
C      1  0.4673910000000  0.5363460000000  0.5634480000000 1.0
C      1  0.4584850000000  0.4877380000000  0.5624600000000 1.0
C      1  0.4789050000000  0.5161360000000  0.5207760000000 1.0
C      1  0.4792590000000  0.4835270000000  0.5233550000000 1.0
C      1  0.5248680000000  0.4705710000000  0.5389890000000 1.0
C      1  0.5315740000000  0.5001830000000  0.5325060000000 1.0
C      1  0.5057450000000  0.5261200000000  0.5327640000000 1.0
C      1  0.4760670000000  0.5123360000000  0.4779350000000 1.0
C      1  0.4759590000000  0.4799330000000  0.4753990000000 1.0
C      1  0.5192110000000  0.4739510000000  0.4683390000000 1.0
C      1  0.5299960000000  0.5004980000000  0.4780240000000 1.0
C      1  0.5055470000000  0.5213800000000  0.4735580000000 1.0
C      1  0.5714660000000  0.4517890000000  0.4611800000000 1.0
C      1  0.5585110000000  0.5638020000000  0.4644770000000 1.0
C      1  0.4765730000000  0.5829960000000  0.4508680000000 1.0
C      1  0.4111940000000  0.4940790000000  0.4566250000000 1.0
C      1  0.4779030000000  0.4113240000000  0.4630480000000 1.0
C      1  0.5750770000000  0.4530360000000  0.5388700000000 1.0
C      1  0.5670740000000  0.5667710000000  0.5355220000000 1.0
C      1  0.4674670000000  0.5834090000000  0.5508610000000 1.0
C      1  0.4165440000000  0.4899780000000  0.5403610000000 1.0
C      1  0.4747430000000  0.4199320000000  0.5461330000000 1.0
C      1  0.5057400000000  0.5059180000000  0.5723430000000 1.0
C      1  0.5031790000000  0.4938340000000  0.4321780000000 1.0
C      1  0.4941200000000  0.4599800000000  0.5024250000000 1.0
END
