TITL C-3577076-40-371 -3.63430456231529e-06 125000 -598.169340941913 0 0 97 (C1) n - 1
REM
REM in /home/bkarasulu/work/CARBON/AIRSS/Generating-Clusters/EDIP-Nigel-Params/with-SteepDescent/Higher-Symm/SD-CG/HFTN-CG
REM
REM
REM
REM
REM
REM ./C.cell (12c818d87b63d06a65506943cc24bca4)
REM
REM compiler GCC version 9.2.1 20190827 (Red Hat 9.2.1-1)
REM options -cpp -mtune=generic -march=x86-64 -g -O0 -fpre-include=/usr/include/finclude/math-vector-fortran.h
REM seed -2097278132 -1459633810 1316548309 131857645 -911996695 1189500350 2119548615 -1634101800 -532903456 545468369 -1674236848 -655740499 -1415628133 -1672975155 -1514212215 -994608241 -1196478179 -602661659 12553464 -2130317868 -1493990436 411597693 749856121 745722149 1091840704 783581155 832074097 742366083 -958070101 1506207259 476552061 -1257116941 1214457402
REM
CELL 1.54180   50.00000   50.00000   50.00000   90.00000   90.00000   90.00000
LATT -1
SFAC C  
C      1  0.5815420000000  0.4561500000000  0.4955310000000 1.0
C      1  0.5828190000000  0.5128790000000  0.5305320000000 1.0
C      1  0.5802430000000  0.5259710000000  0.4688240000000 1.0
C      1  0.4173430000000  0.4566310000000  0.4969020000000 1.0
C      1  0.4182030000000  0.5120480000000  0.5310520000000 1.0
C      1  0.4173270000000  0.5283200000000  0.4672920000000 1.0
C      1  0.4757030000000  0.4888530000000  0.5291560000000 1.0
C      1  0.4801790000000  0.5329300000000  0.4933530000000 1.0
C      1  0.4803340000000  0.4791100000000  0.4795600000000 1.0
C      1  0.5202890000000  0.4921530000000  0.5253550000000 1.0
C      1  0.5241130000000  0.5377530000000  0.4934760000000 1.0
C      1  0.5238840000000  0.4728470000000  0.4742170000000 1.0
C      1  0.5309680000000  0.4630340000000  0.4265090000000 1.0
C      1  0.5280140000000  0.4590050000000  0.5664740000000 1.0
C      1  0.5307700000000  0.5853750000000  0.5046380000000 1.0
C      1  0.4713070000000  0.4636080000000  0.4307260000000 1.0
C      1  0.4723060000000  0.4569580000000  0.5683180000000 1.0
C      1  0.4702230000000  0.5824160000000  0.5041450000000 1.0
C      1  0.3997220000000  0.5170000000000  0.4854620000000 1.0
C      1  0.3980530000000  0.4747890000000  0.5052660000000 1.0
C      1  0.4007270000000  0.5022740000000  0.5089920000000 1.0
C      1  0.6007970000000  0.5174610000000  0.4852470000000 1.0
C      1  0.6005700000000  0.4748490000000  0.5038390000000 1.0
C      1  0.5999710000000  0.5024780000000  0.5085140000000 1.0
C      1  0.5521570000000  0.4425590000000  0.5606450000000 1.0
C      1  0.5558880000000  0.5835910000000  0.5214880000000 1.0
C      1  0.5565730000000  0.4780550000000  0.4204710000000 1.0
C      1  0.4481330000000  0.4403850000000  0.5617190000000 1.0
C      1  0.4451710000000  0.5820730000000  0.5210320000000 1.0
C      1  0.4464320000000  0.4783240000000  0.4228880000000 1.0
C      1  0.5717730000000  0.4559960000000  0.4666870000000 1.0
C      1  0.5664500000000  0.4910820000000  0.5441380000000 1.0
C      1  0.5701560000000  0.5521600000000  0.4803490000000 1.0
C      1  0.4342790000000  0.4647240000000  0.4725880000000 1.0
C      1  0.4288400000000  0.4900180000000  0.5503910000000 1.0
C      1  0.4348120000000  0.5474570000000  0.4812210000000 1.0
C      1  0.4638930000000  0.4382280000000  0.4418380000000 1.0
C      1  0.4638840000000  0.4798970000000  0.5839950000000 1.0
C      1  0.4640190000000  0.5854820000000  0.4763770000000 1.0
C      1  0.5373860000000  0.4363760000000  0.4362050000000 1.0
C      1  0.5355960000000  0.4822640000000  0.5815900000000 1.0
C      1  0.5376620000000  0.5884980000000  0.4767700000000 1.0
C      1  0.4767570000000  0.5040820000000  0.5563090000000 1.0
C      1  0.4811770000000  0.5502620000000  0.4671320000000 1.0
C      1  0.4804680000000  0.4476810000000  0.4761360000000 1.0
C      1  0.5201670000000  0.5054580000000  0.5542620000000 1.0
C      1  0.5234640000000  0.5524350000000  0.4675880000000 1.0
C      1  0.5230700000000  0.4432290000000  0.4718180000000 1.0
C      1  0.5317710000000  0.5507380000000  0.5385160000000 1.0
C      1  0.5336350000000  0.5091440000000  0.4421600000000 1.0
C      1  0.5320340000000  0.4408730000000  0.5212710000000 1.0
C      1  0.4685150000000  0.5486060000000  0.5380110000000 1.0
C      1  0.4709150000000  0.5103370000000  0.4406710000000 1.0
C      1  0.4701360000000  0.4397870000000  0.5233090000000 1.0
C      1  0.4879980000000  0.5346430000000  0.4428030000000 1.0
C      1  0.4867720000000  0.4310670000000  0.4997550000000 1.0
C      1  0.4849570000000  0.5326870000000  0.5566490000000 1.0
C      1  0.5171620000000  0.5342390000000  0.4447080000000 1.0
C      1  0.5160190000000  0.4301330000000  0.4981970000000 1.0
C      1  0.5140790000000  0.5342000000000  0.5563810000000 1.0
C      1  0.5486710000000  0.5020050000000  0.5654350000000 1.0
C      1  0.5501810000000  0.5664710000000  0.4634240000000 1.0
C      1  0.5512780000000  0.4343380000000  0.4616260000000 1.0
C      1  0.4492680000000  0.5004670000000  0.5696970000000 1.0
C      1  0.4537300000000  0.5625500000000  0.4635700000000 1.0
C      1  0.4520490000000  0.4408510000000  0.4676740000000 1.0
C      1  0.4848060000000  0.5564230000000  0.5130360000000 1.0
C      1  0.4856710000000  0.4846110000000  0.4489070000000 1.0
C      1  0.4847180000000  0.4612650000000  0.5396310000000 1.0
C      1  0.5167680000000  0.5585390000000  0.5131050000000 1.0
C      1  0.5173250000000  0.4828930000000  0.4470030000000 1.0
C      1  0.5161460000000  0.4626860000000  0.5376800000000 1.0
C      1  0.5736590000000  0.5609890000000  0.5108770000000 1.0
C      1  0.5729420000000  0.4806450000000  0.4460270000000 1.0
C      1  0.5694050000000  0.4602460000000  0.5422120000000 1.0
C      1  0.4273960000000  0.5596580000000  0.5108650000000 1.0
C      1  0.4289090000000  0.4825310000000  0.4474260000000 1.0
C      1  0.4288420000000  0.4580950000000  0.5459330000000 1.0
C      1  0.4556640000000  0.5736700000000  0.5468930000000 1.0
C      1  0.4570680000000  0.5042540000000  0.4149850000000 1.0
C      1  0.4597190000000  0.4207970000000  0.5434560000000 1.0
C      1  0.5452160000000  0.5754870000000  0.5473930000000 1.0
C      1  0.5459560000000  0.5046240000000  0.4156950000000 1.0
C      1  0.5405840000000  0.4221730000000  0.5429180000000 1.0
C      1  0.5496160000000  0.4832220000000  0.4832900000000 1.0
C      1  0.5471800000000  0.4962760000000  0.5110930000000 1.0
C      1  0.5498220000000  0.5249910000000  0.4995990000000 1.0
C      1  0.4517150000000  0.4872670000000  0.4856710000000 1.0
C      1  0.4485590000000  0.4852220000000  0.5166410000000 1.0
C      1  0.4514320000000  0.5242000000000  0.4954410000000 1.0
C      1  0.5625990000000  0.5365050000000  0.5242830000000 1.0
C      1  0.5592700000000  0.5040550000000  0.4612360000000 1.0
C      1  0.5598190000000  0.4539230000000  0.5149110000000 1.0
C      1  0.4399290000000  0.5331550000000  0.5230270000000 1.0
C      1  0.4345290000000  0.5104960000000  0.4525220000000 1.0
C      1  0.4396760000000  0.4564220000000  0.5181580000000 1.0
C      1  0.4946120000000  0.4996150000000  0.5064080000000 1.0
END
