TITL C-3578196-9646-481 2.00803809631752e-06 125000 -1190.31068736509 0 0 189 (C1) n - 1
REM
REM in /home/bkarasulu/work/CARBON/AIRSS/Generating-Clusters/EDIP-Nigel-Params/with-SteepDescent/Higher-Symm/SD-CG/HFTN-CG
REM
REM
REM
REM
REM
REM ./C.cell (12c818d87b63d06a65506943cc24bca4)
REM
REM compiler GCC version 9.2.1 20190827 (Red Hat 9.2.1-1)
REM options -cpp -mtune=generic -march=x86-64 -g -O0 -fpre-include=/usr/include/finclude/math-vector-fortran.h
REM seed 502653066 481944909 -965876926 -1523163070 -1638121755 1744157795 1561756391 -727612106 839142619 -60550024 949162144 -29009585 1937702162 -1732281752 -780196386 -2000183497 179166674 -1977573910 -1353641750 578564283 1245907713 1992631106 -1197611604 -1011236492 1084127688 -125674210 -132454542 1274879984 -844152270 1382852114 -227688825 339308162 2092340926
REM
CELL 1.54180   50.00000   50.00000   50.00000   90.00000   90.00000   90.00000
LATT -1
SFAC C  
C      1  0.5447470000000  0.4025730000000  0.4779510000000 1.0
C      1  0.4525180000000  0.5582490000000  0.5587160000000 1.0
C      1  0.5195090000000  0.3948460000000  0.4923410000000 1.0
C      1  0.5814520000000  0.5900780000000  0.5092200000000 1.0
C      1  0.4620030000000  0.5434670000000  0.4371970000000 1.0
C      1  0.4953430000000  0.4053920000000  0.4489360000000 1.0
C      1  0.5386220000000  0.5215720000000  0.5274020000000 1.0
C      1  0.4437050000000  0.5872890000000  0.5096220000000 1.0
C      1  0.5552210000000  0.5118530000000  0.5558220000000 1.0
C      1  0.5247210000000  0.5697600000000  0.4824550000000 1.0
C      1  0.5819350000000  0.4365210000000  0.4702160000000 1.0
C      1  0.4535960000000  0.4707600000000  0.4814080000000 1.0
C      1  0.4475680000000  0.4229350000000  0.5579990000000 1.0
C      1  0.5708980000000  0.4371250000000  0.5819450000000 1.0
C      1  0.4669270000000  0.5295130000000  0.5515250000000 1.0
C      1  0.4112990000000  0.4451520000000  0.5323480000000 1.0
C      1  0.4523290000000  0.5062550000000  0.5908140000000 1.0
C      1  0.5795330000000  0.5292730000000  0.5681780000000 1.0
C      1  0.5495710000000  0.4776730000000  0.4561500000000 1.0
C      1  0.6145860000000  0.4531450000000  0.5171720000000 1.0
C      1  0.5769580000000  0.5014790000000  0.5192880000000 1.0
C      1  0.4531840000000  0.4097400000000  0.5320420000000 1.0
C      1  0.5813360000000  0.4221870000000  0.5330750000000 1.0
C      1  0.4242340000000  0.4435390000000  0.4250130000000 1.0
C      1  0.5056050000000  0.4968730000000  0.5768870000000 1.0
C      1  0.4937720000000  0.5487100000000  0.3961160000000 1.0
C      1  0.4318510000000  0.5204630000000  0.4099930000000 1.0
C      1  0.4894090000000  0.5305700000000  0.6091480000000 1.0
C      1  0.5619540000000  0.5534180000000  0.5694680000000 1.0
C      1  0.5185260000000  0.4075830000000  0.5708140000000 1.0
C      1  0.4690520000000  0.5699030000000  0.5803350000000 1.0
C      1  0.5945080000000  0.4841870000000  0.4495400000000 1.0
C      1  0.4727700000000  0.4951080000000  0.4354550000000 1.0
C      1  0.3981840000000  0.4710410000000  0.5296860000000 1.0
C      1  0.6111020000000  0.5510640000000  0.5009560000000 1.0
C      1  0.4756320000000  0.3920980000000  0.5219300000000 1.0
C      1  0.4953390000000  0.4056310000000  0.4789580000000 1.0
C      1  0.4600900000000  0.4147090000000  0.5815570000000 1.0
C      1  0.5372010000000  0.5239670000000  0.6012840000000 1.0
C      1  0.4457570000000  0.5864020000000  0.4492140000000 1.0
C      1  0.3955570000000  0.4633560000000  0.4763820000000 1.0
C      1  0.5072510000000  0.5735820000000  0.5504140000000 1.0
C      1  0.4091210000000  0.4399920000000  0.4700200000000 1.0
C      1  0.4928970000000  0.5564640000000  0.5187310000000 1.0
C      1  0.5786520000000  0.5187880000000  0.4941990000000 1.0
C      1  0.4334680000000  0.4504020000000  0.5128380000000 1.0
C      1  0.5919290000000  0.5135320000000  0.4579570000000 1.0
C      1  0.4146650000000  0.5150620000000  0.4306420000000 1.0
C      1  0.5445180000000  0.5483340000000  0.4732030000000 1.0
C      1  0.5107110000000  0.4458580000000  0.5349140000000 1.0
C      1  0.3891890000000  0.5677370000000  0.4994740000000 1.0
C      1  0.5126510000000  0.6119810000000  0.5184080000000 1.0
C      1  0.4239940000000  0.4412490000000  0.5590950000000 1.0
C      1  0.4662100000000  0.4791310000000  0.5518210000000 1.0
C      1  0.5860140000000  0.5770340000000  0.5348700000000 1.0
C      1  0.4538450000000  0.4255290000000  0.4596550000000 1.0
C      1  0.5442080000000  0.4093370000000  0.4492960000000 1.0
C      1  0.5266960000000  0.4053640000000  0.5439720000000 1.0
C      1  0.3968700000000  0.4790170000000  0.5010630000000 1.0
C      1  0.5223750000000  0.5456360000000  0.4298870000000 1.0
C      1  0.5084580000000  0.4280340000000  0.5872070000000 1.0
C      1  0.5194290000000  0.4096150000000  0.4347800000000 1.0
C      1  0.4476500000000  0.5597680000000  0.4993460000000 1.0
C      1  0.4890130000000  0.4532660000000  0.4021060000000 1.0
C      1  0.4964200000000  0.5662210000000  0.4694770000000 1.0
C      1  0.4245660000000  0.4683060000000  0.5718100000000 1.0
C      1  0.5104990000000  0.4462430000000  0.4422870000000 1.0
C      1  0.3917610000000  0.5442810000000  0.5140110000000 1.0
C      1  0.4531600000000  0.4774380000000  0.5802810000000 1.0
C      1  0.5873700000000  0.5672130000000  0.4913050000000 1.0
C      1  0.4483870000000  0.5042000000000  0.5449070000000 1.0
C      1  0.5232960000000  0.4501050000000  0.4881780000000 1.0
C      1  0.5414380000000  0.4870410000000  0.3937650000000 1.0
C      1  0.5624770000000  0.4976200000000  0.4112660000000 1.0
C      1  0.5006960000000  0.4741270000000  0.5968810000000 1.0
C      1  0.4391900000000  0.5384140000000  0.5181090000000 1.0
C      1  0.4594590000000  0.5205030000000  0.4175500000000 1.0
C      1  0.4887290000000  0.5005500000000  0.3863640000000 1.0
C      1  0.4215530000000  0.4881250000000  0.4405810000000 1.0
C      1  0.4741000000000  0.4606480000000  0.5950080000000 1.0
C      1  0.5646170000000  0.4201570000000  0.4918770000000 1.0
C      1  0.4263580000000  0.4697910000000  0.4172720000000 1.0
C      1  0.5583830000000  0.5683790000000  0.5435230000000 1.0
C      1  0.5342870000000  0.5025040000000  0.4478080000000 1.0
C      1  0.4196980000000  0.5732630000000  0.4602780000000 1.0
C      1  0.5338080000000  0.5048820000000  0.4987710000000 1.0
C      1  0.5085460000000  0.4930200000000  0.4280560000000 1.0
C      1  0.5373400000000  0.5479840000000  0.5839850000000 1.0
C      1  0.5656810000000  0.4752380000000  0.5132550000000 1.0
C      1  0.6009940000000  0.5303080000000  0.5473020000000 1.0
C      1  0.4771010000000  0.5544850000000  0.4926390000000 1.0
C      1  0.5374970000000  0.5973510000000  0.4849800000000 1.0
C      1  0.4455030000000  0.4758120000000  0.3977980000000 1.0
C      1  0.5700650000000  0.4772440000000  0.4327260000000 1.0
C      1  0.4746290000000  0.5260010000000  0.3923120000000 1.0
C      1  0.5987160000000  0.4849600000000  0.5608980000000 1.0
C      1  0.5154670000000  0.5047450000000  0.4001440000000 1.0
C      1  0.5509730000000  0.5190480000000  0.4279950000000 1.0
C      1  0.5793980000000  0.4047010000000  0.5114120000000 1.0
C      1  0.5047460000000  0.5865130000000  0.4311280000000 1.0
C      1  0.5744630000000  0.5321030000000  0.4405560000000 1.0
C      1  0.5195070000000  0.6182590000000  0.4911480000000 1.0
C      1  0.4494250000000  0.4077160000000  0.4838430000000 1.0
C      1  0.5535090000000  0.5971580000000  0.5091420000000 1.0
C      1  0.4754000000000  0.4318220000000  0.4143000000000 1.0
C      1  0.5914170000000  0.4666330000000  0.4746400000000 1.0
C      1  0.5832770000000  0.4606800000000  0.5548610000000 1.0
C      1  0.5068470000000  0.3995920000000  0.5220890000000 1.0
C      1  0.5656420000000  0.4203740000000  0.5580830000000 1.0
C      1  0.4626890000000  0.4530250000000  0.5295490000000 1.0
C      1  0.4849570000000  0.5730620000000  0.4136250000000 1.0
C      1  0.4873330000000  0.4638150000000  0.4536580000000 1.0
C      1  0.4658680000000  0.6025110000000  0.4963410000000 1.0
C      1  0.3955340000000  0.4822810000000  0.4541290000000 1.0
C      1  0.4054290000000  0.5841500000000  0.4841450000000 1.0
C      1  0.4721470000000  0.3911700000000  0.4916010000000 1.0
C      1  0.5773770000000  0.4943670000000  0.5820060000000 1.0
C      1  0.5372390000000  0.5016640000000  0.5805740000000 1.0
C      1  0.4800540000000  0.4335580000000  0.5863410000000 1.0
C      1  0.5193300000000  0.5351640000000  0.4022280000000 1.0
C      1  0.4340800000000  0.5283740000000  0.5954730000000 1.0
C      1  0.5125270000000  0.4739110000000  0.5295420000000 1.0
C      1  0.4705560000000  0.4483370000000  0.4723210000000 1.0
C      1  0.4939490000000  0.4350740000000  0.4898660000000 1.0
C      1  0.5138280000000  0.5461510000000  0.5655130000000 1.0
C      1  0.4937380000000  0.6015480000000  0.4538670000000 1.0
C      1  0.3854320000000  0.5084140000000  0.4630620000000 1.0
C      1  0.4025440000000  0.5258740000000  0.4935500000000 1.0
C      1  0.5404720000000  0.4578020000000  0.4031800000000 1.0
C      1  0.6093910000000  0.5223890000000  0.4903240000000 1.0
C      1  0.4845900000000  0.6044730000000  0.5191000000000 1.0
C      1  0.5654930000000  0.4788160000000  0.4827010000000 1.0
C      1  0.4652230000000  0.5162130000000  0.6146790000000 1.0
C      1  0.4108880000000  0.5357330000000  0.4524680000000 1.0
C      1  0.6195450000000  0.4995660000000  0.5082980000000 1.0
C      1  0.4945950000000  0.5440830000000  0.4474910000000 1.0
C      1  0.4467840000000  0.5845080000000  0.5402700000000 1.0
C      1  0.4906670000000  0.5254930000000  0.5796940000000 1.0
C      1  0.4763870000000  0.5244250000000  0.4861120000000 1.0
C      1  0.5319100000000  0.5741300000000  0.4306650000000 1.0
C      1  0.5531980000000  0.4679410000000  0.5566880000000 1.0
C      1  0.5445410000000  0.4370090000000  0.5060590000000 1.0
C      1  0.4343160000000  0.5534890000000  0.5817970000000 1.0
C      1  0.4092830000000  0.4866290000000  0.5525790000000 1.0
C      1  0.6022220000000  0.5029050000000  0.5357570000000 1.0
C      1  0.6043110000000  0.5539970000000  0.5301790000000 1.0
C      1  0.4399070000000  0.4207610000000  0.5086660000000 1.0
C      1  0.5643380000000  0.4313390000000  0.4455000000000 1.0
C      1  0.6135070000000  0.4721210000000  0.4968560000000 1.0
C      1  0.5302480000000  0.5936860000000  0.5390870000000 1.0
C      1  0.4980130000000  0.4866600000000  0.4705450000000 1.0
C      1  0.4195060000000  0.6005130000000  0.5013330000000 1.0
C      1  0.4734970000000  0.4767980000000  0.3954730000000 1.0
C      1  0.4634600000000  0.4821270000000  0.5074380000000 1.0
C      1  0.5469050000000  0.5497010000000  0.5204760000000 1.0
C      1  0.5149440000000  0.5240880000000  0.6187950000000 1.0
C      1  0.4410130000000  0.5406260000000  0.4602730000000 1.0
C      1  0.5873740000000  0.4508440000000  0.5261490000000 1.0
C      1  0.5595750000000  0.5562490000000  0.4490530000000 1.0
C      1  0.4269630000000  0.4326800000000  0.4502010000000 1.0
C      1  0.5650930000000  0.5464790000000  0.4955100000000 1.0
C      1  0.4880760000000  0.4336370000000  0.5204240000000 1.0
C      1  0.5339570000000  0.4511140000000  0.4596210000000 1.0
C      1  0.5132040000000  0.4618170000000  0.4172820000000 1.0
C      1  0.4712770000000  0.4157100000000  0.4371040000000 1.0
C      1  0.4820600000000  0.5075340000000  0.5088720000000 1.0
C      1  0.4887050000000  0.5287100000000  0.5299310000000 1.0
C      1  0.4962700000000  0.5179230000000  0.4648950000000 1.0
C      1  0.5146540000000  0.4803630000000  0.4958800000000 1.0
C      1  0.4488110000000  0.5172430000000  0.4765070000000 1.0
C      1  0.4137700000000  0.5410630000000  0.5345130000000 1.0
C      1  0.4709390000000  0.6001150000000  0.5445050000000 1.0
C      1  0.4306130000000  0.5158130000000  0.5010070000000 1.0
C      1  0.5213660000000  0.5616780000000  0.5102600000000 1.0
C      1  0.5148110000000  0.5256430000000  0.5428640000000 1.0
C      1  0.4121770000000  0.5164430000000  0.5521010000000 1.0
C      1  0.5288850000000  0.5204580000000  0.4732680000000 1.0
C      1  0.5381120000000  0.4326290000000  0.5356360000000 1.0
C      1  0.4357820000000  0.4900610000000  0.5177300000000 1.0
C      1  0.4951220000000  0.4870820000000  0.5506420000000 1.0
C      1  0.4490530000000  0.4914560000000  0.4591220000000 1.0
C      1  0.4561520000000  0.5706500000000  0.4247690000000 1.0
C      1  0.4676280000000  0.5985920000000  0.4662990000000 1.0
C      1  0.5419210000000  0.4774840000000  0.5324050000000 1.0
C      1  0.5650670000000  0.4503770000000  0.4210060000000 1.0
C      1  0.3837310000000  0.5032210000000  0.4932050000000 1.0
C      1  0.5520870000000  0.4630500000000  0.5871220000000 1.0
C      1  0.4863850000000  0.5878070000000  0.5657970000000 1.0
C      1  0.5223010000000  0.4536740000000  0.5933850000000 1.0
END
