TITL C-3577076-40-179 1.87484018016829e-06 125000 -920.972489872439 0 0 148 (C1) n - 1
REM
REM in /home/bkarasulu/work/CARBON/AIRSS/Generating-Clusters/EDIP-Nigel-Params/with-SteepDescent/Higher-Symm/SD-CG/HFTN-CG
REM
REM
REM
REM
REM
REM ./C.cell (12c818d87b63d06a65506943cc24bca4)
REM
REM compiler GCC version 9.2.1 20190827 (Red Hat 9.2.1-1)
REM options -cpp -mtune=generic -march=x86-64 -g -O0 -fpre-include=/usr/include/finclude/math-vector-fortran.h
REM seed -1294044693 -1327418931 -1892771046 270813792 236076887 923979272 -1105258552 -106805221 1848723939 187574765 740716182 1200958385 -1997458971 1321192274 -1576202194 -50143826 824191738 1186709808 2073968460 580444942 333062042 -65947755 580864655 -1050091141 -1647238728 958099466 945263510 -39738740 -1737210884 -487631183 1296814285 394718107 180707320
REM
CELL 1.54180   50.00000   50.00000   50.00000   90.00000   90.00000   90.00000
LATT -1
SFAC C  
C      1  0.5825040000000  0.5303210000000  0.4314830000000 1.0
C      1  0.5285590000000  0.5822460000000  0.4325860000000 1.0
C      1  0.4513270000000  0.5781070000000  0.4314380000000 1.0
C      1  0.4081200000000  0.5112620000000  0.4325700000000 1.0
C      1  0.4427630000000  0.4382220000000  0.4396670000000 1.0
C      1  0.5019790000000  0.4128390000000  0.4315550000000 1.0
C      1  0.5781750000000  0.4523500000000  0.4306590000000 1.0
C      1  0.5394350000000  0.4109620000000  0.5430320000000 1.0
C      1  0.5872560000000  0.4784060000000  0.5404090000000 1.0
C      1  0.5749320000000  0.5594300000000  0.5403190000000 1.0
C      1  0.5011010000000  0.5901230000000  0.5417740000000 1.0
C      1  0.4293520000000  0.5604570000000  0.5422460000000 1.0
C      1  0.4067200000000  0.4831220000000  0.5418530000000 1.0
C      1  0.4559110000000  0.4144910000000  0.5397580000000 1.0
C      1  0.4343580000000  0.5400700000000  0.5627820000000 1.0
C      1  0.4316600000000  0.4768110000000  0.5587810000000 1.0
C      1  0.4732240000000  0.4206600000000  0.5628790000000 1.0
C      1  0.5434450000000  0.4308060000000  0.5642880000000 1.0
C      1  0.5782510000000  0.4945030000000  0.5627860000000 1.0
C      1  0.5575830000000  0.5632000000000  0.5645690000000 1.0
C      1  0.4916260000000  0.5703040000000  0.5621580000000 1.0
C      1  0.5230340000000  0.4187240000000  0.4992650000000 1.0
C      1  0.5773910000000  0.4657610000000  0.4963310000000 1.0
C      1  0.5763130000000  0.5411690000000  0.4947970000000 1.0
C      1  0.5140750000000  0.5856080000000  0.4960250000000 1.0
C      1  0.4464480000000  0.5644370000000  0.4970550000000 1.0
C      1  0.4157620000000  0.5002720000000  0.4982780000000 1.0
C      1  0.4493240000000  0.4290130000000  0.4925810000000 1.0
C      1  0.4906490000000  0.5543570000000  0.4109630000000 1.0
C      1  0.4486150000000  0.5315260000000  0.4088190000000 1.0
C      1  0.4474120000000  0.4835740000000  0.4125530000000 1.0
C      1  0.4852700000000  0.4522140000000  0.4161740000000 1.0
C      1  0.5316110000000  0.4517170000000  0.4089670000000 1.0
C      1  0.5547870000000  0.4937630000000  0.4099560000000 1.0
C      1  0.5341150000000  0.5362310000000  0.4142470000000 1.0
C      1  0.4959120000000  0.4629040000000  0.4429560000000 1.0
C      1  0.5266530000000  0.4629110000000  0.4388460000000 1.0
C      1  0.5408050000000  0.4933050000000  0.4389350000000 1.0
C      1  0.5245850000000  0.5257950000000  0.4417800000000 1.0
C      1  0.4908850000000  0.5400620000000  0.4396570000000 1.0
C      1  0.4596730000000  0.5257520000000  0.4379520000000 1.0
C      1  0.4584640000000  0.4947620000000  0.4403030000000 1.0
C      1  0.5028600000000  0.5377250000000  0.5944830000000 1.0
C      1  0.4748900000000  0.5244000000000  0.5843800000000 1.0
C      1  0.4658910000000  0.4940780000000  0.5913320000000 1.0
C      1  0.4827670000000  0.4673570000000  0.5866190000000 1.0
C      1  0.5149300000000  0.4637430000000  0.5949260000000 1.0
C      1  0.5361120000000  0.4900510000000  0.5897860000000 1.0
C      1  0.5300620000000  0.5265310000000  0.5844830000000 1.0
C      1  0.4580830000000  0.4838050000000  0.5432950000000 1.0
C      1  0.4807960000000  0.4608540000000  0.5481020000000 1.0
C      1  0.5122970000000  0.4604040000000  0.5547970000000 1.0
C      1  0.5241760000000  0.4899280000000  0.5608760000000 1.0
C      1  0.5227620000000  0.5284400000000  0.5538020000000 1.0
C      1  0.4949260000000  0.5411780000000  0.5490130000000 1.0
C      1  0.4671340000000  0.5153200000000  0.5472150000000 1.0
C      1  0.4717520000000  0.4846490000000  0.4963580000000 1.0
C      1  0.4922340000000  0.4623610000000  0.4956300000000 1.0
C      1  0.5204430000000  0.4694380000000  0.5028880000000 1.0
C      1  0.5272190000000  0.4941960000000  0.5165660000000 1.0
C      1  0.5323800000000  0.5213670000000  0.5089920000000 1.0
C      1  0.5083280000000  0.5338330000000  0.4991630000000 1.0
C      1  0.4769860000000  0.5130220000000  0.4965510000000 1.0
C      1  0.5308250000000  0.4514830000000  0.5273660000000 1.0
C      1  0.5437770000000  0.4827260000000  0.5382230000000 1.0
C      1  0.5442490000000  0.5363430000000  0.5324620000000 1.0
C      1  0.4913940000000  0.5483760000000  0.5193120000000 1.0
C      1  0.4651160000000  0.5306250000000  0.5184590000000 1.0
C      1  0.4490820000000  0.4778490000000  0.5147240000000 1.0
C      1  0.4814650000000  0.4479070000000  0.5195280000000 1.0
C      1  0.5867370000000  0.4891780000000  0.5131490000000 1.0
C      1  0.5622100000000  0.5638610000000  0.5123000000000 1.0
C      1  0.4913010000000  0.5793520000000  0.5156890000000 1.0
C      1  0.4298220000000  0.5474120000000  0.5159800000000 1.0
C      1  0.4100930000000  0.4749830000000  0.5131820000000 1.0
C      1  0.4713990000000  0.4203310000000  0.5141430000000 1.0
C      1  0.5484760000000  0.4188040000000  0.5152710000000 1.0
C      1  0.5102420000000  0.4128340000000  0.5892780000000 1.0
C      1  0.5729100000000  0.4560580000000  0.5884540000000 1.0
C      1  0.5805450000000  0.5330300000000  0.5882020000000 1.0
C      1  0.5256990000000  0.5837700000000  0.5897670000000 1.0
C      1  0.4534190000000  0.5724340000000  0.5898220000000 1.0
C      1  0.4157710000000  0.5077370000000  0.5914350000000 1.0
C      1  0.4387940000000  0.4395570000000  0.5875530000000 1.0
C      1  0.4361480000000  0.4893230000000  0.5857260000000 1.0
C      1  0.4666540000000  0.4402190000000  0.5844060000000 1.0
C      1  0.5265660000000  0.4354200000000  0.5881780000000 1.0
C      1  0.5661530000000  0.4830460000000  0.5871950000000 1.0
C      1  0.5553080000000  0.5448220000000  0.5875880000000 1.0
C      1  0.5029020000000  0.5676000000000  0.5894970000000 1.0
C      1  0.4510160000000  0.5445890000000  0.5865140000000 1.0
C      1  0.4288080000000  0.4482150000000  0.5629420000000 1.0
C      1  0.4968050000000  0.4051480000000  0.5659930000000 1.0
C      1  0.5698080000000  0.4404370000000  0.5656890000000 1.0
C      1  0.5894450000000  0.5199530000000  0.5652140000000 1.0
C      1  0.5416840000000  0.5863630000000  0.5667410000000 1.0
C      1  0.4649080000000  0.5812760000000  0.5658890000000 1.0
C      1  0.4127570000000  0.5225680000000  0.5676420000000 1.0
C      1  0.5470570000000  0.5700880000000  0.4498600000000 1.0
C      1  0.4719950000000  0.5851110000000  0.4491210000000 1.0
C      1  0.4125060000000  0.5336590000000  0.4490720000000 1.0
C      1  0.4256580000000  0.4585140000000  0.4508850000000 1.0
C      1  0.4987260000000  0.4182580000000  0.4587570000000 1.0
C      1  0.5659690000000  0.4341950000000  0.4483590000000 1.0
C      1  0.5877500000000  0.5079000000000  0.4475980000000 1.0
C      1  0.4915980000000  0.4745150000000  0.3983840000000 1.0
C      1  0.5186270000000  0.4710750000000  0.3891580000000 1.0
C      1  0.5329230000000  0.4959790000000  0.3893300000000 1.0
C      1  0.5173080000000  0.5183760000000  0.3984650000000 1.0
C      1  0.4934210000000  0.5323480000000  0.3907700000000 1.0
C      1  0.4677530000000  0.5190720000000  0.3889390000000 1.0
C      1  0.4679900000000  0.4901650000000  0.3920110000000 1.0
C      1  0.4109870000000  0.5233650000000  0.5153380000000 1.0
C      1  0.4338410000000  0.4477340000000  0.5119960000000 1.0
C      1  0.5000860000000  0.4054680000000  0.5132630000000 1.0
C      1  0.5705920000000  0.4415280000000  0.5131360000000 1.0
C      1  0.5857270000000  0.5194960000000  0.5134180000000 1.0
C      1  0.5392590000000  0.5858250000000  0.5125500000000 1.0
C      1  0.4613850000000  0.5843730000000  0.5129220000000 1.0
C      1  0.4386240000000  0.4823610000000  0.4596780000000 1.0
C      1  0.4878360000000  0.4454090000000  0.4662850000000 1.0
C      1  0.5400940000000  0.4421520000000  0.4576320000000 1.0
C      1  0.5654370000000  0.4925780000000  0.4568400000000 1.0
C      1  0.5414320000000  0.5437980000000  0.4596560000000 1.0
C      1  0.4885290000000  0.5638550000000  0.4586410000000 1.0
C      1  0.4396070000000  0.5374480000000  0.4569780000000 1.0
C      1  0.5680300000000  0.5349480000000  0.4670370000000 1.0
C      1  0.5132680000000  0.5763910000000  0.4676780000000 1.0
C      1  0.4453820000000  0.5639740000000  0.4672240000000 1.0
C      1  0.4182690000000  0.5008910000000  0.4686970000000 1.0
C      1  0.4573890000000  0.4434060000000  0.4677210000000 1.0
C      1  0.5246670000000  0.4201320000000  0.4704860000000 1.0
C      1  0.5752080000000  0.4668820000000  0.4666570000000 1.0
C      1  0.4260060000000  0.5079090000000  0.4101590000000 1.0
C      1  0.4545890000000  0.4506970000000  0.4158650000000 1.0
C      1  0.5054070000000  0.4299680000000  0.4101070000000 1.0
C      1  0.5622240000000  0.4625860000000  0.4089070000000 1.0
C      1  0.5635920000000  0.5251360000000  0.4105330000000 1.0
C      1  0.5208390000000  0.5649550000000  0.4111300000000 1.0
C      1  0.4595210000000  0.5619300000000  0.4091860000000 1.0
C      1  0.4022320000000  0.5117620000000  0.5420630000000 1.0
C      1  0.4329420000000  0.4327420000000  0.5384250000000 1.0
C      1  0.5119810000000  0.4007460000000  0.5409090000000 1.0
C      1  0.5724830000000  0.4538680000000  0.5398570000000 1.0
C      1  0.5876230000000  0.5331820000000  0.5395250000000 1.0
C      1  0.5296790000000  0.5938670000000  0.5403930000000 1.0
C      1  0.4487870000000  0.5822060000000  0.5409610000000 1.0
C      1  0.4852770000000  0.4883480000000  0.4469310000000 1.0
END
