TITL C-3578202-4305-434 -3.96017099670716e-06 125000 -657.760779589847 0 0 106 (C1) n - 1
REM
REM in /home/bkarasulu/work/CARBON/AIRSS/Generating-Clusters/EDIP-Nigel-Params/with-SteepDescent/Higher-Symm/SD-CG/HFTN-CG
REM
REM
REM
REM
REM
REM ./C.cell (12c818d87b63d06a65506943cc24bca4)
REM
REM compiler GCC version 9.2.1 20190827 (Red Hat 9.2.1-1)
REM options -cpp -mtune=generic -march=x86-64 -g -O0 -fpre-include=/usr/include/finclude/math-vector-fortran.h
REM seed -2071053156 -1466400844 869145493 291121757 51700007 -486856792 -136605973 743753817 -609760666 2143512255 1037007867 -1925893658 -1226025760 824405497 -2002228036 -1819209629 795915185 -19895235 1844878913 -455294453 1519211908 -2097244241 1856280471 1727936239 829184934 380075775 -1908032032 1085549937 1935652958 1513198595 1710034391 24212546 -378353605
REM
CELL 1.54180   50.00000   50.00000   50.00000   90.00000   90.00000   90.00000
LATT -1
SFAC C  
C      1  0.5349370000000  0.5183380000000  0.5713440000000 1.0
C      1  0.5312750000000  0.5660390000000  0.5298380000000 1.0
C      1  0.5330400000000  0.5618590000000  0.4684990000000 1.0
C      1  0.5340180000000  0.5079490000000  0.4362720000000 1.0
C      1  0.5295770000000  0.4468830000000  0.4297150000000 1.0
C      1  0.5400890000000  0.4278240000000  0.4972130000000 1.0
C      1  0.5333940000000  0.4545660000000  0.5525780000000 1.0
C      1  0.5000490000000  0.4753870000000  0.4591550000000 1.0
C      1  0.5149620000000  0.4632640000000  0.4812530000000 1.0
C      1  0.5025080000000  0.4641380000000  0.5126010000000 1.0
C      1  0.5019970000000  0.5009990000000  0.5436930000000 1.0
C      1  0.4974800000000  0.5307220000000  0.5371600000000 1.0
C      1  0.5020640000000  0.5421110000000  0.4949540000000 1.0
C      1  0.5044050000000  0.5224450000000  0.4729530000000 1.0
C      1  0.4879520000000  0.5000380000000  0.4099010000000 1.0
C      1  0.4701430000000  0.4343940000000  0.4374970000000 1.0
C      1  0.4921110000000  0.4145640000000  0.5090610000000 1.0
C      1  0.4911360000000  0.4610570000000  0.5787220000000 1.0
C      1  0.4913110000000  0.5428030000000  0.5852290000000 1.0
C      1  0.4922050000000  0.5921710000000  0.5175070000000 1.0
C      1  0.4947360000000  0.5683330000000  0.4348720000000 1.0
C      1  0.5059150000000  0.5694560000000  0.4822370000000 1.0
C      1  0.5119950000000  0.5264620000000  0.4448180000000 1.0
C      1  0.5063770000000  0.4646030000000  0.4325030000000 1.0
C      1  0.5192100000000  0.4340690000000  0.4755030000000 1.0
C      1  0.5082790000000  0.4442850000000  0.5374280000000 1.0
C      1  0.5096970000000  0.5008120000000  0.5727720000000 1.0
C      1  0.5065150000000  0.5583670000000  0.5465040000000 1.0
C      1  0.4692440000000  0.5562900000000  0.5682760000000 1.0
C      1  0.4725870000000  0.5861440000000  0.4948510000000 1.0
C      1  0.4746730000000  0.5489360000000  0.4255510000000 1.0
C      1  0.4663530000000  0.4790120000000  0.4159060000000 1.0
C      1  0.4669180000000  0.4291500000000  0.4649030000000 1.0
C      1  0.4707050000000  0.4230020000000  0.5287480000000 1.0
C      1  0.4706300000000  0.4825300000000  0.5822970000000 1.0
C      1  0.4725310000000  0.4706350000000  0.5140110000000 1.0
C      1  0.4711240000000  0.4946570000000  0.5348610000000 1.0
C      1  0.4693360000000  0.5270010000000  0.5289250000000 1.0
C      1  0.4715510000000  0.5380110000000  0.5019460000000 1.0
C      1  0.4751270000000  0.5168500000000  0.4705900000000 1.0
C      1  0.4731390000000  0.4875400000000  0.4643710000000 1.0
C      1  0.4624380000000  0.4733310000000  0.4868260000000 1.0
C      1  0.4877610000000  0.5230420000000  0.4283110000000 1.0
C      1  0.4813470000000  0.4534530000000  0.4203300000000 1.0
C      1  0.4916800000000  0.4215660000000  0.4803790000000 1.0
C      1  0.4854440000000  0.4440250000000  0.5562390000000 1.0
C      1  0.4883350000000  0.5139550000000  0.5893250000000 1.0
C      1  0.4851430000000  0.5784920000000  0.5421880000000 1.0
C      1  0.4872190000000  0.5790050000000  0.4606250000000 1.0
C      1  0.5840250000000  0.5299630000000  0.5123430000000 1.0
C      1  0.5748440000000  0.5332710000000  0.4860060000000 1.0
C      1  0.5762780000000  0.5084290000000  0.4703860000000 1.0
C      1  0.5892460000000  0.4875620000000  0.4841840000000 1.0
C      1  0.5827550000000  0.4724750000000  0.5068670000000 1.0
C      1  0.5856890000000  0.4876310000000  0.5303150000000 1.0
C      1  0.5761940000000  0.5137720000000  0.5337230000000 1.0
C      1  0.5449670000000  0.5363220000000  0.4851170000000 1.0
C      1  0.5472640000000  0.5018810000000  0.4664790000000 1.0
C      1  0.5413650000000  0.4759110000000  0.4818330000000 1.0
C      1  0.5543770000000  0.4629600000000  0.5060910000000 1.0
C      1  0.5429940000000  0.4770570000000  0.5321220000000 1.0
C      1  0.5466010000000  0.5154990000000  0.5383330000000 1.0
C      1  0.5348910000000  0.5374970000000  0.5155400000000 1.0
C      1  0.5424160000000  0.5512930000000  0.4201970000000 1.0
C      1  0.5322220000000  0.4752720000000  0.3956420000000 1.0
C      1  0.5573010000000  0.4144200000000  0.4558380000000 1.0
C      1  0.5291710000000  0.4116200000000  0.5426150000000 1.0
C      1  0.5363070000000  0.4813910000000  0.5961580000000 1.0
C      1  0.5325310000000  0.5691230000000  0.5739720000000 1.0
C      1  0.5357090000000  0.5993820000000  0.4921140000000 1.0
C      1  0.4180120000000  0.5337940000000  0.5162930000000 1.0
C      1  0.4217900000000  0.5301290000000  0.4870210000000 1.0
C      1  0.4177930000000  0.5080340000000  0.4678150000000 1.0
C      1  0.4124090000000  0.4787420000000  0.4729120000000 1.0
C      1  0.4132880000000  0.4664780000000  0.5018370000000 1.0
C      1  0.4202620000000  0.4817050000000  0.5267670000000 1.0
C      1  0.4178570000000  0.5102950000000  0.5352520000000 1.0
C      1  0.4506860000000  0.5407690000000  0.5486060000000 1.0
C      1  0.4531290000000  0.5616940000000  0.4999420000000 1.0
C      1  0.4541520000000  0.5343460000000  0.4539130000000 1.0
C      1  0.4509390000000  0.4850310000000  0.4425630000000 1.0
C      1  0.4478780000000  0.4498160000000  0.4765820000000 1.0
C      1  0.4528200000000  0.4480380000000  0.5241400000000 1.0
C      1  0.4526350000000  0.4886290000000  0.5582530000000 1.0
C      1  0.4370430000000  0.4652720000000  0.5454690000000 1.0
C      1  0.4357260000000  0.5152850000000  0.5586640000000 1.0
C      1  0.4352830000000  0.5565500000000  0.5261900000000 1.0
C      1  0.4386150000000  0.5511230000000  0.4751600000000 1.0
C      1  0.4360050000000  0.5117180000000  0.4446790000000 1.0
C      1  0.4316030000000  0.4635550000000  0.4548280000000 1.0
C      1  0.4324900000000  0.4430380000000  0.5013650000000 1.0
C      1  0.5507920000000  0.5254870000000  0.4206300000000 1.0
C      1  0.5420570000000  0.4514440000000  0.4050510000000 1.0
C      1  0.5600700000000  0.4130880000000  0.4828420000000 1.0
C      1  0.5483110000000  0.4296850000000  0.5521540000000 1.0
C      1  0.5514560000000  0.5035290000000  0.5896930000000 1.0
C      1  0.5494540000000  0.5710310000000  0.5518550000000 1.0
C      1  0.5476000000000  0.5867070000000  0.4712350000000 1.0
C      1  0.5220920000000  0.4102090000000  0.5150440000000 1.0
C      1  0.5221690000000  0.4615610000000  0.5804620000000 1.0
C      1  0.5227310000000  0.5443740000000  0.5841130000000 1.0
C      1  0.5224610000000  0.5916440000000  0.5156310000000 1.0
C      1  0.5218900000000  0.5542210000000  0.4404680000000 1.0
C      1  0.5159340000000  0.4878720000000  0.4164110000000 1.0
C      1  0.5333770000000  0.4276100000000  0.4503690000000 1.0
C      1  0.5172350000000  0.4870140000000  0.5232600000000 1.0
END
