TITL C-3577082-504-108 7.18176712970854e-07 125000 -1074.77463410813 0 0 171 (C1) n - 1
REM
REM in /home/bkarasulu/work/CARBON/AIRSS/Generating-Clusters/EDIP-Nigel-Params/with-SteepDescent/Higher-Symm/SD-CG/HFTN-CG
REM
REM
REM
REM
REM
REM ./C.cell (12c818d87b63d06a65506943cc24bca4)
REM
REM compiler GCC version 9.2.1 20190827 (Red Hat 9.2.1-1)
REM options -cpp -mtune=generic -march=x86-64 -g -O0 -fpre-include=/usr/include/finclude/math-vector-fortran.h
REM seed 504572346 -263895543 1691382593 -1089100058 -1042371063 552042910 2090694654 292961594 -1292587963 -686462928 -709648015 144900403 1789471493 1515430477 311951708 -220963800 583831624 1573084970 1016693223 -1802157169 -925500617 -28360469 -451211288 1795104863 1815335443 671146651 -1385235798 -890272787 -1988440272 1334345504 1543032330 126744030 -1433223182
REM
CELL 1.54180   50.00000   50.00000   50.00000   90.00000   90.00000   90.00000
LATT -1
SFAC C  
C      1  0.4574270000000  0.6086470000000  0.4615260000000 1.0
C      1  0.4941930000000  0.4923090000000  0.4332520000000 1.0
C      1  0.5717450000000  0.5462860000000  0.4526830000000 1.0
C      1  0.4962900000000  0.5146950000000  0.3915940000000 1.0
C      1  0.5114890000000  0.4739620000000  0.5959980000000 1.0
C      1  0.4010450000000  0.5315360000000  0.5701450000000 1.0
C      1  0.4330020000000  0.4623820000000  0.4666880000000 1.0
C      1  0.5781840000000  0.5241320000000  0.4357930000000 1.0
C      1  0.5777230000000  0.4490960000000  0.4419610000000 1.0
C      1  0.5641180000000  0.4402880000000  0.5403690000000 1.0
C      1  0.5455950000000  0.5805520000000  0.4852390000000 1.0
C      1  0.4232070000000  0.5056810000000  0.5368710000000 1.0
C      1  0.4197520000000  0.4355010000000  0.4716250000000 1.0
C      1  0.5522420000000  0.5010660000000  0.5920330000000 1.0
C      1  0.5770310000000  0.5017420000000  0.4988020000000 1.0
C      1  0.4184100000000  0.5279350000000  0.4321460000000 1.0
C      1  0.5318930000000  0.5772480000000  0.4336540000000 1.0
C      1  0.4055390000000  0.5088250000000  0.5140290000000 1.0
C      1  0.3975700000000  0.5501180000000  0.4997530000000 1.0
C      1  0.5428190000000  0.5553610000000  0.4530490000000 1.0
C      1  0.4764050000000  0.5180560000000  0.4964680000000 1.0
C      1  0.4665550000000  0.4425360000000  0.4335810000000 1.0
C      1  0.5488950000000  0.5123830000000  0.4940240000000 1.0
C      1  0.5048470000000  0.5699550000000  0.4211890000000 1.0
C      1  0.5051460000000  0.4072730000000  0.4493520000000 1.0
C      1  0.4309860000000  0.5039380000000  0.4447220000000 1.0
C      1  0.5760390000000  0.5744480000000  0.4895940000000 1.0
C      1  0.5220200000000  0.5473670000000  0.6012250000000 1.0
C      1  0.4414230000000  0.5888390000000  0.5430280000000 1.0
C      1  0.4686280000000  0.5184490000000  0.5239240000000 1.0
C      1  0.5108990000000  0.4856100000000  0.5679550000000 1.0
C      1  0.5066220000000  0.5308760000000  0.4535780000000 1.0
C      1  0.5716170000000  0.4578190000000  0.5634600000000 1.0
C      1  0.5518880000000  0.4541250000000  0.5861710000000 1.0
C      1  0.4592880000000  0.5104720000000  0.4542360000000 1.0
C      1  0.5485510000000  0.5124390000000  0.5439760000000 1.0
C      1  0.4684820000000  0.4657730000000  0.6002200000000 1.0
C      1  0.5254560000000  0.3965800000000  0.4961120000000 1.0
C      1  0.4601650000000  0.5725670000000  0.5582950000000 1.0
C      1  0.5756190000000  0.4134040000000  0.5036950000000 1.0
C      1  0.5358720000000  0.4340310000000  0.4190070000000 1.0
C      1  0.4886630000000  0.4478650000000  0.4539930000000 1.0
C      1  0.4942480000000  0.4554220000000  0.5250130000000 1.0
C      1  0.4880890000000  0.4867720000000  0.6109080000000 1.0
C      1  0.5046820000000  0.5967540000000  0.5522600000000 1.0
C      1  0.4871600000000  0.4441560000000  0.5933510000000 1.0
C      1  0.6047780000000  0.4758580000000  0.5309320000000 1.0
C      1  0.4665280000000  0.4544350000000  0.5362250000000 1.0
C      1  0.5375230000000  0.4920120000000  0.3968710000000 1.0
C      1  0.4873500000000  0.5744870000000  0.5512380000000 1.0
C      1  0.4926590000000  0.5172920000000  0.5683900000000 1.0
C      1  0.4948410000000  0.5195520000000  0.5373930000000 1.0
C      1  0.4139660000000  0.5067000000000  0.5643780000000 1.0
C      1  0.5488740000000  0.5393330000000  0.5885900000000 1.0
C      1  0.5798460000000  0.5641770000000  0.5157250000000 1.0
C      1  0.5257160000000  0.6140890000000  0.5150940000000 1.0
C      1  0.4866310000000  0.5497250000000  0.4051050000000 1.0
C      1  0.4566620000000  0.4647080000000  0.4866470000000 1.0
C      1  0.5000320000000  0.6126010000000  0.5275020000000 1.0
C      1  0.4237460000000  0.4282310000000  0.5003100000000 1.0
C      1  0.5346800000000  0.5156550000000  0.4138080000000 1.0
C      1  0.4334610000000  0.5824520000000  0.4969470000000 1.0
C      1  0.4152540000000  0.4474730000000  0.5461830000000 1.0
C      1  0.4787760000000  0.4410760000000  0.4819020000000 1.0
C      1  0.5765150000000  0.4212080000000  0.4765320000000 1.0
C      1  0.6018420000000  0.5308560000000  0.4914240000000 1.0
C      1  0.5397570000000  0.4968030000000  0.4666540000000 1.0
C      1  0.4631260000000  0.4005360000000  0.4835390000000 1.0
C      1  0.5257460000000  0.4178160000000  0.5603350000000 1.0
C      1  0.5095800000000  0.4879510000000  0.3898890000000 1.0
C      1  0.5857540000000  0.5337200000000  0.5505340000000 1.0
C      1  0.4491940000000  0.4725010000000  0.5773280000000 1.0
C      1  0.4621810000000  0.5289250000000  0.6100550000000 1.0
C      1  0.5287220000000  0.4383600000000  0.5790260000000 1.0
C      1  0.4199680000000  0.5399880000000  0.4822820000000 1.0
C      1  0.4310480000000  0.4166920000000  0.4535650000000 1.0
C      1  0.4504360000000  0.4954770000000  0.5316250000000 1.0
C      1  0.4760070000000  0.5374890000000  0.4523520000000 1.0
C      1  0.5969510000000  0.4968960000000  0.4737930000000 1.0
C      1  0.5113880000000  0.4789680000000  0.4793260000000 1.0
C      1  0.4779860000000  0.6028770000000  0.5093350000000 1.0
C      1  0.5497850000000  0.4700560000000  0.4129120000000 1.0
C      1  0.4505090000000  0.5039330000000  0.4037260000000 1.0
C      1  0.4594980000000  0.5236990000000  0.5814970000000 1.0
C      1  0.4791440000000  0.4230260000000  0.5752250000000 1.0
C      1  0.5584100000000  0.4675040000000  0.4706990000000 1.0
C      1  0.5421440000000  0.4766140000000  0.6035950000000 1.0
C      1  0.4336810000000  0.4466970000000  0.5672830000000 1.0
C      1  0.5307170000000  0.4550200000000  0.4759360000000 1.0
C      1  0.4245840000000  0.5765860000000  0.4462270000000 1.0
C      1  0.4500090000000  0.5982420000000  0.5163490000000 1.0
C      1  0.4776210000000  0.5129840000000  0.4146670000000 1.0
C      1  0.5955320000000  0.4598850000000  0.5087350000000 1.0
C      1  0.5104630000000  0.4968990000000  0.5252380000000 1.0
C      1  0.5404650000000  0.4577300000000  0.5267580000000 1.0
C      1  0.5495420000000  0.5427270000000  0.5039260000000 1.0
C      1  0.4150410000000  0.5745280000000  0.5420540000000 1.0
C      1  0.5394270000000  0.4947420000000  0.5211550000000 1.0
C      1  0.4543650000000  0.4254140000000  0.5588550000000 1.0
C      1  0.4173030000000  0.4894920000000  0.4678430000000 1.0
C      1  0.5553040000000  0.4110020000000  0.4588580000000 1.0
C      1  0.4578210000000  0.5521580000000  0.4160410000000 1.0
C      1  0.4930120000000  0.4225660000000  0.4029590000000 1.0
C      1  0.4378210000000  0.5316620000000  0.4088070000000 1.0
C      1  0.5280210000000  0.4030400000000  0.4675640000000 1.0
C      1  0.5950040000000  0.4426670000000  0.4653540000000 1.0
C      1  0.4159950000000  0.5487820000000  0.4530770000000 1.0
C      1  0.4454960000000  0.5779270000000  0.4248650000000 1.0
C      1  0.5868000000000  0.4339510000000  0.5212460000000 1.0
C      1  0.5165490000000  0.4589350000000  0.5483250000000 1.0
C      1  0.5283340000000  0.5932610000000  0.4608060000000 1.0
C      1  0.4888870000000  0.4779440000000  0.4592430000000 1.0
C      1  0.4072950000000  0.5755060000000  0.5119400000000 1.0
C      1  0.5200310000000  0.5082640000000  0.4401650000000 1.0
C      1  0.4855900000000  0.5740810000000  0.4432930000000 1.0
C      1  0.4314970000000  0.5953720000000  0.4694160000000 1.0
C      1  0.5011200000000  0.4697080000000  0.4136710000000 1.0
C      1  0.5317140000000  0.5861900000000  0.5120750000000 1.0
C      1  0.5114700000000  0.5438840000000  0.5309930000000 1.0
C      1  0.5401680000000  0.5417860000000  0.5330160000000 1.0
C      1  0.4376410000000  0.5005120000000  0.5812950000000 1.0
C      1  0.4994790000000  0.5619230000000  0.4873650000000 1.0
C      1  0.4984220000000  0.4092080000000  0.5577710000000 1.0
C      1  0.4358150000000  0.4846730000000  0.4224460000000 1.0
C      1  0.4645410000000  0.4787250000000  0.5533840000000 1.0
C      1  0.4463080000000  0.4643960000000  0.5150810000000 1.0
C      1  0.4559460000000  0.4151060000000  0.4399950000000 1.0
C      1  0.4806820000000  0.4472650000000  0.4077750000000 1.0
C      1  0.4448550000000  0.4616910000000  0.4388070000000 1.0
C      1  0.4818800000000  0.6072000000000  0.4801760000000 1.0
C      1  0.5315020000000  0.5878600000000  0.5563420000000 1.0
C      1  0.5212470000000  0.4561440000000  0.4345140000000 1.0
C      1  0.4994310000000  0.3941710000000  0.5080110000000 1.0
C      1  0.4471420000000  0.5488350000000  0.5686980000000 1.0
C      1  0.5297950000000  0.4395630000000  0.5019720000000 1.0
C      1  0.4858690000000  0.5157000000000  0.6161780000000 1.0
C      1  0.4195040000000  0.4514630000000  0.5187060000000 1.0
C      1  0.6089450000000  0.4654250000000  0.4803520000000 1.0
C      1  0.5669320000000  0.5525420000000  0.5668790000000 1.0
C      1  0.3867400000000  0.5299860000000  0.5161780000000 1.0
C      1  0.4450930000000  0.5548120000000  0.4914730000000 1.0
C      1  0.5906430000000  0.4796770000000  0.5550840000000 1.0
C      1  0.5830060000000  0.5067290000000  0.5607500000000 1.0
C      1  0.5485400000000  0.4139850000000  0.5432400000000 1.0
C      1  0.5735870000000  0.4757140000000  0.4304720000000 1.0
C      1  0.5596250000000  0.4260960000000  0.4344710000000 1.0
C      1  0.4502420000000  0.4156950000000  0.5043030000000 1.0
C      1  0.4863010000000  0.4019020000000  0.5324920000000 1.0
C      1  0.5499200000000  0.5674740000000  0.5478760000000 1.0
C      1  0.5127070000000  0.4146840000000  0.4214580000000 1.0
C      1  0.5052650000000  0.5700080000000  0.5170000000000 1.0
C      1  0.5703340000000  0.4729410000000  0.4990620000000 1.0
C      1  0.4992210000000  0.4328290000000  0.5048550000000 1.0
C      1  0.5089740000000  0.5310520000000  0.6197790000000 1.0
C      1  0.4993730000000  0.5857870000000  0.4679950000000 1.0
C      1  0.4589880000000  0.4110750000000  0.5316900000000 1.0
C      1  0.5228870000000  0.5438010000000  0.4763040000000 1.0
C      1  0.4761050000000  0.4038180000000  0.4578420000000 1.0
C      1  0.4969810000000  0.4799990000000  0.5070430000000 1.0
C      1  0.5349800000000  0.5032160000000  0.5685600000000 1.0
C      1  0.4629470000000  0.4974210000000  0.4804620000000 1.0
C      1  0.5603780000000  0.5256280000000  0.4149480000000 1.0
C      1  0.5480490000000  0.4070260000000  0.5136140000000 1.0
C      1  0.4659760000000  0.5954400000000  0.4358600000000 1.0
C      1  0.5119190000000  0.5400870000000  0.5753320000000 1.0
C      1  0.4214050000000  0.5096790000000  0.4889550000000 1.0
C      1  0.5902440000000  0.5381380000000  0.5202250000000 1.0
C      1  0.5799230000000  0.4982340000000  0.4483280000000 1.0
C      1  0.4730870000000  0.5447140000000  0.4831590000000 1.0
C      1  0.4195950000000  0.5503100000000  0.5595850000000 1.0
C      1  0.5898180000000  0.5529830000000  0.4740800000000 1.0
END
