TITL C-3578206-1180-619 -2.14717894556195 125000 -119.394565450481 0 0 23 (Cs) n - 1
REM
REM in /home/bkarasulu/work/CARBON/AIRSS/Generating-Clusters/EDIP-Nigel-Params/with-SteepDescent/Higher-Symm/SD-CG/HFTN-CG
REM
REM
REM
REM
REM
REM ./C.cell (12c818d87b63d06a65506943cc24bca4)
REM
REM compiler GCC version 9.2.1 20190827 (Red Hat 9.2.1-1)
REM options -cpp -mtune=generic -march=x86-64 -g -O0 -fpre-include=/usr/include/finclude/math-vector-fortran.h
REM seed -407167384 1702055001 -1827858241 1371138272 -1098247614 1691389820 -1313258249 -1999588351 1894392365 2064838267 -283083501 -1547690390 537647472 1985397887 -378579162 1602481122 1659413425 55723798 -169737219 -506763934 -1202776983 -454239791 -444638361 1013753369 116065277 577761679 -758873074 1191967240 1929447032 336653220 -1971225068 1744377678 717461957
REM
CELL 1.54180   50.00000   50.00000   50.00000   90.00000   90.00000   90.00000
LATT -1
SFAC C  
C      1  0.4703330000000  0.4407170000000  0.5191640000000 1.0
C      1  0.5342010000000  0.5703710000000  0.5098190000000 1.0
C      1  0.5494530000000  0.4562450000000  0.4356480000000 1.0
C      1  0.4345560000000  0.5124020000000  0.4354930000000 1.0
C      1  0.4845230000000  0.5189050000000  0.4515050000000 1.0
C      1  0.5238520000000  0.4996830000000  0.4515580000000 1.0
C      1  0.5240270000000  0.5497570000000  0.5228580000000 1.0
C      1  0.4811330000000  0.4626820000000  0.5291360000000 1.0
C      1  0.5438660000000  0.5899480000000  0.4965070000000 1.0
C      1  0.4600250000000  0.4197490000000  0.5087750000000 1.0
C      1  0.4933570000000  0.4876400000000  0.5681270000000 1.0
C      1  0.5140110000000  0.5295680000000  0.5651040000000 1.0
C      1  0.4592170000000  0.5134620000000  0.4422870000000 1.0
C      1  0.5351250000000  0.4763620000000  0.4423890000000 1.0
C      1  0.4920970000000  0.4849840000000  0.5406220000000 1.0
C      1  0.5137720000000  0.5289850000000  0.5374490000000 1.0
C      1  0.5017990000000  0.5045330000000  0.4972180000000 1.0
C      1  0.5040810000000  0.5094610000000  0.5812170000000 1.0
C      1  0.4992300000000  0.4992020000000  0.4703330000000 1.0
C      1  0.5047980000000  0.5110080000000  0.6075770000000 1.0
C      1  0.5088630000000  0.5188080000000  0.4323650000000 1.0
C      1  0.5199600000000  0.5414890000000  0.4243260000000 1.0
C      1  0.5025420000000  0.5061370000000  0.5245800000000 1.0
END
