TITL C-3577086-586-403 1.76923087880787e-07 125000 -526.219519060499 0 0 85 (C1) n - 1
REM
REM in /home/bkarasulu/work/CARBON/AIRSS/Generating-Clusters/EDIP-Nigel-Params/with-SteepDescent/Higher-Symm/SD-CG/HFTN-CG
REM
REM
REM
REM
REM
REM ./C.cell (12c818d87b63d06a65506943cc24bca4)
REM
REM compiler GCC version 9.2.1 20190827 (Red Hat 9.2.1-1)
REM options -cpp -mtune=generic -march=x86-64 -g -O0 -fpre-include=/usr/include/finclude/math-vector-fortran.h
REM seed -853028868 -1726998075 -1808226793 -570517107 160771826 1280482517 -1568963776 -1026970960 1498312742 -12384743 1391293067 -1989890468 -1692827727 -918392671 388410968 202051830 -1027573294 -635243091 1703782670 -825876537 -210905375 -588690728 380168736 -1736054021 847437054 -1273743997 -48884761 -410596749 1163028168 269704294 1556013552 1356902875 -2146977422
REM
CELL 1.54180   50.00000   50.00000   50.00000   90.00000   90.00000   90.00000
LATT -1
SFAC C  
C      1  0.5600260000000  0.5379720000000  0.5457030000000 1.0
C      1  0.5588900000000  0.4620110000000  0.5433740000000 1.0
C      1  0.5616470000000  0.4472830000000  0.4552510000000 1.0
C      1  0.5509970000000  0.5710430000000  0.4566140000000 1.0
C      1  0.4395180000000  0.4604180000000  0.5473630000000 1.0
C      1  0.4390980000000  0.5384890000000  0.5523180000000 1.0
C      1  0.4469680000000  0.5380550000000  0.4420600000000 1.0
C      1  0.4521700000000  0.4483640000000  0.4575510000000 1.0
C      1  0.4446240000000  0.5244870000000  0.4992030000000 1.0
C      1  0.4241130000000  0.5077630000000  0.5143370000000 1.0
C      1  0.4189990000000  0.4807480000000  0.5037200000000 1.0
C      1  0.4183280000000  0.4798290000000  0.4757240000000 1.0
C      1  0.5765010000000  0.4801880000000  0.4906710000000 1.0
C      1  0.5844470000000  0.4948350000000  0.5153350000000 1.0
C      1  0.5902020000000  0.5222140000000  0.5111000000000 1.0
C      1  0.5605160000000  0.4993730000000  0.4735060000000 1.0
C      1  0.4825720000000  0.5384310000000  0.5339310000000 1.0
C      1  0.4826110000000  0.4664190000000  0.5372130000000 1.0
C      1  0.4943400000000  0.4598900000000  0.4648850000000 1.0
C      1  0.4887720000000  0.5328490000000  0.4594430000000 1.0
C      1  0.5120330000000  0.4608090000000  0.5296830000000 1.0
C      1  0.5116580000000  0.5259260000000  0.5379990000000 1.0
C      1  0.5164260000000  0.5390610000000  0.4668710000000 1.0
C      1  0.5204850000000  0.4719730000000  0.4550030000000 1.0
C      1  0.4481850000000  0.4888640000000  0.4342850000000 1.0
C      1  0.4618380000000  0.5703680000000  0.4988360000000 1.0
C      1  0.4777800000000  0.4878590000000  0.5572070000000 1.0
C      1  0.4433230000000  0.4351440000000  0.5058620000000 1.0
C      1  0.5436100000000  0.5055400000000  0.4271390000000 1.0
C      1  0.5304340000000  0.4397730000000  0.4913770000000 1.0
C      1  0.5313440000000  0.5092200000000  0.5670200000000 1.0
C      1  0.5556560000000  0.5628240000000  0.5052520000000 1.0
C      1  0.5219080000000  0.4821570000000  0.5099670000000 1.0
C      1  0.5343300000000  0.4826220000000  0.4805550000000 1.0
C      1  0.5320270000000  0.5215800000000  0.4859670000000 1.0
C      1  0.5153400000000  0.5107500000000  0.5092860000000 1.0
C      1  0.4679100000000  0.5158270000000  0.5169400000000 1.0
C      1  0.4575380000000  0.5135550000000  0.4694170000000 1.0
C      1  0.4765050000000  0.4831530000000  0.4820020000000 1.0
C      1  0.4667250000000  0.4770000000000  0.5130370000000 1.0
C      1  0.5186630000000  0.4294790000000  0.4670960000000 1.0
C      1  0.5426260000000  0.5335240000000  0.4270460000000 1.0
C      1  0.5342010000000  0.5685240000000  0.5241080000000 1.0
C      1  0.5239450000000  0.4808870000000  0.5739160000000 1.0
C      1  0.4652840000000  0.5724560000000  0.4711050000000 1.0
C      1  0.4711430000000  0.4742260000000  0.4231200000000 1.0
C      1  0.4629280000000  0.4231650000000  0.5257540000000 1.0
C      1  0.4761500000000  0.5306400000000  0.5831690000000 1.0
C      1  0.5454300000000  0.5798130000000  0.4826590000000 1.0
C      1  0.5593850000000  0.5107400000000  0.5566920000000 1.0
C      1  0.5654830000000  0.4449690000000  0.5217780000000 1.0
C      1  0.5729000000000  0.4681060000000  0.4409150000000 1.0
C      1  0.4579590000000  0.4319610000000  0.4808810000000 1.0
C      1  0.4472820000000  0.4870920000000  0.5591560000000 1.0
C      1  0.4308310000000  0.5562720000000  0.5320590000000 1.0
C      1  0.4554890000000  0.5160580000000  0.4253510000000 1.0
C      1  0.4397120000000  0.4632470000000  0.5165130000000 1.0
C      1  0.4399340000000  0.4748840000000  0.4589010000000 1.0
C      1  0.4387150000000  0.5536610000000  0.5052130000000 1.0
C      1  0.4332620000000  0.5098870000000  0.5439120000000 1.0
C      1  0.5728970000000  0.5427180000000  0.5195120000000 1.0
C      1  0.5659280000000  0.4951560000000  0.4442570000000 1.0
C      1  0.5609060000000  0.4509010000000  0.4934190000000 1.0
C      1  0.5658670000000  0.4897530000000  0.5373290000000 1.0
C      1  0.5320310000000  0.5480660000000  0.5446190000000 1.0
C      1  0.5305940000000  0.4595440000000  0.5536450000000 1.0
C      1  0.5339870000000  0.4456170000000  0.4477510000000 1.0
C      1  0.5331710000000  0.5519860000000  0.4459310000000 1.0
C      1  0.4655080000000  0.4429240000000  0.5477660000000 1.0
C      1  0.4672700000000  0.5433380000000  0.5598680000000 1.0
C      1  0.4692730000000  0.5524560000000  0.4522470000000 1.0
C      1  0.4767950000000  0.4513490000000  0.4414380000000 1.0
C      1  0.5179320000000  0.4922190000000  0.4333070000000 1.0
C      1  0.5195660000000  0.5913850000000  0.4874360000000 1.0
C      1  0.5230720000000  0.5244500000000  0.5906780000000 1.0
C      1  0.5131960000000  0.4354320000000  0.5144110000000 1.0
C      1  0.4800830000000  0.5181770000000  0.4103620000000 1.0
C      1  0.4801600000000  0.4135380000000  0.4824180000000 1.0
C      1  0.4951240000000  0.4871660000000  0.5807680000000 1.0
C      1  0.4850620000000  0.5629930000000  0.5153700000000 1.0
C      1  0.4885350000000  0.4185430000000  0.5097800000000 1.0
C      1  0.4930280000000  0.4936790000000  0.4169870000000 1.0
C      1  0.5104920000000  0.5770550000000  0.5102110000000 1.0
C      1  0.4962550000000  0.5142380000000  0.5934740000000 1.0
C      1  0.4889440000000  0.5103910000000  0.4961140000000 1.0
END
