TITL C-3578207-9274-90 -1.95432609590733e-06 125000 -625.372007603842 0 0 100 (C1) n - 1
REM
REM in /home/bkarasulu/work/CARBON/AIRSS/Generating-Clusters/EDIP-Nigel-Params/with-SteepDescent/Higher-Symm/SD-CG/HFTN-CG
REM
REM
REM
REM
REM
REM ./C.cell (12c818d87b63d06a65506943cc24bca4)
REM
REM compiler GCC version 9.2.1 20190827 (Red Hat 9.2.1-1)
REM options -cpp -mtune=generic -march=x86-64 -g -O0 -fpre-include=/usr/include/finclude/math-vector-fortran.h
REM seed -2018735682 -1610244250 -1416440777 817201567 1093360425 -2084623045 -1061839829 -400143313 1282045905 1609208122 2088946558 1392807466 -922481906 -2018705936 24650748 2140705769 1794091749 893957162 -47747710 521192422 -1834392265 -1821225301 163667015 -290156077 -10637983 -1044484736 -2065296068 -768367783 -1933053088 1716833308 -37586629 1957401326 -617833828
REM
CELL 1.54180   50.00000   50.00000   50.00000   90.00000   90.00000   90.00000
LATT -1
SFAC C  
C      1  0.4296800000000  0.5364460000000  0.5101150000000 1.0
C      1  0.5341880000000  0.5100940000000  0.4266730000000 1.0
C      1  0.5143970000000  0.4169810000000  0.5385470000000 1.0
C      1  0.5729240000000  0.5259280000000  0.4774070000000 1.0
C      1  0.5685980000000  0.4689360000000  0.5068590000000 1.0
C      1  0.4348810000000  0.4593550000000  0.4811520000000 1.0
C      1  0.4679460000000  0.5115690000000  0.5787340000000 1.0
C      1  0.4711290000000  0.4811680000000  0.4222850000000 1.0
C      1  0.5376080000000  0.4876000000000  0.5794490000000 1.0
C      1  0.5002560000000  0.4205440000000  0.4682870000000 1.0
C      1  0.4886520000000  0.5795890000000  0.5198410000000 1.0
C      1  0.5185270000000  0.5812180000000  0.4872940000000 1.0
C      1  0.5132020000000  0.5326680000000  0.4285200000000 1.0
C      1  0.4259210000000  0.5103470000000  0.5385670000000 1.0
C      1  0.5212950000000  0.4229430000000  0.5117330000000 1.0
C      1  0.4886000000000  0.5306850000000  0.5664900000000 1.0
C      1  0.5123150000000  0.4729580000000  0.5832160000000 1.0
C      1  0.4905890000000  0.4585850000000  0.4246180000000 1.0
C      1  0.5816540000000  0.5047790000000  0.4573620000000 1.0
C      1  0.4290070000000  0.4815910000000  0.4634550000000 1.0
C      1  0.5790700000000  0.4910830000000  0.5267500000000 1.0
C      1  0.4776410000000  0.4232480000000  0.4877010000000 1.0
C      1  0.5434390000000  0.5803900000000  0.5027860000000 1.0
C      1  0.4647510000000  0.5814660000000  0.5042380000000 1.0
C      1  0.4738760000000  0.4993100000000  0.4463410000000 1.0
C      1  0.4938060000000  0.4699980000000  0.4895150000000 1.0
C      1  0.4492490000000  0.4639040000000  0.5073060000000 1.0
C      1  0.5211710000000  0.5020320000000  0.5405740000000 1.0
C      1  0.5181960000000  0.5045910000000  0.4617250000000 1.0
C      1  0.4780800000000  0.4931240000000  0.5357370000000 1.0
C      1  0.4898160000000  0.4448030000000  0.5324240000000 1.0
C      1  0.5046480000000  0.5303330000000  0.4720850000000 1.0
C      1  0.4963530000000  0.5418680000000  0.5158790000000 1.0
C      1  0.5406990000000  0.4801210000000  0.4998620000000 1.0
C      1  0.5480830000000  0.5276620000000  0.5038190000000 1.0
C      1  0.4562250000000  0.5131720000000  0.4934810000000 1.0
C      1  0.4474050000000  0.5054650000000  0.4648810000000 1.0
C      1  0.4766000000000  0.4485340000000  0.5043740000000 1.0
C      1  0.4973270000000  0.4834000000000  0.4615680000000 1.0
C      1  0.5375630000000  0.5030860000000  0.5173410000000 1.0
C      1  0.4614110000000  0.4908110000000  0.5110260000000 1.0
C      1  0.5424820000000  0.4944730000000  0.4746130000000 1.0
C      1  0.5193430000000  0.4575770000000  0.4957380000000 1.0
C      1  0.4779930000000  0.5350540000000  0.4915690000000 1.0
C      1  0.5215500000000  0.5435470000000  0.4959090000000 1.0
C      1  0.5003310000000  0.4724740000000  0.5375210000000 1.0
C      1  0.4949040000000  0.5192140000000  0.5383560000000 1.0
C      1  0.4858600000000  0.5275440000000  0.4379870000000 1.0
C      1  0.4418300000000  0.5450770000000  0.4360250000000 1.0
C      1  0.5220800000000  0.4423920000000  0.4680660000000 1.0
C      1  0.4332930000000  0.4598550000000  0.5329840000000 1.0
C      1  0.5372890000000  0.5132470000000  0.5629590000000 1.0
C      1  0.5397310000000  0.4790010000000  0.4335200000000 1.0
C      1  0.4630040000000  0.4875710000000  0.5612170000000 1.0
C      1  0.4699830000000  0.4397610000000  0.5543470000000 1.0
C      1  0.4778480000000  0.5695720000000  0.4575370000000 1.0
C      1  0.5203980000000  0.5591940000000  0.5494170000000 1.0
C      1  0.5711420000000  0.4584330000000  0.4753720000000 1.0
C      1  0.5623330000000  0.5411230000000  0.5267740000000 1.0
C      1  0.4339570000000  0.5493820000000  0.4817240000000 1.0
C      1  0.4324760000000  0.5311940000000  0.4582990000000 1.0
C      1  0.4431720000000  0.4379130000000  0.5469680000000 1.0
C      1  0.5142660000000  0.4638010000000  0.4439970000000 1.0
C      1  0.5647140000000  0.5192160000000  0.5482770000000 1.0
C      1  0.4343600000000  0.4845680000000  0.5503300000000 1.0
C      1  0.5617800000000  0.4815110000000  0.4571620000000 1.0
C      1  0.5520620000000  0.4351370000000  0.4754940000000 1.0
C      1  0.4630130000000  0.5606250000000  0.4828260000000 1.0
C      1  0.5429640000000  0.5636550000000  0.5292240000000 1.0
C      1  0.4766160000000  0.4619560000000  0.5732450000000 1.0
C      1  0.5198900000000  0.5373450000000  0.5705180000000 1.0
C      1  0.4689770000000  0.5515930000000  0.4357150000000 1.0
C      1  0.4408390000000  0.4349400000000  0.4658300000000 1.0
C      1  0.4444530000000  0.4717130000000  0.4167550000000 1.0
C      1  0.4901560000000  0.4141610000000  0.4429390000000 1.0
C      1  0.5621660000000  0.4448100000000  0.5230440000000 1.0
C      1  0.5711660000000  0.5533000000000  0.4665670000000 1.0
C      1  0.4346510000000  0.5598400000000  0.5284950000000 1.0
C      1  0.5583900000000  0.4703010000000  0.5663570000000 1.0
C      1  0.5597910000000  0.5269780000000  0.4260770000000 1.0
C      1  0.4435030000000  0.5259720000000  0.5821940000000 1.0
C      1  0.5275650000000  0.4328720000000  0.5586590000000 1.0
C      1  0.5082080000000  0.5725050000000  0.4608890000000 1.0
C      1  0.4940370000000  0.5726900000000  0.5469760000000 1.0
C      1  0.4754240000000  0.4336090000000  0.4287730000000 1.0
C      1  0.4247890000000  0.4709290000000  0.4369360000000 1.0
C      1  0.4528510000000  0.4133410000000  0.4792010000000 1.0
C      1  0.5108870000000  0.4448950000000  0.5791420000000 1.0
C      1  0.4739680000000  0.5557740000000  0.5604820000000 1.0
C      1  0.5251890000000  0.5555280000000  0.4425990000000 1.0
C      1  0.5805420000000  0.4851980000000  0.5546480000000 1.0
C      1  0.4257060000000  0.5298940000000  0.5600880000000 1.0
C      1  0.5849130000000  0.5151750000000  0.4314600000000 1.0
C      1  0.5491440000000  0.4259140000000  0.5042230000000 1.0
C      1  0.4409590000000  0.5850120000000  0.5182990000000 1.0
C      1  0.5642300000000  0.5731450000000  0.4852660000000 1.0
C      1  0.5468920000000  0.4512360000000  0.5473760000000 1.0
C      1  0.4427520000000  0.5558020000000  0.5569510000000 1.0
C      1  0.5548670000000  0.5523210000000  0.4413160000000 1.0
C      1  0.4460320000000  0.4387110000000  0.4362160000000 1.0
END
