TITL C-3577090-796-334 -7.44743913274226e-07 125000 -886.652739506864 0 0 144 (C1) n - 1
REM
REM in /home/bkarasulu/work/CARBON/AIRSS/Generating-Clusters/EDIP-Nigel-Params/with-SteepDescent/Higher-Symm/SD-CG/HFTN-CG
REM
REM
REM
REM
REM
REM ./C.cell (12c818d87b63d06a65506943cc24bca4)
REM
REM compiler GCC version 9.2.1 20190827 (Red Hat 9.2.1-1)
REM options -cpp -mtune=generic -march=x86-64 -g -O0 -fpre-include=/usr/include/finclude/math-vector-fortran.h
REM seed 1636461423 -142360156 1291760713 1087401644 870052863 1852710345 -1456680480 1315235953 989709885 -1209890959 1989875481 737574964 -422965461 914762057 -865222818 1686466392 277342997 1778635171 2013586932 117138134 -1396732598 -1424005162 -1220476849 444971815 1898026414 1942776495 1807462650 923053900 647874618 -523572080 1589140150 1020426851 -503348396
REM
CELL 1.54180   50.00000   50.00000   50.00000   90.00000   90.00000   90.00000
LATT -1
SFAC C  
C      1  0.5688070000000  0.5480560000000  0.5574910000000 1.0
C      1  0.4921390000000  0.4606260000000  0.5846580000000 1.0
C      1  0.4223910000000  0.5442470000000  0.5331370000000 1.0
C      1  0.4304560000000  0.4548870000000  0.4438010000000 1.0
C      1  0.5132340000000  0.5418540000000  0.4148920000000 1.0
C      1  0.5740510000000  0.4549010000000  0.4663640000000 1.0
C      1  0.5613210000000  0.4455370000000  0.5493370000000 1.0
C      1  0.4863710000000  0.5575860000000  0.5822670000000 1.0
C      1  0.4281810000000  0.4495700000000  0.5274350000000 1.0
C      1  0.4427760000000  0.5508800000000  0.4508670000000 1.0
C      1  0.5096690000000  0.4461760000000  0.4159990000000 1.0
C      1  0.5731150000000  0.5494090000000  0.4705320000000 1.0
C      1  0.4778730000000  0.5240990000000  0.5546890000000 1.0
C      1  0.4539280000000  0.4768790000000  0.4944730000000 1.0
C      1  0.4783300000000  0.5111390000000  0.4559810000000 1.0
C      1  0.5193470000000  0.4765780000000  0.4504250000000 1.0
C      1  0.5498370000000  0.5231010000000  0.5029820000000 1.0
C      1  0.5329790000000  0.5035680000000  0.5482800000000 1.0
C      1  0.5231060000000  0.4027400000000  0.4668690000000 1.0
C      1  0.5340740000000  0.5932810000000  0.5079870000000 1.0
C      1  0.5075770000000  0.4021670000000  0.5377840000000 1.0
C      1  0.4687840000000  0.5961240000000  0.5318690000000 1.0
C      1  0.4701440000000  0.4091520000000  0.4944400000000 1.0
C      1  0.4901570000000  0.5943380000000  0.4701420000000 1.0
C      1  0.4923520000000  0.4195700000000  0.5551770000000 1.0
C      1  0.4459150000000  0.5836000000000  0.5202180000000 1.0
C      1  0.4595980000000  0.4157000000000  0.4662470000000 1.0
C      1  0.5072290000000  0.5820780000000  0.4481880000000 1.0
C      1  0.5468000000000  0.4151800000000  0.4778410000000 1.0
C      1  0.5389720000000  0.5818430000000  0.5338020000000 1.0
C      1  0.4951840000000  0.4683660000000  0.4035550000000 1.0
C      1  0.5693940000000  0.5258080000000  0.4510000000000 1.0
C      1  0.5780810000000  0.4686660000000  0.5431750000000 1.0
C      1  0.4996050000000  0.5410140000000  0.6013890000000 1.0
C      1  0.4252650000000  0.4729430000000  0.5447770000000 1.0
C      1  0.4233480000000  0.5293520000000  0.4563770000000 1.0
C      1  0.4081820000000  0.4782100000000  0.4886710000000 1.0
C      1  0.4619730000000  0.5154470000000  0.4149940000000 1.0
C      1  0.5522620000000  0.4771870000000  0.4202620000000 1.0
C      1  0.5934130000000  0.5206020000000  0.5093660000000 1.0
C      1  0.5427040000000  0.4877670000000  0.5748980000000 1.0
C      1  0.4421860000000  0.5225960000000  0.5800340000000 1.0
C      1  0.4843600000000  0.4303940000000  0.4241620000000 1.0
C      1  0.5552450000000  0.5677650000000  0.4540800000000 1.0
C      1  0.5645650000000  0.4276300000000  0.5225760000000 1.0
C      1  0.5103900000000  0.5713970000000  0.5710890000000 1.0
C      1  0.4446510000000  0.4290690000000  0.5438560000000 1.0
C      1  0.4364910000000  0.5706920000000  0.4745410000000 1.0
C      1  0.4845550000000  0.4160160000000  0.4495560000000 1.0
C      1  0.5316280000000  0.5792510000000  0.4658800000000 1.0
C      1  0.5438940000000  0.4125280000000  0.5072930000000 1.0
C      1  0.5116990000000  0.5820160000000  0.5448120000000 1.0
C      1  0.4721860000000  0.4284630000000  0.5339680000000 1.0
C      1  0.4521300000000  0.5892770000000  0.4914300000000 1.0
C      1  0.4994080000000  0.5397930000000  0.5416760000000 1.0
C      1  0.4785150000000  0.4639170000000  0.5030350000000 1.0
C      1  0.4787310000000  0.5486640000000  0.4849840000000 1.0
C      1  0.5001390000000  0.4602370000000  0.4656030000000 1.0
C      1  0.5252300000000  0.5380770000000  0.5015910000000 1.0
C      1  0.5224960000000  0.4488360000000  0.5213230000000 1.0
C      1  0.5661330000000  0.5069150000000  0.5832030000000 1.0
C      1  0.4622630000000  0.5036640000000  0.5905690000000 1.0
C      1  0.4050490000000  0.4967910000000  0.5117640000000 1.0
C      1  0.4372190000000  0.4985830000000  0.4192990000000 1.0
C      1  0.5378960000000  0.4992160000000  0.4057160000000 1.0
C      1  0.5944870000000  0.5013930000000  0.4869580000000 1.0
C      1  0.5577490000000  0.5554050000000  0.5843400000000 1.0
C      1  0.4632280000000  0.4536270000000  0.5880090000000 1.0
C      1  0.4045760000000  0.5475370000000  0.5098910000000 1.0
C      1  0.4362220000000  0.4487570000000  0.4151200000000 1.0
C      1  0.5414010000000  0.5484800000000  0.4096560000000 1.0
C      1  0.5937500000000  0.4510560000000  0.4879530000000 1.0
C      1  0.4927400000000  0.3810730000000  0.5261250000000 1.0
C      1  0.4765320000000  0.6123660000000  0.5075680000000 1.0
C      1  0.4864290000000  0.3839080000000  0.4986680000000 1.0
C      1  0.5025270000000  0.6188480000000  0.4803330000000 1.0
C      1  0.5098720000000  0.3836530000000  0.4827880000000 1.0
C      1  0.5145440000000  0.6151510000000  0.5062340000000 1.0
C      1  0.4522630000000  0.4790370000000  0.5790090000000 1.0
C      1  0.4081590000000  0.5215040000000  0.4971580000000 1.0
C      1  0.4393550000000  0.4748670000000  0.4025750000000 1.0
C      1  0.5533090000000  0.5227670000000  0.4158550000000 1.0
C      1  0.5914090000000  0.4768920000000  0.5016600000000 1.0
C      1  0.5521350000000  0.5298150000000  0.5982420000000 1.0
C      1  0.4518150000000  0.4965380000000  0.4710720000000 1.0
C      1  0.4993280000000  0.4962600000000  0.4377010000000 1.0
C      1  0.5390690000000  0.4918030000000  0.4668210000000 1.0
C      1  0.5538080000000  0.5027570000000  0.5246220000000 1.0
C      1  0.5056660000000  0.4910130000000  0.5469820000000 1.0
C      1  0.4597270000000  0.5073340000000  0.5374170000000 1.0
C      1  0.4688720000000  0.5361550000000  0.4387330000000 1.0
C      1  0.5339990000000  0.4557690000000  0.4349330000000 1.0
C      1  0.5717210000000  0.5420920000000  0.5027620000000 1.0
C      1  0.5400240000000  0.4551040000000  0.5690680000000 1.0
C      1  0.4606960000000  0.5453790000000  0.5649920000000 1.0
C      1  0.4311820000000  0.4583810000000  0.4953470000000 1.0
C      1  0.4548510000000  0.4784220000000  0.5482280000000 1.0
C      1  0.4353290000000  0.5221920000000  0.4835970000000 1.0
C      1  0.4721770000000  0.4728960000000  0.4225670000000 1.0
C      1  0.5388710000000  0.5181120000000  0.4520110000000 1.0
C      1  0.5654980000000  0.4748050000000  0.5164210000000 1.0
C      1  0.5228640000000  0.5276940000000  0.5882460000000 1.0
C      1  0.4319880000000  0.4854600000000  0.4474450000000 1.0
C      1  0.5098550000000  0.5113050000000  0.4125930000000 1.0
C      1  0.5698880000000  0.4839320000000  0.4637480000000 1.0
C      1  0.5765320000000  0.5198040000000  0.5585340000000 1.0
C      1  0.4948440000000  0.4901330000000  0.5768170000000 1.0
C      1  0.4280320000000  0.5154750000000  0.5361230000000 1.0
C      1  0.4589270000000  0.4322740000000  0.4117860000000 1.0
C      1  0.5534330000000  0.5674780000000  0.4260750000000 1.0
C      1  0.5872590000000  0.4307400000000  0.5063040000000 1.0
C      1  0.5350210000000  0.5721100000000  0.5842990000000 1.0
C      1  0.4500370000000  0.4343070000000  0.5716540000000 1.0
C      1  0.4135790000000  0.5657050000000  0.4902600000000 1.0
C      1  0.4937930000000  0.5259180000000  0.4746780000000 1.0
C      1  0.5270890000000  0.4867250000000  0.4937390000000 1.0
C      1  0.5026260000000  0.5240070000000  0.5177950000000 1.0
C      1  0.5044050000000  0.4621660000000  0.5406220000000 1.0
C      1  0.4739470000000  0.5123920000000  0.5113370000000 1.0
C      1  0.4972180000000  0.4868950000000  0.4944860000000 1.0
C      1  0.4495160000000  0.5551350000000  0.5291540000000 1.0
C      1  0.4499500000000  0.4454780000000  0.4647160000000 1.0
C      1  0.5011530000000  0.5524680000000  0.4402020000000 1.0
C      1  0.5463640000000  0.4448460000000  0.4704000000000 1.0
C      1  0.5509350000000  0.5536880000000  0.5337130000000 1.0
C      1  0.5087760000000  0.4452340000000  0.5654730000000 1.0
C      1  0.4931900000000  0.4287770000000  0.4949230000000 1.0
C      1  0.4935500000000  0.5733070000000  0.4944520000000 1.0
C      1  0.5054980000000  0.4276010000000  0.4667970000000 1.0
C      1  0.5235510000000  0.5703020000000  0.4929970000000 1.0
C      1  0.5163270000000  0.4207400000000  0.5154840000000 1.0
C      1  0.4887870000000  0.5742920000000  0.5271700000000 1.0
C      1  0.4219730000000  0.5070420000000  0.5634270000000 1.0
C      1  0.4081420000000  0.4941430000000  0.4623640000000 1.0
C      1  0.4843330000000  0.5046280000000  0.3973230000000 1.0
C      1  0.5741600000000  0.4902530000000  0.4356380000000 1.0
C      1  0.5904810000000  0.5052430000000  0.5365660000000 1.0
C      1  0.5190380000000  0.4983270000000  0.5912400000000 1.0
C      1  0.4733830000000  0.4626130000000  0.4525390000000 1.0
C      1  0.5182830000000  0.5376240000000  0.4632670000000 1.0
C      1  0.5403770000000  0.4615260000000  0.5010400000000 1.0
C      1  0.5272660000000  0.5339800000000  0.5544950000000 1.0
C      1  0.4765180000000  0.4580220000000  0.5320310000000 1.0
C      1  0.4578200000000  0.5370470000000  0.5019540000000 1.0
END
