TITL C-3577082-504-23 -4.78808680832873e-06 125000 -1271.14883249149 0 0 200 (C1) n - 1
REM
REM in /home/bkarasulu/work/CARBON/AIRSS/Generating-Clusters/EDIP-Nigel-Params/with-SteepDescent/Higher-Symm/SD-CG/HFTN-CG
REM
REM
REM
REM
REM
REM ./C.cell (12c818d87b63d06a65506943cc24bca4)
REM
REM compiler GCC version 9.2.1 20190827 (Red Hat 9.2.1-1)
REM options -cpp -mtune=generic -march=x86-64 -g -O0 -fpre-include=/usr/include/finclude/math-vector-fortran.h
REM seed 195059097 311798671 -579249712 1088515346 -1621292364 -1373502481 1428489996 -1684477040 -1498223406 1755292653 1914263787 94778284 -1958082957 -813786535 -1850134114 1445691023 622583115 -469539823 1917251808 -2047786729 -458634655 685106527 -1120861597 -1031554126 1387003038 1370405139 1877919495 742038050 1680687696 1878017289 1295403774 1715247886 -422182948
REM
CELL 1.54180   50.00000   50.00000   50.00000   90.00000   90.00000   90.00000
LATT -1
SFAC C  
C      1  0.5391650000000  0.4373900000000  0.3966180000000 1.0
C      1  0.5698980000000  0.5050050000000  0.3983800000000 1.0
C      1  0.5230910000000  0.5565230000000  0.3974020000000 1.0
C      1  0.4597640000000  0.5545070000000  0.3995020000000 1.0
C      1  0.4365420000000  0.4961310000000  0.3997270000000 1.0
C      1  0.4732030000000  0.4476660000000  0.4011070000000 1.0
C      1  0.5389270000000  0.4398320000000  0.5999380000000 1.0
C      1  0.5601450000000  0.5074350000000  0.6019510000000 1.0
C      1  0.5276440000000  0.5609050000000  0.6004320000000 1.0
C      1  0.4632680000000  0.5566500000000  0.6020140000000 1.0
C      1  0.4381690000000  0.4987610000000  0.6000170000000 1.0
C      1  0.4659010000000  0.4350520000000  0.6013440000000 1.0
C      1  0.5252190000000  0.4002950000000  0.4844400000000 1.0
C      1  0.5948290000000  0.4734460000000  0.4843490000000 1.0
C      1  0.5731560000000  0.5737560000000  0.4828550000000 1.0
C      1  0.4763780000000  0.5974780000000  0.4848110000000 1.0
C      1  0.4137160000000  0.5256410000000  0.4826570000000 1.0
C      1  0.4291860000000  0.4311970000000  0.4843040000000 1.0
C      1  0.5245720000000  0.4072270000000  0.5150460000000 1.0
C      1  0.5930940000000  0.4738640000000  0.5150510000000 1.0
C      1  0.5745420000000  0.5746200000000  0.5150480000000 1.0
C      1  0.4786940000000  0.5889290000000  0.5146320000000 1.0
C      1  0.4113900000000  0.5265550000000  0.5179960000000 1.0
C      1  0.4334860000000  0.4339010000000  0.5147800000000 1.0
C      1  0.5035630000000  0.5270480000000  0.4428300000000 1.0
C      1  0.4774460000000  0.5186390000000  0.4355280000000 1.0
C      1  0.4737000000000  0.4916560000000  0.4469490000000 1.0
C      1  0.4931180000000  0.4736760000000  0.4336440000000 1.0
C      1  0.5175760000000  0.4849210000000  0.4469370000000 1.0
C      1  0.5229060000000  0.5093530000000  0.4327760000000 1.0
C      1  0.5058850000000  0.5297590000000  0.5713750000000 1.0
C      1  0.4803100000000  0.5171250000000  0.5603100000000 1.0
C      1  0.4779890000000  0.4878730000000  0.5675890000000 1.0
C      1  0.5000930000000  0.4740410000000  0.5502700000000 1.0
C      1  0.5219390000000  0.4834680000000  0.5708220000000 1.0
C      1  0.5259060000000  0.5110840000000  0.5632700000000 1.0
C      1  0.5967790000000  0.5247200000000  0.5138120000000 1.0
C      1  0.5285190000000  0.5965310000000  0.5125830000000 1.0
C      1  0.4313090000000  0.5743550000000  0.5152080000000 1.0
C      1  0.4084690000000  0.4778710000000  0.5148090000000 1.0
C      1  0.4722280000000  0.4024970000000  0.5137590000000 1.0
C      1  0.5710330000000  0.4271370000000  0.5135370000000 1.0
C      1  0.5932690000000  0.5247970000000  0.4858310000000 1.0
C      1  0.5286550000000  0.5992250000000  0.4842910000000 1.0
C      1  0.4305880000000  0.5749820000000  0.4866910000000 1.0
C      1  0.4055160000000  0.4771600000000  0.4863880000000 1.0
C      1  0.4720180000000  0.4040550000000  0.4852860000000 1.0
C      1  0.5681830000000  0.4289440000000  0.4855320000000 1.0
C      1  0.5567450000000  0.4217840000000  0.5556580000000 1.0
C      1  0.5948430000000  0.5095530000000  0.5577670000000 1.0
C      1  0.5405670000000  0.5870770000000  0.5560750000000 1.0
C      1  0.4466550000000  0.5796800000000  0.5577160000000 1.0
C      1  0.4065580000000  0.4927410000000  0.5583840000000 1.0
C      1  0.4614980000000  0.4152450000000  0.5549800000000 1.0
C      1  0.5545970000000  0.4215330000000  0.4426260000000 1.0
C      1  0.5931920000000  0.5107600000000  0.4433810000000 1.0
C      1  0.5398460000000  0.5883570000000  0.4389030000000 1.0
C      1  0.4461670000000  0.5797410000000  0.4429260000000 1.0
C      1  0.4034430000000  0.4916270000000  0.4414920000000 1.0
C      1  0.4604880000000  0.4165850000000  0.4420210000000 1.0
C      1  0.5849010000000  0.5483280000000  0.4709080000000 1.0
C      1  0.5033920000000  0.5975840000000  0.4693100000000 1.0
C      1  0.4139860000000  0.5556690000000  0.4717680000000 1.0
C      1  0.4142610000000  0.4539980000000  0.4713470000000 1.0
C      1  0.4968520000000  0.4014640000000  0.4694170000000 1.0
C      1  0.5843480000000  0.4474100000000  0.4702330000000 1.0
C      1  0.5857290000000  0.5471540000000  0.5294290000000 1.0
C      1  0.5040050000000  0.6020630000000  0.5271840000000 1.0
C      1  0.4145970000000  0.5556600000000  0.5303060000000 1.0
C      1  0.4123440000000  0.4530890000000  0.5293640000000 1.0
C      1  0.4970480000000  0.3967830000000  0.5289250000000 1.0
C      1  0.5846050000000  0.4483620000000  0.5281400000000 1.0
C      1  0.4585350000000  0.4517260000000  0.5140250000000 1.0
C      1  0.5208830000000  0.4384160000000  0.5140180000000 1.0
C      1  0.5527850000000  0.4915950000000  0.5157750000000 1.0
C      1  0.5445140000000  0.5495180000000  0.5143470000000 1.0
C      1  0.4842780000000  0.5577610000000  0.5143850000000 1.0
C      1  0.4406040000000  0.5163530000000  0.5167590000000 1.0
C      1  0.4678270000000  0.4587260000000  0.4852890000000 1.0
C      1  0.5201890000000  0.4440320000000  0.4847540000000 1.0
C      1  0.5589580000000  0.4888510000000  0.4860710000000 1.0
C      1  0.5423170000000  0.5486140000000  0.4832080000000 1.0
C      1  0.4880500000000  0.5479130000000  0.4865880000000 1.0
C      1  0.4436180000000  0.5141350000000  0.4862230000000 1.0
C      1  0.4549980000000  0.4386890000000  0.4221850000000 1.0
C      1  0.5343920000000  0.4206700000000  0.4206750000000 1.0
C      1  0.5811970000000  0.4928360000000  0.4227360000000 1.0
C      1  0.5365850000000  0.5602060000000  0.4250650000000 1.0
C      1  0.4665570000000  0.5735990000000  0.4212630000000 1.0
C      1  0.4197950000000  0.5091800000000  0.4213800000000 1.0
C      1  0.4489160000000  0.4302480000000  0.5773460000000 1.0
C      1  0.5350200000000  0.4227100000000  0.5762700000000 1.0
C      1  0.5754160000000  0.4947850000000  0.5776660000000 1.0
C      1  0.5473920000000  0.5663590000000  0.5780450000000 1.0
C      1  0.4684520000000  0.5749480000000  0.5785540000000 1.0
C      1  0.4226530000000  0.5101810000000  0.5774890000000 1.0
C      1  0.5113020000000  0.5543700000000  0.4431920000000 1.0
C      1  0.4587030000000  0.5374520000000  0.4454480000000 1.0
C      1  0.4466730000000  0.4822340000000  0.4434980000000 1.0
C      1  0.4942280000000  0.4452780000000  0.4416730000000 1.0
C      1  0.5416450000000  0.4676730000000  0.4447840000000 1.0
C      1  0.5493870000000  0.5174480000000  0.4412140000000 1.0
C      1  0.5096480000000  0.5552630000000  0.5581350000000 1.0
C      1  0.4581900000000  0.5368370000000  0.5589910000000 1.0
C      1  0.4529620000000  0.4764720000000  0.5570810000000 1.0
C      1  0.4944470000000  0.4452130000000  0.5532840000000 1.0
C      1  0.5428080000000  0.4675050000000  0.5586870000000 1.0
C      1  0.5525790000000  0.5194770000000  0.5582200000000 1.0
C      1  0.4106480000000  0.4621430000000  0.5583890000000 1.0
C      1  0.4885360000000  0.4013960000000  0.5575600000000 1.0
C      1  0.5793810000000  0.4425270000000  0.5567120000000 1.0
C      1  0.5913920000000  0.5405880000000  0.5586130000000 1.0
C      1  0.5124270000000  0.5994530000000  0.5557530000000 1.0
C      1  0.4214230000000  0.5616200000000  0.5586140000000 1.0
C      1  0.4088580000000  0.4592860000000  0.4423000000000 1.0
C      1  0.4877590000000  0.4015620000000  0.4395040000000 1.0
C      1  0.5776970000000  0.4417750000000  0.4414020000000 1.0
C      1  0.5867900000000  0.5411940000000  0.4423220000000 1.0
C      1  0.5110820000000  0.5985720000000  0.4398780000000 1.0
C      1  0.4216150000000  0.5616330000000  0.4437050000000 1.0
C      1  0.4715710000000  0.4956770000000  0.3599020000000 1.0
C      1  0.4823910000000  0.4700810000000  0.3560450000000 1.0
C      1  0.5086500000000  0.4661790000000  0.3659010000000 1.0
C      1  0.5285360000000  0.4887840000000  0.3655110000000 1.0
C      1  0.5148410000000  0.5165790000000  0.3620280000000 1.0
C      1  0.4900180000000  0.5137680000000  0.3484150000000 1.0
C      1  0.4660250000000  0.5004740000000  0.6448390000000 1.0
C      1  0.4746250000000  0.4733780000000  0.6365850000000 1.0
C      1  0.5050340000000  0.4683660000000  0.6331210000000 1.0
C      1  0.5211100000000  0.4942810000000  0.6337800000000 1.0
C      1  0.5096030000000  0.5143210000000  0.6495530000000 1.0
C      1  0.4839410000000  0.5239970000000  0.6436440000000 1.0
C      1  0.5131270000000  0.5600990000000  0.4726510000000 1.0
C      1  0.4635310000000  0.5343750000000  0.4746520000000 1.0
C      1  0.4473740000000  0.4823960000000  0.4743650000000 1.0
C      1  0.4923220000000  0.4396340000000  0.4711950000000 1.0
C      1  0.5434400000000  0.4635910000000  0.4743690000000 1.0
C      1  0.5524990000000  0.5191120000000  0.4715930000000 1.0
C      1  0.5125370000000  0.5521430000000  0.5282210000000 1.0
C      1  0.4567290000000  0.5414690000000  0.5286540000000 1.0
C      1  0.4504400000000  0.4804860000000  0.5272870000000 1.0
C      1  0.4909900000000  0.4402490000000  0.5247070000000 1.0
C      1  0.5327370000000  0.4693000000000  0.5289980000000 1.0
C      1  0.5557240000000  0.5218690000000  0.5277890000000 1.0
C      1  0.4514790000000  0.5881720000000  0.4710860000000 1.0
C      1  0.3998180000000  0.5010090000000  0.4701610000000 1.0
C      1  0.4527550000000  0.4197170000000  0.4706830000000 1.0
C      1  0.5488070000000  0.4133880000000  0.4706280000000 1.0
C      1  0.5982590000000  0.5009640000000  0.4707220000000 1.0
C      1  0.5501000000000  0.5887820000000  0.4676990000000 1.0
C      1  0.4515830000000  0.5895370000000  0.5298230000000 1.0
C      1  0.4010810000000  0.5010750000000  0.5304940000000 1.0
C      1  0.4484940000000  0.4109630000000  0.5288530000000 1.0
C      1  0.5522970000000  0.4106100000000  0.5285710000000 1.0
C      1  0.5940910000000  0.5002110000000  0.5290730000000 1.0
C      1  0.5517490000000  0.5900910000000  0.5286520000000 1.0
C      1  0.4366970000000  0.5485410000000  0.6023050000000 1.0
C      1  0.4349770000000  0.4701870000000  0.6019710000000 1.0
C      1  0.4942600000000  0.4299730000000  0.5990390000000 1.0
C      1  0.5625710000000  0.4544970000000  0.6007560000000 1.0
C      1  0.5707310000000  0.5331790000000  0.6028700000000 1.0
C      1  0.5095740000000  0.5822090000000  0.6001320000000 1.0
C      1  0.4324440000000  0.5485660000000  0.3993220000000 1.0
C      1  0.4286300000000  0.4694650000000  0.3986610000000 1.0
C      1  0.4931650000000  0.4284100000000  0.3957390000000 1.0
C      1  0.5568480000000  0.4602070000000  0.3990020000000 1.0
C      1  0.5671950000000  0.5327170000000  0.3983790000000 1.0
C      1  0.5070870000000  0.5791650000000  0.3940940000000 1.0
C      1  0.4951970000000  0.5818040000000  0.4203380000000 1.0
C      1  0.4286380000000  0.5378750000000  0.4260760000000 1.0
C      1  0.4345130000000  0.4601720000000  0.4257850000000 1.0
C      1  0.5035740000000  0.4219560000000  0.4234260000000 1.0
C      1  0.5665620000000  0.4657820000000  0.4267590000000 1.0
C      1  0.5609630000000  0.5400200000000  0.4259390000000 1.0
C      1  0.4979670000000  0.5796020000000  0.5733000000000 1.0
C      1  0.4325180000000  0.5386520000000  0.5751510000000 1.0
C      1  0.4357960000000  0.4581560000000  0.5740350000000 1.0
C      1  0.5045070000000  0.4228720000000  0.5718430000000 1.0
C      1  0.5680790000000  0.4648400000000  0.5741490000000 1.0
C      1  0.5661220000000  0.5427630000000  0.5757740000000 1.0
C      1  0.5132240000000  0.4477770000000  0.6119260000000 1.0
C      1  0.5287100000000  0.5054760000000  0.6068720000000 1.0
C      1  0.5119730000000  0.5337030000000  0.6006920000000 1.0
C      1  0.4826410000000  0.5345140000000  0.6136440000000 1.0
C      1  0.4691340000000  0.5054870000000  0.6070640000000 1.0
C      1  0.4577320000000  0.4586770000000  0.6165660000000 1.0
C      1  0.5149140000000  0.4410070000000  0.3804260000000 1.0
C      1  0.5507740000000  0.4859840000000  0.3861550000000 1.0
C      1  0.5083840000000  0.5295090000000  0.3894270000000 1.0
C      1  0.4774590000000  0.5309060000000  0.3930820000000 1.0
C      1  0.4666160000000  0.5019060000000  0.3893940000000 1.0
C      1  0.4904840000000  0.4817930000000  0.4025910000000 1.0
C      1  0.4962550000000  0.4739710000000  0.5062690000000 1.0
C      1  0.4768300000000  0.4918810000000  0.5177250000000 1.0
C      1  0.4846060000000  0.5159510000000  0.5301360000000 1.0
C      1  0.5147060000000  0.4871770000000  0.4849770000000 1.0
C      1  0.5115940000000  0.5226150000000  0.5231940000000 1.0
C      1  0.5246760000000  0.5125810000000  0.4979230000000 1.0
C      1  0.4944890000000  0.4858060000000  0.5996000000000 1.0
C      1  0.5151460000000  0.5040090000000  0.4045750000000 1.0
END
