TITL C-3577087-600-637 -5.36854286493482e-06 125000 -975.97155344322 0 0 158 (C1) n - 1
REM
REM in /home/bkarasulu/work/CARBON/AIRSS/Generating-Clusters/EDIP-Nigel-Params/with-SteepDescent/Higher-Symm/SD-CG/HFTN-CG
REM
REM
REM
REM
REM
REM ./C.cell (12c818d87b63d06a65506943cc24bca4)
REM
REM compiler GCC version 9.2.1 20190827 (Red Hat 9.2.1-1)
REM options -cpp -mtune=generic -march=x86-64 -g -O0 -fpre-include=/usr/include/finclude/math-vector-fortran.h
REM seed -388531245 1919374128 2113625189 416653750 1971199585 1209328690 823262109 297822146 643463898 1110949004 1177933297 -1625786204 786685413 1844452447 1289526826 796240811 1162392764 2016961172 -1128088465 -317251188 1179529734 -651184555 -17257223 -1106664105 -1958343539 -168340038 -1375374905 1952920206 -587439202 -28017285 1026808360 -209055296 -40978905
REM
CELL 1.54180   50.00000   50.00000   50.00000   90.00000   90.00000   90.00000
LATT -1
SFAC C  
C      1  0.4352710000000  0.6020790000000  0.5053950000000 1.0
C      1  0.5655670000000  0.3988210000000  0.4966860000000 1.0
C      1  0.4154670000000  0.4988640000000  0.5471600000000 1.0
C      1  0.5837100000000  0.4981340000000  0.4508110000000 1.0
C      1  0.5128730000000  0.5171530000000  0.4065110000000 1.0
C      1  0.4906760000000  0.4838670000000  0.5965550000000 1.0
C      1  0.5226770000000  0.5186630000000  0.5938370000000 1.0
C      1  0.4788770000000  0.4821970000000  0.4065480000000 1.0
C      1  0.5519120000000  0.4540180000000  0.4207470000000 1.0
C      1  0.4496530000000  0.5427750000000  0.5771820000000 1.0
C      1  0.5498020000000  0.5554740000000  0.4228330000000 1.0
C      1  0.4522490000000  0.4504580000000  0.5840850000000 1.0
C      1  0.5293780000000  0.4314900000000  0.4275230000000 1.0
C      1  0.4724080000000  0.5651630000000  0.5691320000000 1.0
C      1  0.4358140000000  0.5711380000000  0.5438850000000 1.0
C      1  0.5639220000000  0.4280100000000  0.4565320000000 1.0
C      1  0.4102840000000  0.5141770000000  0.4536790000000 1.0
C      1  0.5891740000000  0.4872830000000  0.5457040000000 1.0
C      1  0.5302300000000  0.5566880000000  0.4994260000000 1.0
C      1  0.4720770000000  0.4447830000000  0.5004380000000 1.0
C      1  0.5226280000000  0.5455170000000  0.4161310000000 1.0
C      1  0.4801610000000  0.4562790000000  0.5896240000000 1.0
C      1  0.4970330000000  0.5315050000000  0.5865700000000 1.0
C      1  0.5036530000000  0.4678830000000  0.4137650000000 1.0
C      1  0.4877120000000  0.5386780000000  0.5005550000000 1.0
C      1  0.5098340000000  0.4719380000000  0.5071020000000 1.0
C      1  0.5783070000000  0.4933510000000  0.4934070000000 1.0
C      1  0.4223010000000  0.5074970000000  0.5048040000000 1.0
C      1  0.5429670000000  0.4462020000000  0.4709050000000 1.0
C      1  0.4547180000000  0.5507460000000  0.5279270000000 1.0
C      1  0.5027660000000  0.5671860000000  0.4202450000000 1.0
C      1  0.4984260000000  0.4345390000000  0.5810810000000 1.0
C      1  0.4995860000000  0.5647780000000  0.5846450000000 1.0
C      1  0.5009550000000  0.4357050000000  0.4137080000000 1.0
C      1  0.5344430000000  0.5124170000000  0.4983680000000 1.0
C      1  0.4673860000000  0.4895990000000  0.4993910000000 1.0
C      1  0.4791180000000  0.5119900000000  0.6011350000000 1.0
C      1  0.5224180000000  0.4877520000000  0.4007620000000 1.0
C      1  0.3860380000000  0.4986150000000  0.4900130000000 1.0
C      1  0.6169240000000  0.5022360000000  0.5112930000000 1.0
C      1  0.5384010000000  0.4685920000000  0.5090540000000 1.0
C      1  0.4627520000000  0.5309520000000  0.4841880000000 1.0
C      1  0.5819850000000  0.5312710000000  0.5389110000000 1.0
C      1  0.3936460000000  0.4685930000000  0.4563470000000 1.0
C      1  0.5186740000000  0.4428330000000  0.4535730000000 1.0
C      1  0.4825080000000  0.5521880000000  0.5421110000000 1.0
C      1  0.5363990000000  0.3895680000000  0.4606790000000 1.0
C      1  0.4669220000000  0.6072730000000  0.5403070000000 1.0
C      1  0.5120570000000  0.5903760000000  0.4334500000000 1.0
C      1  0.4865570000000  0.4127600000000  0.5678860000000 1.0
C      1  0.4338770000000  0.4964840000000  0.4596480000000 1.0
C      1  0.5650370000000  0.5028990000000  0.5386260000000 1.0
C      1  0.4832050000000  0.5121350000000  0.4052120000000 1.0
C      1  0.5199210000000  0.4886340000000  0.5965720000000 1.0
C      1  0.5483470000000  0.4305370000000  0.5736520000000 1.0
C      1  0.4517710000000  0.5712600000000  0.4252490000000 1.0
C      1  0.5231530000000  0.5440880000000  0.5272850000000 1.0
C      1  0.4820490000000  0.4582620000000  0.4716560000000 1.0
C      1  0.5623070000000  0.5775960000000  0.5327980000000 1.0
C      1  0.4389830000000  0.4195480000000  0.4661710000000 1.0
C      1  0.5353430000000  0.5893490000000  0.5349470000000 1.0
C      1  0.4670100000000  0.4112680000000  0.4645440000000 1.0
C      1  0.4376490000000  0.4454680000000  0.4529030000000 1.0
C      1  0.5655480000000  0.5547350000000  0.5513200000000 1.0
C      1  0.4613720000000  0.5154200000000  0.5442150000000 1.0
C      1  0.5364710000000  0.4823990000000  0.4567360000000 1.0
C      1  0.4404760000000  0.5835450000000  0.4501960000000 1.0
C      1  0.5588770000000  0.4185270000000  0.5484860000000 1.0
C      1  0.4813030000000  0.4710150000000  0.5410730000000 1.0
C      1  0.5155540000000  0.5277590000000  0.4600440000000 1.0
C      1  0.6041110000000  0.4601840000000  0.4804010000000 1.0
C      1  0.3970150000000  0.5406670000000  0.5196010000000 1.0
C      1  0.5195730000000  0.3903160000000  0.5078760000000 1.0
C      1  0.4825120000000  0.6039280000000  0.4936610000000 1.0
C      1  0.5270480000000  0.4030020000000  0.5334760000000 1.0
C      1  0.4729020000000  0.5966430000000  0.4669590000000 1.0
C      1  0.5227320000000  0.5931930000000  0.5075940000000 1.0
C      1  0.4781370000000  0.4152690000000  0.4928400000000 1.0
C      1  0.5399870000000  0.5951600000000  0.4815800000000 1.0
C      1  0.4591700000000  0.4115580000000  0.5260880000000 1.0
C      1  0.5800190000000  0.4156940000000  0.4782700000000 1.0
C      1  0.4195010000000  0.5855260000000  0.5232560000000 1.0
C      1  0.4518630000000  0.5183320000000  0.5939810000000 1.0
C      1  0.5495280000000  0.4790220000000  0.4044390000000 1.0
C      1  0.5522790000000  0.5361600000000  0.4837760000000 1.0
C      1  0.4403940000000  0.4555680000000  0.5208450000000 1.0
C      1  0.4278820000000  0.4189070000000  0.4918300000000 1.0
C      1  0.5724450000000  0.5673050000000  0.5072620000000 1.0
C      1  0.5997740000000  0.4305640000000  0.5191690000000 1.0
C      1  0.4010250000000  0.5708350000000  0.4809100000000 1.0
C      1  0.5463560000000  0.4075800000000  0.4412820000000 1.0
C      1  0.4559280000000  0.5893890000000  0.5587270000000 1.0
C      1  0.5845370000000  0.4591630000000  0.5583580000000 1.0
C      1  0.4157490000000  0.5425960000000  0.4409950000000 1.0
C      1  0.5402080000000  0.4267500000000  0.4949830000000 1.0
C      1  0.4561020000000  0.5702140000000  0.5039270000000 1.0
C      1  0.4446630000000  0.4281090000000  0.5693770000000 1.0
C      1  0.5545560000000  0.5732950000000  0.4454450000000 1.0
C      1  0.4361800000000  0.4262350000000  0.5172930000000 1.0
C      1  0.5641190000000  0.5783350000000  0.4818310000000 1.0
C      1  0.5859410000000  0.5418920000000  0.5119900000000 1.0
C      1  0.4214260000000  0.4683490000000  0.4616190000000 1.0
C      1  0.5221720000000  0.5726220000000  0.5664370000000 1.0
C      1  0.4786890000000  0.4283200000000  0.4327840000000 1.0
C      1  0.5372760000000  0.4768210000000  0.5744550000000 1.0
C      1  0.4630220000000  0.5239400000000  0.4252560000000 1.0
C      1  0.5852060000000  0.5224510000000  0.4687660000000 1.0
C      1  0.4092750000000  0.4750940000000  0.5305700000000 1.0
C      1  0.4377150000000  0.4951270000000  0.5876570000000 1.0
C      1  0.5626840000000  0.5024590000000  0.4120150000000 1.0
C      1  0.4389150000000  0.5442650000000  0.4213590000000 1.0
C      1  0.5614720000000  0.4571550000000  0.5781010000000 1.0
C      1  0.6013730000000  0.4777470000000  0.5041530000000 1.0
C      1  0.3988890000000  0.5261510000000  0.4947250000000 1.0
C      1  0.4612960000000  0.6129980000000  0.5131680000000 1.0
C      1  0.5420690000000  0.3835700000000  0.4881790000000 1.0
C      1  0.6000490000000  0.4325660000000  0.4910170000000 1.0
C      1  0.4008350000000  0.5682320000000  0.5091390000000 1.0
C      1  0.4619600000000  0.4115750000000  0.5549420000000 1.0
C      1  0.5313260000000  0.5878490000000  0.4537710000000 1.0
C      1  0.4939910000000  0.4524810000000  0.5217700000000 1.0
C      1  0.5063410000000  0.5500130000000  0.4787800000000 1.0
C      1  0.4608570000000  0.4756000000000  0.4270270000000 1.0
C      1  0.5401400000000  0.5246230000000  0.5721900000000 1.0
C      1  0.5086820000000  0.4126880000000  0.4925510000000 1.0
C      1  0.4872820000000  0.5772410000000  0.5080930000000 1.0
C      1  0.6017840000000  0.5245340000000  0.4947070000000 1.0
C      1  0.4081510000000  0.4794090000000  0.5023950000000 1.0
C      1  0.4530860000000  0.4995210000000  0.4385550000000 1.0
C      1  0.5448850000000  0.5005770000000  0.5589530000000 1.0
C      1  0.5090610000000  0.4697440000000  0.4448040000000 1.0
C      1  0.4899770000000  0.5260140000000  0.5569450000000 1.0
C      1  0.4650790000000  0.4523650000000  0.4451120000000 1.0
C      1  0.5364600000000  0.5487030000000  0.5549290000000 1.0
C      1  0.3864790000000  0.4957380000000  0.4603560000000 1.0
C      1  0.6116580000000  0.5058990000000  0.5396540000000 1.0
C      1  0.5822290000000  0.4354170000000  0.5406150000000 1.0
C      1  0.4158760000000  0.5677630000000  0.4570860000000 1.0
C      1  0.5440060000000  0.4421300000000  0.5208630000000 1.0
C      1  0.4534760000000  0.5573830000000  0.4765590000000 1.0
C      1  0.5191800000000  0.5013740000000  0.4741830000000 1.0
C      1  0.4784230000000  0.4968580000000  0.5261590000000 1.0
C      1  0.5542940000000  0.4935050000000  0.5108470000000 1.0
C      1  0.4466230000000  0.5063570000000  0.4866750000000 1.0
C      1  0.4530580000000  0.4653590000000  0.5487770000000 1.0
C      1  0.5450500000000  0.5311400000000  0.4517380000000 1.0
C      1  0.4930660000000  0.4836870000000  0.4849180000000 1.0
C      1  0.5079690000000  0.5200780000000  0.5175490000000 1.0
C      1  0.5564210000000  0.5032020000000  0.4408820000000 1.0
C      1  0.4416630000000  0.4934360000000  0.5586970000000 1.0
C      1  0.5185930000000  0.4329350000000  0.5362090000000 1.0
C      1  0.4796730000000  0.5674580000000  0.4630660000000 1.0
C      1  0.5757950000000  0.4491500000000  0.4388110000000 1.0
C      1  0.4251010000000  0.5483850000000  0.5607540000000 1.0
C      1  0.5219610000000  0.4425660000000  0.5652860000000 1.0
C      1  0.4780950000000  0.5588370000000  0.4340170000000 1.0
C      1  0.4136020000000  0.5289290000000  0.5416490000000 1.0
C      1  0.5864950000000  0.4692390000000  0.4577640000000 1.0
END
