TITL C-3578194-7807-723 -9.24291445785507e-06 125000 -985.105707442078 0 0 160 (C1) n - 1
REM
REM in /home/bkarasulu/work/CARBON/AIRSS/Generating-Clusters/EDIP-Nigel-Params/with-SteepDescent/Higher-Symm/SD-CG/HFTN-CG
REM
REM
REM
REM
REM
REM ./C.cell (12c818d87b63d06a65506943cc24bca4)
REM
REM compiler GCC version 9.2.1 20190827 (Red Hat 9.2.1-1)
REM options -cpp -mtune=generic -march=x86-64 -g -O0 -fpre-include=/usr/include/finclude/math-vector-fortran.h
REM seed 95154657 -787500005 -2130020323 -2019940569 2087804236 1895334720 1539111354 1627217520 -1824533986 -1820951322 -1741446226 733978555 -1291925548 905273883 -1364659366 -1723840950 -1294935998 -295160306 945215733 1793310141 1662823264 919880785 -1143217824 162007713 505949198 -159207693 596869157 1511764415 800650244 2057095898 1887086801 -160941298 1108621114
REM
CELL 1.54180   50.00000   50.00000   50.00000   90.00000   90.00000   90.00000
LATT -1
SFAC C  
C      1  0.4121180000000  0.4743300000000  0.5023780000000 1.0
C      1  0.4683190000000  0.4681180000000  0.4133140000000 1.0
C      1  0.5709540000000  0.4730880000000  0.4476400000000 1.0
C      1  0.5790290000000  0.4669750000000  0.5460790000000 1.0
C      1  0.4797490000000  0.4711500000000  0.5917990000000 1.0
C      1  0.4819030000000  0.5119890000000  0.3946320000000 1.0
C      1  0.5938590000000  0.5181690000000  0.4453460000000 1.0
C      1  0.5859320000000  0.5193400000000  0.5716250000000 1.0
C      1  0.4436460000000  0.5225760000000  0.6028890000000 1.0
C      1  0.3924490000000  0.5122950000000  0.4713400000000 1.0
C      1  0.4422430000000  0.4103650000000  0.5057570000000 1.0
C      1  0.4764050000000  0.4069290000000  0.4416670000000 1.0
C      1  0.5485180000000  0.3927640000000  0.4545720000000 1.0
C      1  0.5591610000000  0.3897040000000  0.5274200000000 1.0
C      1  0.4931590000000  0.4074330000000  0.5592040000000 1.0
C      1  0.5576200000000  0.5908990000000  0.4961120000000 1.0
C      1  0.5236350000000  0.5909010000000  0.5579160000000 1.0
C      1  0.4542780000000  0.5927190000000  0.5387420000000 1.0
C      1  0.4471970000000  0.5926900000000  0.4684240000000 1.0
C      1  0.5108450000000  0.5907300000000  0.4416610000000 1.0
C      1  0.4821750000000  0.5696280000000  0.5703870000000 1.0
C      1  0.4310420000000  0.5701690000000  0.5032500000000 1.0
C      1  0.4725300000000  0.5694270000000  0.4402580000000 1.0
C      1  0.5479020000000  0.5700150000000  0.4583810000000 1.0
C      1  0.5558260000000  0.5693210000000  0.5363120000000 1.0
C      1  0.4492000000000  0.5870600000000  0.4394000000000 1.0
C      1  0.5386070000000  0.5823700000000  0.4345460000000 1.0
C      1  0.5745030000000  0.5821350000000  0.5191930000000 1.0
C      1  0.5060990000000  0.5815960000000  0.5797590000000 1.0
C      1  0.4277410000000  0.5840640000000  0.5278350000000 1.0
C      1  0.4613660000000  0.4448460000000  0.4584860000000 1.0
C      1  0.5218480000000  0.4575500000000  0.4599660000000 1.0
C      1  0.5505060000000  0.4443710000000  0.5130970000000 1.0
C      1  0.5034080000000  0.4451420000000  0.5558010000000 1.0
C      1  0.4559460000000  0.4468400000000  0.5257050000000 1.0
C      1  0.4158860000000  0.5621170000000  0.5441500000000 1.0
C      1  0.4361980000000  0.5578210000000  0.4324910000000 1.0
C      1  0.5385270000000  0.5582390000000  0.4167950000000 1.0
C      1  0.5911480000000  0.5580700000000  0.5123060000000 1.0
C      1  0.5183210000000  0.5582280000000  0.5935880000000 1.0
C      1  0.5146660000000  0.3763980000000  0.5166390000000 1.0
C      1  0.4864040000000  0.3818350000000  0.5173890000000 1.0
C      1  0.4774530000000  0.3832330000000  0.4899760000000 1.0
C      1  0.4987620000000  0.3753750000000  0.4716210000000 1.0
C      1  0.5231480000000  0.3703510000000  0.4888780000000 1.0
C      1  0.4253340000000  0.5381930000000  0.5885030000000 1.0
C      1  0.3977120000000  0.5313580000000  0.4515390000000 1.0
C      1  0.5047490000000  0.5304240000000  0.3911500000000 1.0
C      1  0.6041370000000  0.5337100000000  0.4685370000000 1.0
C      1  0.5664150000000  0.5330020000000  0.5901840000000 1.0
C      1  0.4587010000000  0.5513090000000  0.5226110000000 1.0
C      1  0.4663610000000  0.5511040000000  0.4738050000000 1.0
C      1  0.5161960000000  0.5487570000000  0.4638850000000 1.0
C      1  0.5402470000000  0.5491740000000  0.5073970000000 1.0
C      1  0.5062910000000  0.5526110000000  0.5458190000000 1.0
C      1  0.5753860000000  0.5008080000000  0.4593600000000 1.0
C      1  0.5667710000000  0.5002710000000  0.5603350000000 1.0
C      1  0.4601140000000  0.5042350000000  0.5876560000000 1.0
C      1  0.4090070000000  0.5022750000000  0.4917360000000 1.0
C      1  0.4858180000000  0.4950770000000  0.4195540000000 1.0
C      1  0.5495940000000  0.3816900000000  0.4804610000000 1.0
C      1  0.5329870000000  0.3859300000000  0.5369620000000 1.0
C      1  0.4743660000000  0.3958730000000  0.5399750000000 1.0
C      1  0.4531390000000  0.3965720000000  0.4832970000000 1.0
C      1  0.5010200000000  0.3922020000000  0.4470210000000 1.0
C      1  0.4180250000000  0.4569650000000  0.4799940000000 1.0
C      1  0.4931770000000  0.4528370000000  0.4179860000000 1.0
C      1  0.5765220000000  0.4581110000000  0.4721370000000 1.0
C      1  0.5537300000000  0.4586900000000  0.5552920000000 1.0
C      1  0.4625960000000  0.4641290000000  0.5701580000000 1.0
C      1  0.5998440000000  0.5136880000000  0.5356620000000 1.0
C      1  0.5054220000000  0.5155630000000  0.6115900000000 1.0
C      1  0.3902660000000  0.5203070000000  0.5347870000000 1.0
C      1  0.4448660000000  0.5128680000000  0.4055700000000 1.0
C      1  0.5662430000000  0.5147370000000  0.4180800000000 1.0
C      1  0.4289910000000  0.5213910000000  0.5016130000000 1.0
C      1  0.4783090000000  0.5186340000000  0.4385000000000 1.0
C      1  0.5517520000000  0.5184690000000  0.4631700000000 1.0
C      1  0.5512100000000  0.5184010000000  0.5418400000000 1.0
C      1  0.4763350000000  0.5223840000000  0.5686960000000 1.0
C      1  0.4099350000000  0.5384590000000  0.5254830000000 1.0
C      1  0.4551940000000  0.5328390000000  0.4237190000000 1.0
C      1  0.5544670000000  0.5375350000000  0.4301710000000 1.0
C      1  0.5833960000000  0.5364970000000  0.5311940000000 1.0
C      1  0.4980380000000  0.5357180000000  0.5936830000000 1.0
C      1  0.4225260000000  0.5779100000000  0.4767350000000 1.0
C      1  0.4939940000000  0.5766680000000  0.4209280000000 1.0
C      1  0.5711620000000  0.5780800000000  0.4726830000000 1.0
C      1  0.5499230000000  0.5781950000000  0.5625890000000 1.0
C      1  0.4558750000000  0.5812750000000  0.5668540000000 1.0
C      1  0.5052650000000  0.5781250000000  0.4716550000000 1.0
C      1  0.5275290000000  0.5771780000000  0.4999430000000 1.0
C      1  0.5082890000000  0.5793000000000  0.5273350000000 1.0
C      1  0.4754010000000  0.5790280000000  0.5182690000000 1.0
C      1  0.4734760000000  0.5798220000000  0.4841810000000 1.0
C      1  0.4707870000000  0.5078630000000  0.4653270000000 1.0
C      1  0.5270430000000  0.5030400000000  0.4706640000000 1.0
C      1  0.5357360000000  0.5035420000000  0.5203100000000 1.0
C      1  0.4926930000000  0.5067730000000  0.5476090000000 1.0
C      1  0.4534300000000  0.5042460000000  0.5121920000000 1.0
C      1  0.4951810000000  0.4678830000000  0.4478410000000 1.0
C      1  0.5554070000000  0.4650450000000  0.4919950000000 1.0
C      1  0.5310050000000  0.4545420000000  0.5355750000000 1.0
C      1  0.4773680000000  0.4591060000000  0.5447290000000 1.0
C      1  0.4475870000000  0.4552650000000  0.4834930000000 1.0
C      1  0.4025400000000  0.5185510000000  0.4271690000000 1.0
C      1  0.5287460000000  0.5159050000000  0.3871720000000 1.0
C      1  0.6142560000000  0.5163820000000  0.4885910000000 1.0
C      1  0.5523740000000  0.5145880000000  0.6064520000000 1.0
C      1  0.4060120000000  0.5209650000000  0.5780210000000 1.0
C      1  0.5512640000000  0.4711700000000  0.5803290000000 1.0
C      1  0.4423820000000  0.4843280000000  0.5716890000000 1.0
C      1  0.4085900000000  0.4672250000000  0.4551030000000 1.0
C      1  0.5138830000000  0.4616140000000  0.4012560000000 1.0
C      1  0.6039420000000  0.4610360000000  0.4794120000000 1.0
C      1  0.4806680000000  0.4824220000000  0.4719480000000 1.0
C      1  0.5282820000000  0.4756590000000  0.4838180000000 1.0
C      1  0.5187090000000  0.4782230000000  0.5190810000000 1.0
C      1  0.4885610000000  0.4832160000000  0.5290110000000 1.0
C      1  0.4651980000000  0.4784180000000  0.4982740000000 1.0
C      1  0.4496770000000  0.4096000000000  0.5333520000000 1.0
C      1  0.4520760000000  0.4073740000000  0.4565530000000 1.0
C      1  0.5260190000000  0.4084450000000  0.4489040000000 1.0
C      1  0.5549230000000  0.4015740000000  0.5018650000000 1.0
C      1  0.5215000000000  0.4047270000000  0.5553310000000 1.0
C      1  0.5027050000000  0.5371740000000  0.4392040000000 1.0
C      1  0.5589690000000  0.5374660000000  0.4861370000000 1.0
C      1  0.5324260000000  0.5378320000000  0.5565170000000 1.0
C      1  0.4558340000000  0.5397350000000  0.5518200000000 1.0
C      1  0.4387060000000  0.5368250000000  0.4756960000000 1.0
C      1  0.4816770000000  0.5276640000000  0.4835470000000 1.0
C      1  0.5114040000000  0.5252900000000  0.4827820000000 1.0
C      1  0.5205790000000  0.5267370000000  0.5105990000000 1.0
C      1  0.4971290000000  0.5287840000000  0.5288750000000 1.0
C      1  0.4726830000000  0.5271480000000  0.5114100000000 1.0
C      1  0.5348230000000  0.4755620000000  0.4133620000000 1.0
C      1  0.6027960000000  0.4713370000000  0.5054100000000 1.0
C      1  0.5263710000000  0.4788330000000  0.5888740000000 1.0
C      1  0.4261270000000  0.4881430000000  0.5483140000000 1.0
C      1  0.4265250000000  0.4771930000000  0.4361610000000 1.0
C      1  0.5467550000000  0.4998970000000  0.4019500000000 1.0
C      1  0.6062240000000  0.5002710000000  0.5102830000000 1.0
C      1  0.5282240000000  0.5003030000000  0.6078870000000 1.0
C      1  0.4034530000000  0.5058240000000  0.5546360000000 1.0
C      1  0.4215260000000  0.4998800000000  0.4179770000000 1.0
C      1  0.4303310000000  0.4690190000000  0.5258360000000 1.0
C      1  0.4493510000000  0.4600130000000  0.4334860000000 1.0
C      1  0.5436540000000  0.4644580000000  0.4387350000000 1.0
C      1  0.5863600000000  0.4552190000000  0.5221110000000 1.0
C      1  0.5048580000000  0.4605780000000  0.5832780000000 1.0
C      1  0.4200110000000  0.5517410000000  0.4583510000000 1.0
C      1  0.5094180000000  0.5510930000000  0.4142690000000 1.0
C      1  0.5838790000000  0.5526010000000  0.4835030000000 1.0
C      1  0.5443410000000  0.5527650000000  0.5783060000000 1.0
C      1  0.4363790000000  0.5565070000000  0.5660080000000 1.0
C      1  0.4869800000000  0.4238780000000  0.4748950000000 1.0
C      1  0.5181290000000  0.4281560000000  0.4707300000000 1.0
C      1  0.5323860000000  0.4223350000000  0.5013860000000 1.0
C      1  0.5078080000000  0.4193010000000  0.5231230000000 1.0
C      1  0.4790120000000  0.4239650000000  0.5064690000000 1.0
END
