TITL C-3578201-9217-526 -2.6971601320923e-06 125000 -1098.36122031507 0 0 176 (C1) n - 1
REM
REM in /home/bkarasulu/work/CARBON/AIRSS/Generating-Clusters/EDIP-Nigel-Params/with-SteepDescent/Higher-Symm/SD-CG/HFTN-CG
REM
REM
REM
REM
REM
REM ./C.cell (12c818d87b63d06a65506943cc24bca4)
REM
REM compiler GCC version 9.2.1 20190827 (Red Hat 9.2.1-1)
REM options -cpp -mtune=generic -march=x86-64 -g -O0 -fpre-include=/usr/include/finclude/math-vector-fortran.h
REM seed 2085893973 -1180039463 1332208510 -239502289 -673808642 839810682 -783625420 -601144078 -1881444296 -779043995 -1131692606 27153739 171859119 793002024 -1102072475 779361822 -1272406619 -1683868362 -1475780238 -1996362121 823017637 1666125254 -2064070447 157076928 -632199862 1901824786 370517104 52508612 -1361118513 1364618083 1410064289 2119624165 1872971982
REM
CELL 1.54180   50.00000   50.00000   50.00000   90.00000   90.00000   90.00000
LATT -1
SFAC C  
C      1  0.5729040000000  0.5191140000000  0.5135430000000 1.0
C      1  0.5563200000000  0.4504830000000  0.5213370000000 1.0
C      1  0.4947820000000  0.4261550000000  0.5232960000000 1.0
C      1  0.4503100000000  0.4526990000000  0.5249400000000 1.0
C      1  0.4288230000000  0.5203030000000  0.5205560000000 1.0
C      1  0.4694440000000  0.5653380000000  0.5193090000000 1.0
C      1  0.5310990000000  0.5640260000000  0.5204010000000 1.0
C      1  0.4433740000000  0.5979780000000  0.4736760000000 1.0
C      1  0.5420250000000  0.6047430000000  0.4784500000000 1.0
C      1  0.6125850000000  0.5354550000000  0.4732990000000 1.0
C      1  0.5925820000000  0.4360650000000  0.4737990000000 1.0
C      1  0.5062980000000  0.3896830000000  0.4756910000000 1.0
C      1  0.4140390000000  0.4238740000000  0.4753340000000 1.0
C      1  0.3898530000000  0.5174630000000  0.4720160000000 1.0
C      1  0.5166240000000  0.4392520000000  0.5368910000000 1.0
C      1  0.4706100000000  0.4548590000000  0.5466320000000 1.0
C      1  0.4436040000000  0.4992810000000  0.5346200000000 1.0
C      1  0.4584020000000  0.5407560000000  0.5382430000000 1.0
C      1  0.5047590000000  0.5579470000000  0.5343460000000 1.0
C      1  0.5539020000000  0.5284000000000  0.5330430000000 1.0
C      1  0.5554900000000  0.4771880000000  0.5340040000000 1.0
C      1  0.5052260000000  0.5746380000000  0.4939900000000 1.0
C      1  0.5652810000000  0.5402840000000  0.4915960000000 1.0
C      1  0.5658860000000  0.4822810000000  0.4916120000000 1.0
C      1  0.5366020000000  0.4399350000000  0.4976910000000 1.0
C      1  0.4621780000000  0.4428980000000  0.5000460000000 1.0
C      1  0.4364490000000  0.4869810000000  0.4927580000000 1.0
C      1  0.4422120000000  0.5379470000000  0.4987810000000 1.0
C      1  0.5143460000000  0.4660820000000  0.5224750000000 1.0
C      1  0.4872530000000  0.4767720000000  0.5312770000000 1.0
C      1  0.4666320000000  0.4932930000000  0.5161100000000 1.0
C      1  0.4756570000000  0.5222170000000  0.5149000000000 1.0
C      1  0.5027340000000  0.5283690000000  0.5259660000000 1.0
C      1  0.5297430000000  0.5158700000000  0.5246870000000 1.0
C      1  0.5355620000000  0.4885890000000  0.5147940000000 1.0
C      1  0.4708420000000  0.5939150000000  0.4647760000000 1.0
C      1  0.5571010000000  0.5819410000000  0.4677660000000 1.0
C      1  0.6045450000000  0.5086710000000  0.4625970000000 1.0
C      1  0.5666930000000  0.4276050000000  0.4625360000000 1.0
C      1  0.4838410000000  0.4064290000000  0.4673430000000 1.0
C      1  0.4136580000000  0.4503600000000  0.4628290000000 1.0
C      1  0.4097810000000  0.5357950000000  0.4610150000000 1.0
C      1  0.5190950000000  0.5825980000000  0.4418120000000 1.0
C      1  0.5787530000000  0.5401060000000  0.4381360000000 1.0
C      1  0.5767260000000  0.4646550000000  0.4375980000000 1.0
C      1  0.5167490000000  0.4177760000000  0.4389310000000 1.0
C      1  0.4418040000000  0.4302130000000  0.4345910000000 1.0
C      1  0.4138610000000  0.4989480000000  0.4337720000000 1.0
C      1  0.4470620000000  0.5674400000000  0.4371430000000 1.0
C      1  0.5478860000000  0.5001810000000  0.4120250000000 1.0
C      1  0.5070190000000  0.4579850000000  0.4044100000000 1.0
C      1  0.4778900000000  0.4504960000000  0.4019900000000 1.0
C      1  0.4599500000000  0.4744530000000  0.3992370000000 1.0
C      1  0.4766340000000  0.5376660000000  0.4001670000000 1.0
C      1  0.5025540000000  0.5527670000000  0.4031740000000 1.0
C      1  0.5310070000000  0.5352900000000  0.4116500000000 1.0
C      1  0.4056940000000  0.4824580000000  0.4998220000000 1.0
C      1  0.4224450000000  0.5639790000000  0.5003070000000 1.0
C      1  0.5041310000000  0.6042960000000  0.5053050000000 1.0
C      1  0.5865180000000  0.5624080000000  0.5019200000000 1.0
C      1  0.5950860000000  0.4736360000000  0.5012030000000 1.0
C      1  0.5427780000000  0.4016980000000  0.5036470000000 1.0
C      1  0.4502500000000  0.4137420000000  0.5032090000000 1.0
C      1  0.4414680000000  0.6003620000000  0.5474270000000 1.0
C      1  0.5404620000000  0.6000880000000  0.5533350000000 1.0
C      1  0.6078790000000  0.5321240000000  0.5476980000000 1.0
C      1  0.5897630000000  0.4361600000000  0.5529420000000 1.0
C      1  0.5066680000000  0.3834270000000  0.5497940000000 1.0
C      1  0.4189030000000  0.4290520000000  0.5538480000000 1.0
C      1  0.3858180000000  0.5173950000000  0.5481520000000 1.0
C      1  0.5515170000000  0.5133700000000  0.5918590000000 1.0
C      1  0.5343230000000  0.4399970000000  0.5964390000000 1.0
C      1  0.5054640000000  0.4414560000000  0.5941180000000 1.0
C      1  0.4510350000000  0.4868480000000  0.5913730000000 1.0
C      1  0.4473340000000  0.5191010000000  0.5878970000000 1.0
C      1  0.4723670000000  0.5482080000000  0.5865190000000 1.0
C      1  0.5440550000000  0.5416160000000  0.5951990000000 1.0
C      1  0.4677260000000  0.4237810000000  0.5583530000000 1.0
C      1  0.4227410000000  0.4837100000000  0.5489560000000 1.0
C      1  0.4302920000000  0.5520880000000  0.5513990000000 1.0
C      1  0.4952410000000  0.5820010000000  0.5531820000000 1.0
C      1  0.5636890000000  0.5515390000000  0.5491120000000 1.0
C      1  0.5796270000000  0.4834010000000  0.5511000000000 1.0
C      1  0.5360350000000  0.4220970000000  0.5516840000000 1.0
C      1  0.4568960000000  0.4010920000000  0.4764370000000 1.0
C      1  0.3955570000000  0.4698720000000  0.4736480000000 1.0
C      1  0.4100080000000  0.5627220000000  0.4721260000000 1.0
C      1  0.4918810000000  0.6115620000000  0.4751810000000 1.0
C      1  0.5846960000000  0.5765280000000  0.4748370000000 1.0
C      1  0.6101590000000  0.4818990000000  0.4746900000000 1.0
C      1  0.5516980000000  0.4057900000000  0.4744740000000 1.0
C      1  0.3983630000000  0.5279570000000  0.5243460000000 1.0
C      1  0.4580030000000  0.5951470000000  0.5243190000000 1.0
C      1  0.5470250000000  0.5896980000000  0.5272480000000 1.0
C      1  0.6033220000000  0.5196120000000  0.5223130000000 1.0
C      1  0.5778830000000  0.4305110000000  0.5272390000000 1.0
C      1  0.4959440000000  0.3937400000000  0.5252890000000 1.0
C      1  0.4220270000000  0.4419420000000  0.5280140000000 1.0
C      1  0.4757530000000  0.4780570000000  0.4698920000000 1.0
C      1  0.4715290000000  0.5079090000000  0.4743450000000 1.0
C      1  0.4896650000000  0.5328170000000  0.4741840000000 1.0
C      1  0.5175500000000  0.5277030000000  0.4840630000000 1.0
C      1  0.5334390000000  0.5071600000000  0.4695070000000 1.0
C      1  0.5240120000000  0.4786710000000  0.4732410000000 1.0
C      1  0.4992610000000  0.4675990000000  0.4833940000000 1.0
C      1  0.4204550000000  0.4198280000000  0.5049630000000 1.0
C      1  0.3909820000000  0.5092270000000  0.5006690000000 1.0
C      1  0.4375200000000  0.5903550000000  0.5013840000000 1.0
C      1  0.5347940000000  0.6091520000000  0.5069760000000 1.0
C      1  0.6103520000000  0.5424630000000  0.5023250000000 1.0
C      1  0.5958880000000  0.4427230000000  0.5032470000000 1.0
C      1  0.5160320000000  0.3877490000000  0.5033170000000 1.0
C      1  0.5737090000000  0.5738810000000  0.5285080000000 1.0
C      1  0.6012160000000  0.4885860000000  0.5277390000000 1.0
C      1  0.5563740000000  0.4077910000000  0.5307960000000 1.0
C      1  0.4632540000000  0.4027270000000  0.5312360000000 1.0
C      1  0.4059690000000  0.4676520000000  0.5271230000000 1.0
C      1  0.4080310000000  0.5580150000000  0.5275350000000 1.0
C      1  0.4874580000000  0.6035550000000  0.5313390000000 1.0
C      1  0.4804260000000  0.4719280000000  0.4409510000000 1.0
C      1  0.4646520000000  0.4910260000000  0.4235930000000 1.0
C      1  0.4692780000000  0.5242110000000  0.4251970000000 1.0
C      1  0.4918710000000  0.5369750000000  0.4435960000000 1.0
C      1  0.5147020000000  0.5218630000000  0.4324750000000 1.0
C      1  0.5276780000000  0.4960630000000  0.4328840000000 1.0
C      1  0.5102150000000  0.4707350000000  0.4316890000000 1.0
C      1  0.4704380000000  0.5740490000000  0.5732340000000 1.0
C      1  0.5392880000000  0.5565470000000  0.5692240000000 1.0
C      1  0.5759900000000  0.5091920000000  0.5726470000000 1.0
C      1  0.5449620000000  0.4476710000000  0.5703140000000 1.0
C      1  0.4939240000000  0.4181880000000  0.5789220000000 1.0
C      1  0.4415420000000  0.4677640000000  0.5689140000000 1.0
C      1  0.4238120000000  0.5289910000000  0.5724630000000 1.0
C      1  0.5165700000000  0.4033680000000  0.5661830000000 1.0
C      1  0.4400280000000  0.4358500000000  0.5707300000000 1.0
C      1  0.4070270000000  0.5066810000000  0.5624840000000 1.0
C      1  0.4432100000000  0.5775020000000  0.5626160000000 1.0
C      1  0.5232400000000  0.5829270000000  0.5662280000000 1.0
C      1  0.5855960000000  0.5360690000000  0.5631530000000 1.0
C      1  0.5757950000000  0.4558670000000  0.5667470000000 1.0
C      1  0.5313460000000  0.4386490000000  0.4245760000000 1.0
C      1  0.4706280000000  0.4390560000000  0.4303580000000 1.0
C      1  0.4283570000000  0.4766330000000  0.4199690000000 1.0
C      1  0.4441060000000  0.5419690000000  0.4217720000000 1.0
C      1  0.4963860000000  0.5666910000000  0.4310810000000 1.0
C      1  0.5532810000000  0.5505960000000  0.4274240000000 1.0
C      1  0.5714280000000  0.4915890000000  0.4267660000000 1.0
C      1  0.4717640000000  0.5820780000000  0.4377620000000 1.0
C      1  0.5460530000000  0.5741360000000  0.4419890000000 1.0
C      1  0.5866350000000  0.5124030000000  0.4395710000000 1.0
C      1  0.5594200000000  0.4408460000000  0.4366860000000 1.0
C      1  0.4882250000000  0.4175230000000  0.4410250000000 1.0
C      1  0.4219450000000  0.4514460000000  0.4346100000000 1.0
C      1  0.4197010000000  0.5278670000000  0.4341060000000 1.0
C      1  0.5003720000000  0.4377410000000  0.4934030000000 1.0
C      1  0.4519870000000  0.4635640000000  0.4803690000000 1.0
C      1  0.4436960000000  0.5140540000000  0.4795520000000 1.0
C      1  0.4798980000000  0.5585790000000  0.4900890000000 1.0
C      1  0.5354430000000  0.5514380000000  0.4914860000000 1.0
C      1  0.5633120000000  0.5097330000000  0.4764590000000 1.0
C      1  0.5461140000000  0.4625260000000  0.4800990000000 1.0
C      1  0.4759720000000  0.5094510000000  0.5632810000000 1.0
C      1  0.4895780000000  0.5346030000000  0.5684570000000 1.0
C      1  0.5206750000000  0.5312670000000  0.5656180000000 1.0
C      1  0.5379590000000  0.5029110000000  0.5656240000000 1.0
C      1  0.5243260000000  0.4726860000000  0.5647700000000 1.0
C      1  0.4976500000000  0.4660220000000  0.5797910000000 1.0
C      1  0.4802190000000  0.4892820000000  0.5878170000000 1.0
C      1  0.5173220000000  0.6032810000000  0.4622950000000 1.0
C      1  0.5964410000000  0.5553200000000  0.4569760000000 1.0
C      1  0.5993710000000  0.4599320000000  0.4569530000000 1.0
C      1  0.5280770000000  0.3993230000000  0.4586450000000 1.0
C      1  0.4355200000000  0.4117190000000  0.4582640000000 1.0
C      1  0.3934790000000  0.4933140000000  0.4551390000000 1.0
C      1  0.4276340000000  0.5800790000000  0.4557210000000 1.0
C      1  0.4984490000000  0.4966540000000  0.5484140000000 1.0
END
