TITL C-3578200-9634-468 -1.90162176662413e-06 125000 -367.29479239989 0 0 61 (C1) n - 1
REM
REM in /home/bkarasulu/work/CARBON/AIRSS/Generating-Clusters/EDIP-Nigel-Params/with-SteepDescent/Higher-Symm/SD-CG/HFTN-CG
REM
REM
REM
REM
REM
REM ./C.cell (12c818d87b63d06a65506943cc24bca4)
REM
REM compiler GCC version 9.2.1 20190827 (Red Hat 9.2.1-1)
REM options -cpp -mtune=generic -march=x86-64 -g -O0 -fpre-include=/usr/include/finclude/math-vector-fortran.h
REM seed 1924827484 196376610 1658863648 2095720426 559661422 377316940 -1264288773 -842702129 35221287 1161452231 -79303438 398742664 -570750606 1543279718 176476615 -1812737097 -1151807301 -961661855 -1169955635 1009742810 -876635863 717038355 -804884591 316683765 -466126641 -243806573 293243597 -304509592 335376610 827433999 1013892568 709429236 -1763414046
REM
CELL 1.54180   50.00000   50.00000   50.00000   90.00000   90.00000   90.00000
LATT -1
SFAC C  
C      1  0.5110890000000  0.5233940000000  0.4195980000000 1.0
C      1  0.4234560000000  0.5083690000000  0.5259150000000 1.0
C      1  0.5248640000000  0.4208210000000  0.5028660000000 1.0
C      1  0.4763120000000  0.5259140000000  0.5828200000000 1.0
C      1  0.4960960000000  0.4823720000000  0.5787600000000 1.0
C      1  0.4916410000000  0.4780600000000  0.4179070000000 1.0
C      1  0.5690100000000  0.5046800000000  0.4756730000000 1.0
C      1  0.4203900000000  0.4969740000000  0.4776140000000 1.0
C      1  0.5790570000000  0.5037280000000  0.5252630000000 1.0
C      1  0.4842380000000  0.4361840000000  0.4958200000000 1.0
C      1  0.5305370000000  0.5752390000000  0.4776930000000 1.0
C      1  0.4894360000000  0.5691180000000  0.5018920000000 1.0
C      1  0.5652440000000  0.5087770000000  0.5498320000000 1.0
C      1  0.5524170000000  0.5649320000000  0.4891470000000 1.0
C      1  0.4798280000000  0.5448960000000  0.5629450000000 1.0
C      1  0.4318940000000  0.4897050000000  0.4526360000000 1.0
C      1  0.5425120000000  0.5101570000000  0.4627630000000 1.0
C      1  0.4456400000000  0.5064910000000  0.5448800000000 1.0
C      1  0.4613460000000  0.5646800000000  0.4996620000000 1.0
C      1  0.5487690000000  0.4360810000000  0.5038010000000 1.0
C      1  0.4669090000000  0.4601560000000  0.4912280000000 1.0
C      1  0.5053190000000  0.5456160000000  0.4334760000000 1.0
C      1  0.4936830000000  0.4512170000000  0.4271890000000 1.0
C      1  0.4926520000000  0.4625240000000  0.5590590000000 1.0
C      1  0.4947490000000  0.5216760000000  0.4752060000000 1.0
C      1  0.4641980000000  0.4840690000000  0.5346410000000 1.0
C      1  0.5205010000000  0.4617610000000  0.4929270000000 1.0
C      1  0.5006180000000  0.5147970000000  0.5495570000000 1.0
C      1  0.5119140000000  0.4791160000000  0.5177960000000 1.0
C      1  0.5083160000000  0.4716810000000  0.4663150000000 1.0
C      1  0.5227600000000  0.5145970000000  0.4831120000000 1.0
C      1  0.4628990000000  0.5053580000000  0.4702010000000 1.0
C      1  0.5347160000000  0.4991050000000  0.5255070000000 1.0
C      1  0.4794640000000  0.4803070000000  0.4745560000000 1.0
C      1  0.5306250000000  0.5269130000000  0.5087500000000 1.0
C      1  0.4843120000000  0.5242430000000  0.5045240000000 1.0
C      1  0.5209940000000  0.4982770000000  0.5772250000000 1.0
C      1  0.5775740000000  0.5238940000000  0.5008660000000 1.0
C      1  0.5036430000000  0.5453220000000  0.5159700000000 1.0
C      1  0.4677790000000  0.4922020000000  0.4212230000000 1.0
C      1  0.5147060000000  0.4957720000000  0.4233270000000 1.0
C      1  0.4715850000000  0.4981720000000  0.5851560000000 1.0
C      1  0.4327000000000  0.5208150000000  0.4964620000000 1.0
C      1  0.5655360000000  0.4855490000000  0.5002350000000 1.0
C      1  0.4239560000000  0.4839780000000  0.5065600000000 1.0
C      1  0.5027850000000  0.5714150000000  0.4755440000000 1.0
C      1  0.5012270000000  0.4267880000000  0.4734100000000 1.0
C      1  0.5021280000000  0.4317250000000  0.5203850000000 1.0
C      1  0.5058730000000  0.4462960000000  0.4520940000000 1.0
C      1  0.4526860000000  0.5052530000000  0.4405940000000 1.0
C      1  0.4493230000000  0.4689210000000  0.5132760000000 1.0
C      1  0.5081530000000  0.4564410000000  0.5366220000000 1.0
C      1  0.5025500000000  0.5450270000000  0.5456640000000 1.0
C      1  0.4950320000000  0.5476570000000  0.4593580000000 1.0
C      1  0.5403120000000  0.4964750000000  0.5555360000000 1.0
C      1  0.4483890000000  0.4908020000000  0.5693590000000 1.0
C      1  0.5286350000000  0.4881120000000  0.4481090000000 1.0
C      1  0.5506220000000  0.4609900000000  0.4908470000000 1.0
C      1  0.4583430000000  0.5368690000000  0.5009050000000 1.0
C      1  0.5554160000000  0.5430670000000  0.5059430000000 1.0
C      1  0.4887370000000  0.4995980000000  0.5247020000000 1.0
END
