TITL C-3578208-4450-575 -1.1165179781165e-06 125000 -288.155370652275 0 0 49 (C1) n - 1
REM
REM in /home/bkarasulu/work/CARBON/AIRSS/Generating-Clusters/EDIP-Nigel-Params/with-SteepDescent/Higher-Symm/SD-CG/HFTN-CG
REM
REM
REM
REM
REM
REM ./C.cell (12c818d87b63d06a65506943cc24bca4)
REM
REM compiler GCC version 9.2.1 20190827 (Red Hat 9.2.1-1)
REM options -cpp -mtune=generic -march=x86-64 -g -O0 -fpre-include=/usr/include/finclude/math-vector-fortran.h
REM seed 250524077 -1422205479 -161890010 -349304425 83665377 -1348855648 -1676283347 -70100838 756618246 293233385 -267881115 -1478335840 -98378422 93773066 1978406795 -528752122 1976458241 -932673877 2043776117 1762998730 -1079793956 1682375412 1705141904 1812951690 -1709180741 -1748607700 -1578632106 635130847 476728290 1538515113 1851561370 383897492 491374569
REM
CELL 1.54180   50.00000   50.00000   50.00000   90.00000   90.00000   90.00000
LATT -1
SFAC C  
C      1  0.4649940000000  0.5294050000000  0.4340980000000 1.0
C      1  0.5196220000000  0.5292290000000  0.4237630000000 1.0
C      1  0.5361540000000  0.5243800000000  0.4471700000000 1.0
C      1  0.5627970000000  0.5273050000000  0.4879960000000 1.0
C      1  0.5612580000000  0.5260030000000  0.5163750000000 1.0
C      1  0.5500280000000  0.5333570000000  0.5642370000000 1.0
C      1  0.5024830000000  0.5275800000000  0.5691350000000 1.0
C      1  0.4736420000000  0.5284370000000  0.5674050000000 1.0
C      1  0.4309770000000  0.5293600000000  0.5340280000000 1.0
C      1  0.4398890000000  0.5229770000000  0.5070300000000 1.0
C      1  0.4433240000000  0.5314060000000  0.4532940000000 1.0
C      1  0.4547880000000  0.5520290000000  0.4707600000000 1.0
C      1  0.4810580000000  0.5524620000000  0.4431900000000 1.0
C      1  0.5080200000000  0.5552310000000  0.4334770000000 1.0
C      1  0.5379970000000  0.5518530000000  0.4570740000000 1.0
C      1  0.5500940000000  0.5528070000000  0.4829570000000 1.0
C      1  0.5482000000000  0.5520180000000  0.5215950000000 1.0
C      1  0.5376950000000  0.5538760000000  0.5488700000000 1.0
C      1  0.5087530000000  0.5515850000000  0.5530550000000 1.0
C      1  0.4704410000000  0.5534920000000  0.5525420000000 1.0
C      1  0.4466970000000  0.5551310000000  0.5362330000000 1.0
C      1  0.4465360000000  0.5499380000000  0.4981180000000 1.0
C      1  0.5389760000000  0.4772770000000  0.4626130000000 1.0
C      1  0.5465870000000  0.4708500000000  0.4891340000000 1.0
C      1  0.5439890000000  0.4756830000000  0.5169200000000 1.0
C      1  0.5193690000000  0.4631650000000  0.5293840000000 1.0
C      1  0.5020380000000  0.4826670000000  0.5446350000000 1.0
C      1  0.4728440000000  0.4831250000000  0.5427160000000 1.0
C      1  0.4590880000000  0.4721100000000  0.5203390000000 1.0
C      1  0.4486660000000  0.4760020000000  0.4938650000000 1.0
C      1  0.4650240000000  0.4731650000000  0.4704670000000 1.0
C      1  0.4851360000000  0.4846180000000  0.4537920000000 1.0
C      1  0.5117830000000  0.4746800000000  0.4542640000000 1.0
C      1  0.5491650000000  0.5022880000000  0.5287440000000 1.0
C      1  0.5438340000000  0.5065850000000  0.5571280000000 1.0
C      1  0.5154830000000  0.5010830000000  0.5632920000000 1.0
C      1  0.4591490000000  0.5044440000000  0.5575720000000 1.0
C      1  0.4317470000000  0.5092380000000  0.5538120000000 1.0
C      1  0.4323360000000  0.5002350000000  0.4901960000000 1.0
C      1  0.4322170000000  0.5077980000000  0.4632760000000 1.0
C      1  0.4792540000000  0.5028600000000  0.4310810000000 1.0
C      1  0.5019440000000  0.5089620000000  0.4157570000000 1.0
C      1  0.5533600000000  0.5013340000000  0.4533580000000 1.0
C      1  0.5746710000000  0.5083050000000  0.4707730000000 1.0
C      1  0.5000600000000  0.4664230000000  0.4953250000000 1.0
C      1  0.5005960000000  0.5455110000000  0.4981750000000 1.0
C      1  0.4972010000000  0.4938240000000  0.5018000000000 1.0
C      1  0.5006460000000  0.5199720000000  0.4965550000000 1.0
C      1  0.5046700000000  0.4449480000000  0.5124220000000 1.0
END
