TITL C-3578194-7807-240 -1.43237224979076e-06 125000 -291.611148769169 0 0 48 (Ci) n - 1
REM
REM in /home/bkarasulu/work/CARBON/AIRSS/Generating-Clusters/EDIP-Nigel-Params/with-SteepDescent/Higher-Symm/SD-CG/HFTN-CG
REM
REM
REM
REM
REM
REM ./C.cell (12c818d87b63d06a65506943cc24bca4)
REM
REM compiler GCC version 9.2.1 20190827 (Red Hat 9.2.1-1)
REM options -cpp -mtune=generic -march=x86-64 -g -O0 -fpre-include=/usr/include/finclude/math-vector-fortran.h
REM seed -704349007 -1384711908 1199019625 334194973 577100992 -176269430 1641880552 -1423269964 -2087646536 1089327770 131106284 983769974 -968476938 1460478868 76629584 1583126958 -1886031945 -1067878939 1535292451 -1964283972 -1163126321 -755511780 540068291 -1443330187 -989054538 -1404102185 -1999951885 -1847145451 -1615169399 1806061362 1728870104 575590930 -1086430718
REM
CELL 1.54180   50.00000   50.00000   50.00000   90.00000   90.00000   90.00000
LATT -1
SFAC C  
C      1  0.5173640000000  0.4487800000000  0.4910510000000 1.0
C      1  0.4826360000000  0.5512200000000  0.5089490000000 1.0
C      1  0.4763000000000  0.5110310000000  0.4318490000000 1.0
C      1  0.5237000000000  0.4889690000000  0.5681510000000 1.0
C      1  0.4840040000000  0.4391870000000  0.5285040000000 1.0
C      1  0.5159960000000  0.5608130000000  0.4714960000000 1.0
C      1  0.4833030000000  0.5193840000000  0.5651900000000 1.0
C      1  0.5166970000000  0.4806160000000  0.4348100000000 1.0
C      1  0.4569720000000  0.5377530000000  0.5055520000000 1.0
C      1  0.5430280000000  0.4622470000000  0.4944480000000 1.0
C      1  0.5091600000000  0.4729070000000  0.5473180000000 1.0
C      1  0.4908400000000  0.5270930000000  0.4526820000000 1.0
C      1  0.4890630000000  0.5624820000000  0.4826530000000 1.0
C      1  0.5109370000000  0.4375180000000  0.5173470000000 1.0
C      1  0.5024670000000  0.4904940000000  0.5238190000000 1.0
C      1  0.4975330000000  0.5095060000000  0.4761810000000 1.0
C      1  0.4601320000000  0.4762370000000  0.5491560000000 1.0
C      1  0.5398680000000  0.5237630000000  0.4508440000000 1.0
C      1  0.5331070000000  0.4950190000000  0.4543670000000 1.0
C      1  0.4668930000000  0.5049810000000  0.5456330000000 1.0
C      1  0.5501400000000  0.4848240000000  0.4769650000000 1.0
C      1  0.4498600000000  0.5151760000000  0.5230350000000 1.0
C      1  0.5159060000000  0.5287360000000  0.4915740000000 1.0
C      1  0.4840940000000  0.4712640000000  0.5084260000000 1.0
C      1  0.5624830000000  0.5117830000000  0.5461360000000 1.0
C      1  0.4375170000000  0.4882170000000  0.4538640000000 1.0
C      1  0.4493310000000  0.5357290000000  0.4772280000000 1.0
C      1  0.5506690000000  0.4642710000000  0.5227720000000 1.0
C      1  0.5052380000000  0.4406370000000  0.4673440000000 1.0
C      1  0.4947620000000  0.5593630000000  0.5326560000000 1.0
C      1  0.4541130000000  0.4705160000000  0.5203420000000 1.0
C      1  0.5458870000000  0.5294840000000  0.4796580000000 1.0
C      1  0.5089490000000  0.5362280000000  0.5416020000000 1.0
C      1  0.4910510000000  0.4637720000000  0.4583980000000 1.0
C      1  0.4893930000000  0.4854640000000  0.4268740000000 1.0
C      1  0.5106070000000  0.5145360000000  0.5731260000000 1.0
C      1  0.5182970000000  0.5165700000000  0.5199330000000 1.0
C      1  0.4817030000000  0.4834300000000  0.4800670000000 1.0
C      1  0.4831140000000  0.4572760000000  0.5526960000000 1.0
C      1  0.5168860000000  0.5427240000000  0.4473040000000 1.0
C      1  0.5510610000000  0.4864410000000  0.5539950000000 1.0
C      1  0.4489390000000  0.5135590000000  0.4460050000000 1.0
C      1  0.5285390000000  0.4520300000000  0.5370080000000 1.0
C      1  0.4714610000000  0.5479700000000  0.4629920000000 1.0
C      1  0.4395060000000  0.4925470000000  0.5066330000000 1.0
C      1  0.5604940000000  0.5074530000000  0.4933670000000 1.0
C      1  0.5476900000000  0.5078480000000  0.5212980000000 1.0
C      1  0.4523100000000  0.4921520000000  0.4787020000000 1.0
END
