TITL C-3578207-9274-81 -6.23720956389072e-07 125000 -916.939705546214 0 0 146 (C1) n - 1
REM
REM in /home/bkarasulu/work/CARBON/AIRSS/Generating-Clusters/EDIP-Nigel-Params/with-SteepDescent/Higher-Symm/SD-CG/HFTN-CG
REM
REM
REM
REM
REM
REM ./C.cell (12c818d87b63d06a65506943cc24bca4)
REM
REM compiler GCC version 9.2.1 20190827 (Red Hat 9.2.1-1)
REM options -cpp -mtune=generic -march=x86-64 -g -O0 -fpre-include=/usr/include/finclude/math-vector-fortran.h
REM seed 738061203 1386166807 231540659 -1458271504 -1439341164 -744512704 347724390 -1507900126 239003396 851236168 2077475323 814365198 -1989648520 -1435325996 268323268 1536046589 -254400078 -289905677 1339095515 1354671028 -1803910593 1881873779 -1448582866 -2092129032 -537092062 1973823390 2054431866 -731868237 2137201014 -1391237459 392739823 -1613258096 -286429513
REM
CELL 1.54180   50.00000   50.00000   50.00000   90.00000   90.00000   90.00000
LATT -1
SFAC C  
C      1  0.4419050000000  0.4850000000000  0.4550710000000 1.0
C      1  0.4550890000000  0.5648530000000  0.4499190000000 1.0
C      1  0.5373290000000  0.5516750000000  0.4550680000000 1.0
C      1  0.5690450000000  0.4742960000000  0.4502810000000 1.0
C      1  0.5028440000000  0.4221670000000  0.4500610000000 1.0
C      1  0.4684400000000  0.3983560000000  0.4830720000000 1.0
C      1  0.3960360000000  0.5005460000000  0.4801620000000 1.0
C      1  0.4643830000000  0.6033620000000  0.4816620000000 1.0
C      1  0.5837110000000  0.5606010000000  0.4800330000000 1.0
C      1  0.5780920000000  0.4309410000000  0.4757690000000 1.0
C      1  0.4636220000000  0.4479500000000  0.4221600000000 1.0
C      1  0.4375830000000  0.5290210000000  0.4238320000000 1.0
C      1  0.5033860000000  0.5646490000000  0.4226490000000 1.0
C      1  0.5660140000000  0.5139960000000  0.4228390000000 1.0
C      1  0.5389230000000  0.4380260000000  0.4232840000000 1.0
C      1  0.4895090000000  0.3976980000000  0.4641080000000 1.0
C      1  0.4182270000000  0.4836910000000  0.4734580000000 1.0
C      1  0.4481490000000  0.5919850000000  0.4620220000000 1.0
C      1  0.5562370000000  0.5637810000000  0.4742540000000 1.0
C      1  0.5867470000000  0.4572930000000  0.4669980000000 1.0
C      1  0.5108300000000  0.4180240000000  0.5655520000000 1.0
C      1  0.4298430000000  0.4674170000000  0.5633720000000 1.0
C      1  0.4382160000000  0.5634110000000  0.5676080000000 1.0
C      1  0.5299330000000  0.5589720000000  0.5645980000000 1.0
C      1  0.5819710000000  0.4796810000000  0.5608350000000 1.0
C      1  0.5350630000000  0.5265520000000  0.5200830000000 1.0
C      1  0.5324740000000  0.4774600000000  0.5194340000000 1.0
C      1  0.4907280000000  0.4634440000000  0.5233430000000 1.0
C      1  0.4591860000000  0.4978940000000  0.5296570000000 1.0
C      1  0.4844500000000  0.5377560000000  0.5290370000000 1.0
C      1  0.4708080000000  0.4432370000000  0.5647250000000 1.0
C      1  0.4330710000000  0.5150700000000  0.5650280000000 1.0
C      1  0.4849260000000  0.5706600000000  0.5687150000000 1.0
C      1  0.5633430000000  0.5261770000000  0.5648130000000 1.0
C      1  0.5455620000000  0.4510550000000  0.5592640000000 1.0
C      1  0.5127710000000  0.4504970000000  0.4162940000000 1.0
C      1  0.4665360000000  0.4725630000000  0.4075760000000 1.0
C      1  0.4654630000000  0.5353070000000  0.4152200000000 1.0
C      1  0.5166320000000  0.5420340000000  0.4107560000000 1.0
C      1  0.5467290000000  0.4949180000000  0.4144800000000 1.0
C      1  0.5804990000000  0.5057610000000  0.5516930000000 1.0
C      1  0.5350470000000  0.4250030000000  0.5541150000000 1.0
C      1  0.4443830000000  0.4458180000000  0.5542740000000 1.0
C      1  0.4245990000000  0.5414600000000  0.5572050000000 1.0
C      1  0.5098390000000  0.5764700000000  0.5556510000000 1.0
C      1  0.4518120000000  0.4363240000000  0.4692050000000 1.0
C      1  0.4192850000000  0.5366300000000  0.4701180000000 1.0
C      1  0.5023150000000  0.5853850000000  0.4680960000000 1.0
C      1  0.5872400000000  0.5185780000000  0.4652750000000 1.0
C      1  0.5486600000000  0.4227880000000  0.4710720000000 1.0
C      1  0.3983150000000  0.5521900000000  0.4874030000000 1.0
C      1  0.5144920000000  0.6077130000000  0.4872740000000 1.0
C      1  0.6114720000000  0.5130850000000  0.4860450000000 1.0
C      1  0.5483040000000  0.3971760000000  0.4886530000000 1.0
C      1  0.4239460000000  0.4223070000000  0.4888730000000 1.0
C      1  0.5616060000000  0.5225620000000  0.5071820000000 1.0
C      1  0.5421870000000  0.4507170000000  0.5112770000000 1.0
C      1  0.4738640000000  0.4412110000000  0.5149780000000 1.0
C      1  0.4379650000000  0.5213350000000  0.5147920000000 1.0
C      1  0.4895120000000  0.5641040000000  0.5139570000000 1.0
C      1  0.4831830000000  0.4873210000000  0.4252620000000 1.0
C      1  0.4837150000000  0.5164400000000  0.4310470000000 1.0
C      1  0.5122170000000  0.5220360000000  0.4304780000000 1.0
C      1  0.5277900000000  0.4959820000000  0.4370230000000 1.0
C      1  0.5067540000000  0.4725460000000  0.4362030000000 1.0
C      1  0.5169450000000  0.5183030000000  0.4983210000000 1.0
C      1  0.5216140000000  0.4890910000000  0.4942050000000 1.0
C      1  0.4938550000000  0.4767270000000  0.4971680000000 1.0
C      1  0.4734520000000  0.4976520000000  0.5004540000000 1.0
C      1  0.4899540000000  0.5202770000000  0.5068280000000 1.0
C      1  0.5822420000000  0.4269830000000  0.5055090000000 1.0
C      1  0.4618020000000  0.3984180000000  0.5108460000000 1.0
C      1  0.3962450000000  0.5072600000000  0.5082980000000 1.0
C      1  0.4701820000000  0.6036570000000  0.5092390000000 1.0
C      1  0.5861490000000  0.5527550000000  0.5081430000000 1.0
C      1  0.5331800000000  0.4180140000000  0.4446590000000 1.0
C      1  0.4481700000000  0.4547450000000  0.4470230000000 1.0
C      1  0.4291470000000  0.5495820000000  0.4441390000000 1.0
C      1  0.5195070000000  0.5755410000000  0.4452150000000 1.0
C      1  0.5845690000000  0.4999510000000  0.4412350000000 1.0
C      1  0.5190380000000  0.5122480000000  0.5915320000000 1.0
C      1  0.5141760000000  0.4843130000000  0.5908580000000 1.0
C      1  0.4859340000000  0.4793190000000  0.5925100000000 1.0
C      1  0.4730590000000  0.5050900000000  0.5985140000000 1.0
C      1  0.4936900000000  0.5259910000000  0.5975980000000 1.0
C      1  0.4595140000000  0.5777130000000  0.5565210000000 1.0
C      1  0.5543020000000  0.5511120000000  0.5517600000000 1.0
C      1  0.5723910000000  0.4560010000000  0.5495420000000 1.0
C      1  0.4851420000000  0.4195430000000  0.5555750000000 1.0
C      1  0.4217520000000  0.4915430000000  0.5526780000000 1.0
C      1  0.4127750000000  0.5777720000000  0.4944950000000 1.0
C      1  0.5429160000000  0.6004740000000  0.4953000000000 1.0
C      1  0.6112330000000  0.4835580000000  0.4927060000000 1.0
C      1  0.5208390000000  0.3889990000000  0.4943950000000 1.0
C      1  0.4078320000000  0.4462010000000  0.4946670000000 1.0
C      1  0.4991460000000  0.6074750000000  0.5140820000000 1.0
C      1  0.6045870000000  0.5271920000000  0.5124280000000 1.0
C      1  0.5611070000000  0.4070320000000  0.5139200000000 1.0
C      1  0.4364040000000  0.4140450000000  0.5146550000000 1.0
C      1  0.3956750000000  0.5366540000000  0.5139290000000 1.0
C      1  0.4900060000000  0.4317730000000  0.4233170000000 1.0
C      1  0.4354070000000  0.5022120000000  0.4326710000000 1.0
C      1  0.4729360000000  0.5626650000000  0.4244800000000 1.0
C      1  0.5536790000000  0.5371210000000  0.4345130000000 1.0
C      1  0.5592240000000  0.4573580000000  0.4286260000000 1.0
C      1  0.5610260000000  0.5620240000000  0.5255520000000 1.0
C      1  0.5741210000000  0.4538830000000  0.5190320000000 1.0
C      1  0.4842410000000  0.4143320000000  0.5254740000000 1.0
C      1  0.4169970000000  0.4898150000000  0.5232470000000 1.0
C      1  0.4570340000000  0.5818440000000  0.5264950000000 1.0
C      1  0.5605250000000  0.5915870000000  0.4743690000000 1.0
C      1  0.6133690000000  0.4654450000000  0.4713220000000 1.0
C      1  0.5075090000000  0.3781850000000  0.4720430000000 1.0
C      1  0.3992340000000  0.4624520000000  0.4728300000000 1.0
C      1  0.4223520000000  0.5920990000000  0.4722540000000 1.0
C      1  0.5455900000000  0.5197210000000  0.5861560000000 1.0
C      1  0.5344940000000  0.4676620000000  0.5796170000000 1.0
C      1  0.4748340000000  0.4536870000000  0.5904060000000 1.0
C      1  0.4480710000000  0.5117000000000  0.5881630000000 1.0
C      1  0.4870190000000  0.5524810000000  0.5902300000000 1.0
C      1  0.4216390000000  0.5437220000000  0.5279020000000 1.0
C      1  0.5109310000000  0.5821640000000  0.5265820000000 1.0
C      1  0.5836480000000  0.5069260000000  0.5223570000000 1.0
C      1  0.5364460000000  0.4222660000000  0.5248250000000 1.0
C      1  0.4440170000000  0.4422460000000  0.5249360000000 1.0
C      1  0.5137880000000  0.5355620000000  0.4725150000000 1.0
C      1  0.5442800000000  0.4909040000000  0.4661530000000 1.0
C      1  0.5046750000000  0.4486600000000  0.4673350000000 1.0
C      1  0.4649270000000  0.4981990000000  0.4714430000000 1.0
C      1  0.4675330000000  0.5466830000000  0.4711240000000 1.0
C      1  0.4306050000000  0.5704360000000  0.5171550000000 1.0
C      1  0.5391310000000  0.5796230000000  0.5156190000000 1.0
C      1  0.5879760000000  0.4799770000000  0.5098460000000 1.0
C      1  0.5118280000000  0.4090210000000  0.5139760000000 1.0
C      1  0.4252170000000  0.4623330000000  0.5117860000000 1.0
C      1  0.5208950000000  0.4848980000000  0.5473580000000 1.0
C      1  0.4882860000000  0.4800040000000  0.5488410000000 1.0
C      1  0.4755470000000  0.5103270000000  0.5550890000000 1.0
C      1  0.5027820000000  0.5327330000000  0.5552870000000 1.0
C      1  0.5279300000000  0.5158520000000  0.5482510000000 1.0
C      1  0.4770190000000  0.4417960000000  0.4840870000000 1.0
C      1  0.4439880000000  0.5338540000000  0.4870370000000 1.0
C      1  0.4935100000000  0.5595440000000  0.4829050000000 1.0
C      1  0.5601650000000  0.5149150000000  0.4778180000000 1.0
C      1  0.5324820000000  0.4454280000000  0.4825160000000 1.0
C      1  0.4798100000000  0.5210450000000  0.4601960000000 1.0
END
