TITL C-3577082-504-53 -1.93679160329573e-07 125000 -984.627793309858 0 0 157 (C1) n - 1
REM
REM in /home/bkarasulu/work/CARBON/AIRSS/Generating-Clusters/EDIP-Nigel-Params/with-SteepDescent/Higher-Symm/SD-CG/HFTN-CG
REM
REM
REM
REM
REM
REM ./C.cell (12c818d87b63d06a65506943cc24bca4)
REM
REM compiler GCC version 9.2.1 20190827 (Red Hat 9.2.1-1)
REM options -cpp -mtune=generic -march=x86-64 -g -O0 -fpre-include=/usr/include/finclude/math-vector-fortran.h
REM seed 177565940 734712962 1588824119 -1394973692 -1090309973 1797217351 1449521811 -1186415102 657174517 -394951943 1624901964 2021451150 89087055 -362641272 1224382278 -2121764046 -1191063115 494365343 -1696689577 -2064296753 1286742243 325213728 1752265730 -1977761426 690985657 -482445916 -548099630 -1478404588 725555765 -623215400 2028520984 2061545978 887798937
REM
CELL 1.54180   50.00000   50.00000   50.00000   90.00000   90.00000   90.00000
LATT -1
SFAC C  
C      1  0.4128720000000  0.5875260000000  0.4568580000000 1.0
C      1  0.4998980000000  0.5284880000000  0.4993420000000 1.0
C      1  0.4806090000000  0.4713160000000  0.4231940000000 1.0
C      1  0.5583950000000  0.5738930000000  0.5087650000000 1.0
C      1  0.4518150000000  0.4190800000000  0.4545270000000 1.0
C      1  0.4282090000000  0.4958740000000  0.4211290000000 1.0
C      1  0.4169000000000  0.5526440000000  0.5415820000000 1.0
C      1  0.5447880000000  0.4980130000000  0.5922210000000 1.0
C      1  0.5392860000000  0.4603360000000  0.5217660000000 1.0
C      1  0.4216170000000  0.4481360000000  0.4845550000000 1.0
C      1  0.5096870000000  0.5825070000000  0.5562790000000 1.0
C      1  0.5573970000000  0.4174050000000  0.5113800000000 1.0
C      1  0.5105730000000  0.5906130000000  0.5284400000000 1.0
C      1  0.5592660000000  0.4869040000000  0.4109650000000 1.0
C      1  0.5132410000000  0.5656510000000  0.4345930000000 1.0
C      1  0.5899360000000  0.4941900000000  0.5234390000000 1.0
C      1  0.4330260000000  0.5577630000000  0.4251430000000 1.0
C      1  0.5715530000000  0.5762820000000  0.4812770000000 1.0
C      1  0.5058520000000  0.5148660000000  0.4445740000000 1.0
C      1  0.4389780000000  0.5477400000000  0.4782080000000 1.0
C      1  0.5055620000000  0.4935900000000  0.4637230000000 1.0
C      1  0.4956400000000  0.4661250000000  0.4585170000000 1.0
C      1  0.5071380000000  0.4830080000000  0.5892450000000 1.0
C      1  0.5532730000000  0.4757210000000  0.4980030000000 1.0
C      1  0.4658610000000  0.5038900000000  0.3911820000000 1.0
C      1  0.5426870000000  0.4328560000000  0.4232000000000 1.0
C      1  0.5054050000000  0.5761180000000  0.4764370000000 1.0
C      1  0.4356850000000  0.5486310000000  0.5623170000000 1.0
C      1  0.4138000000000  0.4524200000000  0.5565370000000 1.0
C      1  0.5518430000000  0.5355960000000  0.4120530000000 1.0
C      1  0.4324330000000  0.4418620000000  0.5348050000000 1.0
C      1  0.4778510000000  0.4048300000000  0.4542260000000 1.0
C      1  0.4412230000000  0.5186140000000  0.5650280000000 1.0
C      1  0.5431730000000  0.5294690000000  0.5537080000000 1.0
C      1  0.5447850000000  0.5387980000000  0.5830830000000 1.0
C      1  0.4693000000000  0.5322340000000  0.4976920000000 1.0
C      1  0.4662060000000  0.4612170000000  0.5922870000000 1.0
C      1  0.4279470000000  0.4973610000000  0.5211250000000 1.0
C      1  0.4562160000000  0.5108970000000  0.4567830000000 1.0
C      1  0.4484720000000  0.4350990000000  0.4798000000000 1.0
C      1  0.5579360000000  0.4372070000000  0.5333900000000 1.0
C      1  0.5104670000000  0.5013690000000  0.4916930000000 1.0
C      1  0.4875100000000  0.4921440000000  0.4036990000000 1.0
C      1  0.5498280000000  0.5884870000000  0.4647260000000 1.0
C      1  0.5278540000000  0.5064900000000  0.5388370000000 1.0
C      1  0.5043450000000  0.4681590000000  0.5573900000000 1.0
C      1  0.4555670000000  0.5076040000000  0.4876780000000 1.0
C      1  0.5587820000000  0.5246890000000  0.5008960000000 1.0
C      1  0.5481770000000  0.4725960000000  0.5720530000000 1.0
C      1  0.4646410000000  0.4045560000000  0.5478990000000 1.0
C      1  0.4796460000000  0.5277820000000  0.4478690000000 1.0
C      1  0.4802800000000  0.5571810000000  0.4530830000000 1.0
C      1  0.5369940000000  0.5756060000000  0.5610540000000 1.0
C      1  0.4784410000000  0.4860560000000  0.5478800000000 1.0
C      1  0.4019880000000  0.5790160000000  0.4800940000000 1.0
C      1  0.5353170000000  0.5946990000000  0.5120790000000 1.0
C      1  0.4525050000000  0.4336940000000  0.4281470000000 1.0
C      1  0.5060920000000  0.5543260000000  0.4080120000000 1.0
C      1  0.4213290000000  0.5116060000000  0.4931580000000 1.0
C      1  0.5188510000000  0.4154870000000  0.5552860000000 1.0
C      1  0.4790810000000  0.4862990000000  0.6001040000000 1.0
C      1  0.4331040000000  0.5304330000000  0.4518520000000 1.0
C      1  0.5784530000000  0.4793540000000  0.5709010000000 1.0
C      1  0.5546250000000  0.5187800000000  0.4525910000000 1.0
C      1  0.4872930000000  0.5655430000000  0.5665150000000 1.0
C      1  0.4204700000000  0.4693200000000  0.4639370000000 1.0
C      1  0.5474260000000  0.5670590000000  0.5852960000000 1.0
C      1  0.5458180000000  0.4631460000000  0.4710600000000 1.0
C      1  0.4123420000000  0.5549920000000  0.4906160000000 1.0
C      1  0.5131490000000  0.4407710000000  0.5916540000000 1.0
C      1  0.4551820000000  0.5705520000000  0.4649730000000 1.0
C      1  0.5415880000000  0.5494830000000  0.5053670000000 1.0
C      1  0.4993260000000  0.4377260000000  0.5469150000000 1.0
C      1  0.5858680000000  0.5530600000000  0.4679730000000 1.0
C      1  0.4679710000000  0.4621870000000  0.4741180000000 1.0
C      1  0.4697770000000  0.5896230000000  0.5111110000000 1.0
C      1  0.5413070000000  0.5740030000000  0.4402600000000 1.0
C      1  0.5754850000000  0.5668580000000  0.5319700000000 1.0
C      1  0.4940950000000  0.4025050000000  0.4784870000000 1.0
C      1  0.4886780000000  0.6068860000000  0.5221420000000 1.0
C      1  0.4443000000000  0.5143150000000  0.4049170000000 1.0
C      1  0.5861760000000  0.5574240000000  0.4399900000000 1.0
C      1  0.5067590000000  0.5286790000000  0.5287930000000 1.0
C      1  0.5244600000000  0.4526450000000  0.4161790000000 1.0
C      1  0.5919650000000  0.4971880000000  0.4751330000000 1.0
C      1  0.5113770000000  0.4562200000000  0.5047530000000 1.0
C      1  0.4570580000000  0.4649750000000  0.5630740000000 1.0
C      1  0.5838880000000  0.4789390000000  0.4990120000000 1.0
C      1  0.5920780000000  0.4742890000000  0.5450480000000 1.0
C      1  0.5536780000000  0.4211550000000  0.4459570000000 1.0
C      1  0.4658820000000  0.5122610000000  0.5866700000000 1.0
C      1  0.5894050000000  0.4534950000000  0.4528120000000 1.0
C      1  0.4597910000000  0.5358810000000  0.5242010000000 1.0
C      1  0.4432680000000  0.4155300000000  0.5294060000000 1.0
C      1  0.5398920000000  0.4449480000000  0.5815860000000 1.0
C      1  0.5840740000000  0.5412110000000  0.5415370000000 1.0
C      1  0.4507720000000  0.5108380000000  0.5367860000000 1.0
C      1  0.4650880000000  0.5930170000000  0.4828070000000 1.0
C      1  0.4033800000000  0.4966400000000  0.5400190000000 1.0
C      1  0.4362310000000  0.5793180000000  0.4439200000000 1.0
C      1  0.5845360000000  0.5313680000000  0.5684110000000 1.0
C      1  0.5757020000000  0.4289530000000  0.4907370000000 1.0
C      1  0.5551640000000  0.4867230000000  0.4494960000000 1.0
C      1  0.4135810000000  0.5092440000000  0.4439240000000 1.0
C      1  0.4171270000000  0.4559320000000  0.5127580000000 1.0
C      1  0.3928130000000  0.5173030000000  0.5188690000000 1.0
C      1  0.4548220000000  0.4157690000000  0.5022740000000 1.0
C      1  0.5282290000000  0.5500890000000  0.5336710000000 1.0
C      1  0.5929990000000  0.4494450000000  0.5042030000000 1.0
C      1  0.4901080000000  0.5561750000000  0.5940470000000 1.0
C      1  0.4948990000000  0.4362110000000  0.5173940000000 1.0
C      1  0.4956550000000  0.4817990000000  0.5083900000000 1.0
C      1  0.5311110000000  0.4776720000000  0.5462680000000 1.0
C      1  0.4175480000000  0.5001170000000  0.5672650000000 1.0
C      1  0.4533580000000  0.5404250000000  0.4143890000000 1.0
C      1  0.4963520000000  0.4474110000000  0.4192030000000 1.0
C      1  0.4279910000000  0.4724870000000  0.5728200000000 1.0
C      1  0.5460900000000  0.4260840000000  0.5596690000000 1.0
C      1  0.5235490000000  0.5308810000000  0.4028120000000 1.0
C      1  0.4801770000000  0.4237920000000  0.4213090000000 1.0
C      1  0.4038190000000  0.5445130000000  0.5176950000000 1.0
C      1  0.5186670000000  0.5478320000000  0.4834840000000 1.0
C      1  0.4483060000000  0.4759100000000  0.4550430000000 1.0
C      1  0.5682700000000  0.5130240000000  0.4170040000000 1.0
C      1  0.4590940000000  0.5668740000000  0.5558580000000 1.0
C      1  0.4536010000000  0.5728640000000  0.5276820000000 1.0
C      1  0.5403770000000  0.5015410000000  0.4968420000000 1.0
C      1  0.5224070000000  0.3963580000000  0.4805510000000 1.0
C      1  0.4831980000000  0.4109560000000  0.5051610000000 1.0
C      1  0.5319390000000  0.4033100000000  0.5075750000000 1.0
C      1  0.4712410000000  0.5361840000000  0.6030000000000 1.0
C      1  0.3970780000000  0.4680930000000  0.5346070000000 1.0
C      1  0.4739940000000  0.4316150000000  0.5607800000000 1.0
C      1  0.5846010000000  0.4810770000000  0.4518220000000 1.0
C      1  0.5662920000000  0.4406440000000  0.4647170000000 1.0
C      1  0.4080430000000  0.4952600000000  0.4699970000000 1.0
C      1  0.4681420000000  0.4808830000000  0.4972340000000 1.0
C      1  0.5103730000000  0.5344500000000  0.6001030000000 1.0
C      1  0.4781850000000  0.5501880000000  0.4044530000000 1.0
C      1  0.4903310000000  0.6030200000000  0.4728520000000 1.0
C      1  0.5172590000000  0.4523480000000  0.4749060000000 1.0
C      1  0.5276420000000  0.5983470000000  0.4827520000000 1.0
C      1  0.4510110000000  0.4655580000000  0.4266780000000 1.0
C      1  0.5267950000000  0.5350940000000  0.4547540000000 1.0
C      1  0.4852760000000  0.5120340000000  0.5637580000000 1.0
C      1  0.5389580000000  0.4015050000000  0.4587490000000 1.0
C      1  0.5110780000000  0.5122220000000  0.5788760000000 1.0
C      1  0.4862360000000  0.3912730000000  0.5279840000000 1.0
C      1  0.5615970000000  0.5593330000000  0.4262770000000 1.0
C      1  0.5753120000000  0.5191710000000  0.5250510000000 1.0
C      1  0.4845600000000  0.4365120000000  0.5904900000000 1.0
C      1  0.5318600000000  0.4808840000000  0.4134080000000 1.0
C      1  0.5753170000000  0.5245970000000  0.4748230000000 1.0
C      1  0.5164360000000  0.3954620000000  0.5328590000000 1.0
C      1  0.5872610000000  0.4470530000000  0.5335480000000 1.0
C      1  0.5122770000000  0.5045610000000  0.4147070000000 1.0
C      1  0.5758400000000  0.5077040000000  0.5826550000000 1.0
END
