TITL C-3578202-4305-336 -1.56683711493633e-06 125000 -874.142437439716 0 0 141 (C1) n - 1
REM
REM in /home/bkarasulu/work/CARBON/AIRSS/Generating-Clusters/EDIP-Nigel-Params/with-SteepDescent/Higher-Symm/SD-CG/HFTN-CG
REM
REM
REM
REM
REM
REM ./C.cell (12c818d87b63d06a65506943cc24bca4)
REM
REM compiler GCC version 9.2.1 20190827 (Red Hat 9.2.1-1)
REM options -cpp -mtune=generic -march=x86-64 -g -O0 -fpre-include=/usr/include/finclude/math-vector-fortran.h
REM seed -898301453 -2105205056 -31700523 -438388064 -1647849519 -1002807588 1684041329 -1106228549 -1901982921 -1394252179 -378836624 -1897446228 -1021059441 -1311047698 1482480373 180244113 656949953 676839087 1372574114 -1132556346 1307803560 -957633929 1141239062 -1451439390 -590663651 -485444302 -263582700 1614190061 -1359302639 -373270834 -533157507 -1912566269 1889609286
REM
CELL 1.54180   50.00000   50.00000   50.00000   90.00000   90.00000   90.00000
LATT -1
SFAC C  
C      1  0.5092940000000  0.5736990000000  0.4427680000000 1.0
C      1  0.5593230000000  0.4551080000000  0.4426100000000 1.0
C      1  0.4313970000000  0.4710090000000  0.4425610000000 1.0
C      1  0.4692270000000  0.5509240000000  0.5679870000000 1.0
C      1  0.5595990000000  0.5013220000000  0.5688490000000 1.0
C      1  0.4708880000000  0.4479250000000  0.5689340000000 1.0
C      1  0.4254700000000  0.4697190000000  0.5626600000000 1.0
C      1  0.5114690000000  0.5786460000000  0.5621270000000 1.0
C      1  0.5620530000000  0.4512870000000  0.5616700000000 1.0
C      1  0.4378230000000  0.5478400000000  0.5663670000000 1.0
C      1  0.5737480000000  0.5290130000000  0.5667620000000 1.0
C      1  0.4882480000000  0.4222480000000  0.5662670000000 1.0
C      1  0.4836080000000  0.5738130000000  0.4301180000000 1.0
C      1  0.5721710000000  0.4774040000000  0.4300380000000 1.0
C      1  0.4444320000000  0.4488940000000  0.4298790000000 1.0
C      1  0.5052570000000  0.5845500000000  0.5329590000000 1.0
C      1  0.5707520000000  0.4533230000000  0.5326180000000 1.0
C      1  0.4239280000000  0.4619060000000  0.5330440000000 1.0
C      1  0.4155350000000  0.4569740000000  0.4883930000000 1.0
C      1  0.5056080000000  0.5949690000000  0.4885380000000 1.0
C      1  0.5792170000000  0.4480100000000  0.4883480000000 1.0
C      1  0.4090540000000  0.4659210000000  0.4618200000000 1.0
C      1  0.5163820000000  0.5956840000000  0.4618470000000 1.0
C      1  0.5748190000000  0.4381010000000  0.4617290000000 1.0
C      1  0.5478370000000  0.5840240000000  0.5082900000000 1.0
C      1  0.5487260000000  0.4169590000000  0.5078850000000 1.0
C      1  0.4035100000000  0.4985660000000  0.5085140000000 1.0
C      1  0.5557350000000  0.5552140000000  0.5649130000000 1.0
C      1  0.5197410000000  0.4251100000000  0.5644050000000 1.0
C      1  0.4243230000000  0.5198840000000  0.5651930000000 1.0
C      1  0.4753000000000  0.5904860000000  0.5398640000000 1.0
C      1  0.5910460000000  0.4762030000000  0.5396430000000 1.0
C      1  0.4337350000000  0.4329820000000  0.5396620000000 1.0
C      1  0.4408670000000  0.5414130000000  0.4436710000000 1.0
C      1  0.5655850000000  0.5300500000000  0.4433130000000 1.0
C      1  0.4934050000000  0.4282180000000  0.4433110000000 1.0
C      1  0.4857290000000  0.5473230000000  0.4911400000000 1.0
C      1  0.5493110000000  0.4890710000000  0.4919280000000 1.0
C      1  0.4664400000000  0.4635090000000  0.4912450000000 1.0
C      1  0.5909670000000  0.5269500000000  0.4582720000000 1.0
C      1  0.4781290000000  0.4077770000000  0.4584000000000 1.0
C      1  0.4309230000000  0.5648810000000  0.4587820000000 1.0
C      1  0.5360550000000  0.4429480000000  0.4297360000000 1.0
C      1  0.4324150000000  0.4972990000000  0.4298280000000 1.0
C      1  0.5313330000000  0.5593650000000  0.4299550000000 1.0
C      1  0.5252010000000  0.5080060000000  0.4960290000000 1.0
C      1  0.4945550000000  0.4771780000000  0.4942520000000 1.0
C      1  0.4831620000000  0.5155420000000  0.4947950000000 1.0
C      1  0.5879130000000  0.5283330000000  0.5392230000000 1.0
C      1  0.4805960000000  0.4103970000000  0.5387290000000 1.0
C      1  0.4316160000000  0.5613940000000  0.5392000000000 1.0
C      1  0.4743950000000  0.5400460000000  0.5407970000000 1.0
C      1  0.5455110000000  0.5038360000000  0.5428490000000 1.0
C      1  0.4799060000000  0.4595360000000  0.5430590000000 1.0
C      1  0.5130980000000  0.5581710000000  0.4981790000000 1.0
C      1  0.5436990000000  0.4600120000000  0.4983610000000 1.0
C      1  0.4434190000000  0.4818360000000  0.4985640000000 1.0
C      1  0.5523650000000  0.5552180000000  0.4509900000000 1.0
C      1  0.5218740000000  0.4271210000000  0.4509910000000 1.0
C      1  0.4257030000000  0.5173120000000  0.4512340000000 1.0
C      1  0.4558130000000  0.4200550000000  0.5250210000000 1.0
C      1  0.4537760000000  0.5764030000000  0.5253940000000 1.0
C      1  0.5917380000000  0.5020000000000  0.5252620000000 1.0
C      1  0.4838830000000  0.5354200000000  0.5891180000000 1.0
C      1  0.5397640000000  0.4960850000000  0.5907590000000 1.0
C      1  0.4760410000000  0.4673440000000  0.5913500000000 1.0
C      1  0.5375550000000  0.5462420000000  0.4768200000000 1.0
C      1  0.5212710000000  0.4449190000000  0.4765890000000 1.0
C      1  0.4412720000000  0.5086610000000  0.4768590000000 1.0
C      1  0.5061860000000  0.4489320000000  0.5353810000000 1.0
C      1  0.4532290000000  0.5227200000000  0.5322140000000 1.0
C      1  0.5419300000000  0.5321720000000  0.5358570000000 1.0
C      1  0.5433370000000  0.6028530000000  0.4641360000000 1.0
C      1  0.5676870000000  0.4111120000000  0.4640210000000 1.0
C      1  0.3892200000000  0.4855290000000  0.4643850000000 1.0
C      1  0.4807840000000  0.4882240000000  0.5384290000000 1.0
C      1  0.4977560000000  0.5235340000000  0.5360900000000 1.0
C      1  0.5198710000000  0.4911850000000  0.5366080000000 1.0
C      1  0.4524900000000  0.5801170000000  0.4720150000000 1.0
C      1  0.5936000000000  0.5007080000000  0.4715400000000 1.0
C      1  0.4538860000000  0.4184660000000  0.4715340000000 1.0
C      1  0.5127680000000  0.5381630000000  0.5902310000000 1.0
C      1  0.5265590000000  0.4701170000000  0.5903290000000 1.0
C      1  0.4596750000000  0.4915430000000  0.5916190000000 1.0
C      1  0.4721400000000  0.5058240000000  0.4668250000000 1.0
C      1  0.5191960000000  0.5203860000000  0.4679670000000 1.0
C      1  0.5079850000000  0.4725280000000  0.4667060000000 1.0
C      1  0.5145810000000  0.4563560000000  0.4140840000000 1.0
C      1  0.4547180000000  0.5093730000000  0.4142740000000 1.0
C      1  0.5305230000000  0.5338610000000  0.4145560000000 1.0
C      1  0.5338560000000  0.4509960000000  0.5695630000000 1.0
C      1  0.4379360000000  0.4944500000000  0.5723390000000 1.0
C      1  0.5260870000000  0.5545740000000  0.5701780000000 1.0
C      1  0.4134830000000  0.5515790000000  0.4794370000000 1.0
C      1  0.5881160000000  0.5486300000000  0.4790500000000 1.0
C      1  0.4984170000000  0.3999380000000  0.4791720000000 1.0
C      1  0.3895520000000  0.5066360000000  0.4829300000000 1.0
C      1  0.5615530000000  0.5920490000000  0.4825760000000 1.0
C      1  0.5491540000000  0.4007740000000  0.4824160000000 1.0
C      1  0.4911550000000  0.5178470000000  0.4231200000000 1.0
C      1  0.5204020000000  0.4980620000000  0.4241640000000 1.0
C      1  0.4889610000000  0.4836690000000  0.4230070000000 1.0
C      1  0.4605370000000  0.4477430000000  0.4648560000000 1.0
C      1  0.4744790000000  0.5599990000000  0.4648990000000 1.0
C      1  0.5647570000000  0.4919430000000  0.4648910000000 1.0
C      1  0.5735620000000  0.4326210000000  0.5124210000000 1.0
C      1  0.4048280000000  0.4692760000000  0.5125700000000 1.0
C      1  0.5217060000000  0.5975780000000  0.5127610000000 1.0
C      1  0.5621530000000  0.4948260000000  0.4110360000000 1.0
C      1  0.4647350000000  0.4489540000000  0.4111030000000 1.0
C      1  0.4731080000000  0.5562320000000  0.4115480000000 1.0
C      1  0.5665790000000  0.5440260000000  0.5233340000000 1.0
C      1  0.5045480000000  0.4215900000000  0.5228860000000 1.0
C      1  0.4286930000000  0.5352330000000  0.5233120000000 1.0
C      1  0.4411360000000  0.4423800000000  0.5683450000000 1.0
C      1  0.4798710000000  0.5793090000000  0.5684200000000 1.0
C      1  0.5786370000000  0.4778890000000  0.5680890000000 1.0
C      1  0.4482850000000  0.5853100000000  0.4993330000000 1.0
C      1  0.6009800000000  0.5020940000000  0.4987150000000 1.0
C      1  0.4511820000000  0.4115860000000  0.4986850000000 1.0
C      1  0.5570020000000  0.5214890000000  0.4172180000000 1.0
C      1  0.4903870000000  0.4400130000000  0.4172410000000 1.0
C      1  0.4525900000000  0.5384080000000  0.4175830000000 1.0
C      1  0.5015530000000  0.4681330000000  0.6019500000000 1.0
C      1  0.4710650000000  0.5145470000000  0.6019830000000 1.0
C      1  0.5271320000000  0.5178170000000  0.6021990000000 1.0
C      1  0.4068940000000  0.5166050000000  0.5322370000000 1.0
C      1  0.5624540000000  0.5724060000000  0.5313910000000 1.0
C      1  0.5310980000000  0.4107010000000  0.5308650000000 1.0
C      1  0.5194090000000  0.5313650000000  0.5165130000000 1.0
C      1  0.5167880000000  0.4690750000000  0.5159450000000 1.0
C      1  0.4643910000000  0.5014520000000  0.5163540000000 1.0
C      1  0.4893500000000  0.5271490000000  0.4523860000000 1.0
C      1  0.5282650000000  0.4946540000000  0.4537150000000 1.0
C      1  0.4810390000000  0.4772850000000  0.4520470000000 1.0
C      1  0.5754990000000  0.5722120000000  0.4648390000000 1.0
C      1  0.5250890000000  0.3984790000000  0.4647570000000 1.0
C      1  0.3996570000000  0.5287250000000  0.4652750000000 1.0
C      1  0.5639340000000  0.5389860000000  0.4935300000000 1.0
C      1  0.5014300000000  0.4261760000000  0.4931310000000 1.0
C      1  0.4338690000000  0.5352370000000  0.4936170000000 1.0
END
