TITL C-3578196-9646-455 4.90925114937732e-07 125000 -274.172430841483 0 0 47 (C1) n - 1
REM
REM in /home/bkarasulu/work/CARBON/AIRSS/Generating-Clusters/EDIP-Nigel-Params/with-SteepDescent/Higher-Symm/SD-CG/HFTN-CG
REM
REM
REM
REM
REM
REM ./C.cell (12c818d87b63d06a65506943cc24bca4)
REM
REM compiler GCC version 9.2.1 20190827 (Red Hat 9.2.1-1)
REM options -cpp -mtune=generic -march=x86-64 -g -O0 -fpre-include=/usr/include/finclude/math-vector-fortran.h
REM seed 1544745528 180118140 -2140073432 1885763718 570686298 1315041435 -1364205981 -1947321817 -1200731033 -601812282 41141635 1203607129 -910090710 370089566 659475289 -2012807222 -331382413 -571135383 -730689479 -2002570609 1796009777 -1140806040 1006452902 2134274190 193187120 -739371404 -1354642778 1987380761 120702446 286958658 192975599 263567106 1547331745
REM
CELL 1.54180   50.00000   50.00000   50.00000   90.00000   90.00000   90.00000
LATT -1
SFAC C  
C      1  0.4673540000000  0.5120050000000  0.4459740000000 1.0
C      1  0.5310810000000  0.5077470000000  0.5618810000000 1.0
C      1  0.4711710000000  0.4995500000000  0.5587120000000 1.0
C      1  0.5288680000000  0.5044320000000  0.4393680000000 1.0
C      1  0.4583920000000  0.4533040000000  0.4890910000000 1.0
C      1  0.5443110000000  0.4529260000000  0.5123760000000 1.0
C      1  0.4574100000000  0.5497230000000  0.5063860000000 1.0
C      1  0.5516600000000  0.5470060000000  0.4938490000000 1.0
C      1  0.5156760000000  0.5857930000000  0.4963490000000 1.0
C      1  0.4902850000000  0.5881890000000  0.4878890000000 1.0
C      1  0.5112510000000  0.4149150000000  0.4995020000000 1.0
C      1  0.4858430000000  0.4176490000000  0.4909060000000 1.0
C      1  0.5339350000000  0.4637470000000  0.5367250000000 1.0
C      1  0.4649230000000  0.4652020000000  0.4645140000000 1.0
C      1  0.5368320000000  0.5384460000000  0.4714750000000 1.0
C      1  0.4674410000000  0.5398110000000  0.5307650000000 1.0
C      1  0.4560080000000  0.4927200000000  0.4659710000000 1.0
C      1  0.5414230000000  0.4917850000000  0.5396890000000 1.0
C      1  0.4599130000000  0.5120540000000  0.5349820000000 1.0
C      1  0.5427730000000  0.5110020000000  0.4639460000000 1.0
C      1  0.5015920000000  0.4777620000000  0.4357000000000 1.0
C      1  0.4966810000000  0.4725060000000  0.5684650000000 1.0
C      1  0.5054550000000  0.5360110000000  0.5601770000000 1.0
C      1  0.4935370000000  0.5396520000000  0.4466670000000 1.0
C      1  0.5072440000000  0.5212630000000  0.4278290000000 1.0
C      1  0.4894400000000  0.5159600000000  0.5747690000000 1.0
C      1  0.5104830000000  0.4961550000000  0.5795110000000 1.0
C      1  0.4862450000000  0.5009170000000  0.4262600000000 1.0
C      1  0.5080500000000  0.4646440000000  0.4866200000000 1.0
C      1  0.4860800000000  0.4783930000000  0.5230940000000 1.0
C      1  0.5142940000000  0.5261580000000  0.5181280000000 1.0
C      1  0.4891060000000  0.5163040000000  0.4838070000000 1.0
C      1  0.4384780000000  0.4957770000000  0.4888980000000 1.0
C      1  0.5525770000000  0.5044360000000  0.5151370000000 1.0
C      1  0.4410830000000  0.5011940000000  0.5161360000000 1.0
C      1  0.5442370000000  0.4932590000000  0.4882280000000 1.0
C      1  0.4968080000000  0.5456410000000  0.5332290000000 1.0
C      1  0.5063870000000  0.5404870000000  0.4740850000000 1.0
C      1  0.4936480000000  0.4627610000000  0.4590650000000 1.0
C      1  0.5035700000000  0.4614020000000  0.5420710000000 1.0
C      1  0.4638880000000  0.5304850000000  0.4877770000000 1.0
C      1  0.5435840000000  0.5325620000000  0.5165590000000 1.0
C      1  0.4628390000000  0.4642130000000  0.5138210000000 1.0
C      1  0.5383630000000  0.4644770000000  0.4872280000000 1.0
C      1  0.4990550000000  0.5615920000000  0.4970120000000 1.0
C      1  0.4986290000000  0.4405480000000  0.5031830000000 1.0
C      1  0.5027490000000  0.4948830000000  0.5026150000000 1.0
END
