TITL C-3578197-9521-352 -2.17808395530044e-06 125000 -1174.36210139363 0 0 187 (C1) n - 1
REM
REM in /home/bkarasulu/work/CARBON/AIRSS/Generating-Clusters/EDIP-Nigel-Params/with-SteepDescent/Higher-Symm/SD-CG/HFTN-CG
REM
REM
REM
REM
REM
REM ./C.cell (12c818d87b63d06a65506943cc24bca4)
REM
REM compiler GCC version 9.2.1 20190827 (Red Hat 9.2.1-1)
REM options -cpp -mtune=generic -march=x86-64 -g -O0 -fpre-include=/usr/include/finclude/math-vector-fortran.h
REM seed 1362694115 1389790972 1582909070 2014882120 809629801 -87751828 -68540735 -220090426 1220386795 -1547844357 2030603697 -982339347 -1515379334 -1106776667 -443517100 1262769372 -1680780226 1798739292 123754578 1760032973 821310292 -1371539386 1942958354 358888622 -234551469 1585606522 1569830442 -1835138977 2141340728 -809863263 -1267175354 -580504433 1333529763
REM
CELL 1.54180   50.00000   50.00000   50.00000   90.00000   90.00000   90.00000
LATT -1
SFAC C  
C      1  0.5321450000000  0.4586810000000  0.4822620000000 1.0
C      1  0.4746130000000  0.5498470000000  0.4549030000000 1.0
C      1  0.4551050000000  0.4530370000000  0.5239530000000 1.0
C      1  0.5290360000000  0.5425050000000  0.5410920000000 1.0
C      1  0.5418140000000  0.5642170000000  0.5014340000000 1.0
C      1  0.5005340000000  0.4338830000000  0.4614200000000 1.0
C      1  0.4657370000000  0.5636320000000  0.4943970000000 1.0
C      1  0.4954770000000  0.4325270000000  0.5326720000000 1.0
C      1  0.5049560000000  0.4655580000000  0.4921440000000 1.0
C      1  0.5004490000000  0.5503660000000  0.4710690000000 1.0
C      1  0.4655260000000  0.4454480000000  0.4976800000000 1.0
C      1  0.5025460000000  0.5469080000000  0.5261450000000 1.0
C      1  0.5264960000000  0.5519620000000  0.4561350000000 1.0
C      1  0.4479790000000  0.4299030000000  0.4808130000000 1.0
C      1  0.4847090000000  0.5617980000000  0.5446110000000 1.0
C      1  0.5421700000000  0.4473180000000  0.5076520000000 1.0
C      1  0.4031290000000  0.4474340000000  0.4288190000000 1.0
C      1  0.4318850000000  0.5526670000000  0.5907000000000 1.0
C      1  0.5916170000000  0.4458870000000  0.5644980000000 1.0
C      1  0.5637490000000  0.5516530000000  0.4204490000000 1.0
C      1  0.3879850000000  0.4919050000000  0.4529590000000 1.0
C      1  0.4477760000000  0.5058660000000  0.6016220000000 1.0
C      1  0.6055320000000  0.4975570000000  0.5537170000000 1.0
C      1  0.5590350000000  0.5046970000000  0.4128600000000 1.0
C      1  0.4002610000000  0.4682550000000  0.5320640000000 1.0
C      1  0.5331080000000  0.5285650000000  0.5959190000000 1.0
C      1  0.5937560000000  0.4709560000000  0.4760890000000 1.0
C      1  0.4649470000000  0.5219630000000  0.4088730000000 1.0
C      1  0.5756790000000  0.4851820000000  0.5882660000000 1.0
C      1  0.5994380000000  0.5234670000000  0.4335660000000 1.0
C      1  0.4237530000000  0.4938530000000  0.4163700000000 1.0
C      1  0.4092550000000  0.5151960000000  0.5756420000000 1.0
C      1  0.5726330000000  0.4237930000000  0.4733650000000 1.0
C      1  0.4671310000000  0.5772470000000  0.4277470000000 1.0
C      1  0.4246480000000  0.4238420000000  0.5368430000000 1.0
C      1  0.5376160000000  0.5758700000000  0.5729820000000 1.0
C      1  0.4840580000000  0.3936200000000  0.4649740000000 1.0
C      1  0.4649500000000  0.6033020000000  0.5126330000000 1.0
C      1  0.5099340000000  0.3926200000000  0.5381240000000 1.0
C      1  0.5357350000000  0.6042790000000  0.4871480000000 1.0
C      1  0.5738150000000  0.5674490000000  0.4434760000000 1.0
C      1  0.4328010000000  0.4383640000000  0.4339770000000 1.0
C      1  0.4397970000000  0.5578400000000  0.5618210000000 1.0
C      1  0.5619050000000  0.4378110000000  0.5631130000000 1.0
C      1  0.5767430000000  0.5576100000000  0.5368440000000 1.0
C      1  0.5364990000000  0.4506970000000  0.4351170000000 1.0
C      1  0.4228690000000  0.5545490000000  0.4634050000000 1.0
C      1  0.4628810000000  0.4459480000000  0.5747440000000 1.0
C      1  0.4414030000000  0.5927380000000  0.5017970000000 1.0
C      1  0.4969520000000  0.4051110000000  0.5602390000000 1.0
C      1  0.5596590000000  0.5976050000000  0.5014840000000 1.0
C      1  0.4958100000000  0.4096990000000  0.4437180000000 1.0
C      1  0.4765800000000  0.5193440000000  0.5711070000000 1.0
C      1  0.5817270000000  0.4752870000000  0.5246440000000 1.0
C      1  0.5300110000000  0.5147000000000  0.4160610000000 1.0
C      1  0.4248720000000  0.4762510000000  0.4714820000000 1.0
C      1  0.5960390000000  0.5624650000000  0.5163250000000 1.0
C      1  0.5012270000000  0.4626000000000  0.4018290000000 1.0
C      1  0.4064990000000  0.5513280000000  0.4877150000000 1.0
C      1  0.4905000000000  0.4623070000000  0.5864340000000 1.0
C      1  0.5512750000000  0.4038890000000  0.5099580000000 1.0
C      1  0.5071810000000  0.5952100000000  0.4455000000000 1.0
C      1  0.4382540000000  0.3965670000000  0.4982000000000 1.0
C      1  0.4967740000000  0.5974410000000  0.5556470000000 1.0
C      1  0.4921090000000  0.4727440000000  0.5578790000000 1.0
C      1  0.5766790000000  0.5233010000000  0.5091760000000 1.0
C      1  0.5125770000000  0.4688670000000  0.4286960000000 1.0
C      1  0.4304680000000  0.5209620000000  0.4894380000000 1.0
C      1  0.4999840000000  0.4886280000000  0.6005360000000 1.0
C      1  0.6064430000000  0.5172410000000  0.5066880000000 1.0
C      1  0.4934870000000  0.4889540000000  0.3880130000000 1.0
C      1  0.4023190000000  0.5090590000000  0.4996770000000 1.0
C      1  0.4668950000000  0.4347350000000  0.5461750000000 1.0
C      1  0.5485230000000  0.5639070000000  0.5309020000000 1.0
C      1  0.5299320000000  0.4377550000000  0.4604210000000 1.0
C      1  0.4511810000000  0.5664030000000  0.4675020000000 1.0
C      1  0.5478340000000  0.5469030000000  0.5747760000000 1.0
C      1  0.5809790000000  0.4487950000000  0.4589490000000 1.0
C      1  0.4350860000000  0.5205290000000  0.4233170000000 1.0
C      1  0.4196610000000  0.4511990000000  0.5485340000000 1.0
C      1  0.5125970000000  0.4136910000000  0.5826900000000 1.0
C      1  0.5847750000000  0.5990200000000  0.4875370000000 1.0
C      1  0.4804840000000  0.4134710000000  0.4174640000000 1.0
C      1  0.4180700000000  0.5878310000000  0.5178080000000 1.0
C      1  0.5327910000000  0.3984250000000  0.4872950000000 1.0
C      1  0.4844270000000  0.6024870000000  0.4642150000000 1.0
C      1  0.4600950000000  0.3934170000000  0.5196890000000 1.0
C      1  0.5182670000000  0.6032500000000  0.5356630000000 1.0
C      1  0.3978440000000  0.4331160000000  0.4941710000000 1.0
C      1  0.4968600000000  0.5639340000000  0.5989780000000 1.0
C      1  0.6002670000000  0.4347540000000  0.5145420000000 1.0
C      1  0.5036140000000  0.5649050000000  0.4004810000000 1.0
C      1  0.5338110000000  0.5441340000000  0.4252120000000 1.0
C      1  0.4285760000000  0.4466020000000  0.4649400000000 1.0
C      1  0.4695710000000  0.5485620000000  0.5673110000000 1.0
C      1  0.5628830000000  0.4511950000000  0.5312910000000 1.0
C      1  0.4111960000000  0.5191350000000  0.5483200000000 1.0
C      1  0.5492420000000  0.4788640000000  0.5933170000000 1.0
C      1  0.6016290000000  0.5308270000000  0.4601690000000 1.0
C      1  0.4438970000000  0.4781280000000  0.4025260000000 1.0
C      1  0.3916170000000  0.4603860000000  0.5040810000000 1.0
C      1  0.5057330000000  0.5364080000000  0.6055030000000 1.0
C      1  0.6033970000000  0.4634310000000  0.5051440000000 1.0
C      1  0.4921370000000  0.5384630000000  0.3920200000000 1.0
C      1  0.4689660000000  0.4723870000000  0.4531600000000 1.0
C      1  0.4626150000000  0.5280540000000  0.5263880000000 1.0
C      1  0.5315200000000  0.4682850000000  0.5274100000000 1.0
C      1  0.5397200000000  0.5298790000000  0.4702460000000 1.0
C      1  0.4170720000000  0.5336770000000  0.4432050000000 1.0
C      1  0.4372960000000  0.4598670000000  0.5728690000000 1.0
C      1  0.5773910000000  0.5434470000000  0.5625780000000 1.0
C      1  0.5645640000000  0.4579510000000  0.4349160000000 1.0
C      1  0.4772660000000  0.4424910000000  0.4054720000000 1.0
C      1  0.4109080000000  0.5592810000000  0.5160030000000 1.0
C      1  0.5148540000000  0.4430730000000  0.5860610000000 1.0
C      1  0.5976330000000  0.5722770000000  0.4895350000000 1.0
C      1  0.4177540000000  0.4167160000000  0.5093840000000 1.0
C      1  0.5093150000000  0.5785260000000  0.5766890000000 1.0
C      1  0.5765240000000  0.4202420000000  0.5026520000000 1.0
C      1  0.4947030000000  0.5760710000000  0.4259600000000 1.0
C      1  0.5384000000000  0.4020810000000  0.5357780000000 1.0
C      1  0.5337490000000  0.5898010000000  0.4601690000000 1.0
C      1  0.4543930000000  0.4026320000000  0.4652160000000 1.0
C      1  0.4674390000000  0.5959180000000  0.5415040000000 1.0
C      1  0.3934890000000  0.5191760000000  0.4481360000000 1.0
C      1  0.4377730000000  0.4821390000000  0.5900990000000 1.0
C      1  0.5960980000000  0.5224140000000  0.5630920000000 1.0
C      1  0.5697900000000  0.4798250000000  0.4186340000000 1.0
C      1  0.4800820000000  0.5042750000000  0.5234060000000 1.0
C      1  0.5381130000000  0.4969410000000  0.5188090000000 1.0
C      1  0.5226910000000  0.5041720000000  0.4678660000000 1.0
C      1  0.4701310000000  0.4956360000000  0.4712120000000 1.0
C      1  0.4827790000000  0.5134670000000  0.5997730000000 1.0
C      1  0.6149840000000  0.4948720000000  0.5250460000000 1.0
C      1  0.5110140000000  0.5146060000000  0.3915100000000 1.0
C      1  0.3974830000000  0.4838470000000  0.4822500000000 1.0
C      1  0.5609740000000  0.5419350000000  0.4877330000000 1.0
C      1  0.4913050000000  0.4568890000000  0.4450280000000 1.0
C      1  0.4532770000000  0.5377050000000  0.5025050000000 1.0
C      1  0.5101000000000  0.4556350000000  0.5435370000000 1.0
C      1  0.4414110000000  0.4085520000000  0.4375700000000 1.0
C      1  0.4417840000000  0.5873640000000  0.5553780000000 1.0
C      1  0.5533490000000  0.4086070000000  0.5603760000000 1.0
C      1  0.5605330000000  0.5932560000000  0.4462390000000 1.0
C      1  0.5380080000000  0.4011820000000  0.5827220000000 1.0
C      1  0.5793500000000  0.6078620000000  0.4612290000000 1.0
C      1  0.4565590000000  0.3981220000000  0.4165690000000 1.0
C      1  0.4188320000000  0.5979180000000  0.5440570000000 1.0
C      1  0.5126770000000  0.5001670000000  0.4370600000000 1.0
C      1  0.4432030000000  0.4934080000000  0.4859530000000 1.0
C      1  0.4930050000000  0.5037870000000  0.5516740000000 1.0
C      1  0.5655410000000  0.4960660000000  0.5087710000000 1.0
C      1  0.5459300000000  0.4131330000000  0.4653170000000 1.0
C      1  0.4590890000000  0.5912950000000  0.4520960000000 1.0
C      1  0.4505790000000  0.4098940000000  0.5429130000000 1.0
C      1  0.5421940000000  0.5889780000000  0.5461250000000 1.0
C      1  0.4033370000000  0.4990030000000  0.5284170000000 1.0
C      1  0.5272680000000  0.4989300000000  0.5894910000000 1.0
C      1  0.6046940000000  0.5084420000000  0.4784210000000 1.0
C      1  0.4643330000000  0.4971780000000  0.3916000000000 1.0
C      1  0.5699060000000  0.4912510000000  0.4797830000000 1.0
C      1  0.4844210000000  0.5133430000000  0.4312380000000 1.0
C      1  0.4362520000000  0.4848600000000  0.5135470000000 1.0
C      1  0.5223590000000  0.4980170000000  0.5597750000000 1.0
C      1  0.5428570000000  0.4525460000000  0.5829730000000 1.0
C      1  0.5839320000000  0.5536810000000  0.4693870000000 1.0
C      1  0.4547480000000  0.4568760000000  0.4206250000000 1.0
C      1  0.4280570000000  0.5410900000000  0.5379880000000 1.0
C      1  0.5432610000000  0.4831590000000  0.4705440000000 1.0
C      1  0.4679880000000  0.5200460000000  0.4531060000000 1.0
C      1  0.4602090000000  0.4832010000000  0.5294890000000 1.0
C      1  0.5382830000000  0.5140950000000  0.5417310000000 1.0
C      1  0.4009600000000  0.4341900000000  0.4651260000000 1.0
C      1  0.4689000000000  0.5624680000000  0.5951150000000 1.0
C      1  0.6042040000000  0.4344340000000  0.5422660000000 1.0
C      1  0.5318850000000  0.5633010000000  0.4016460000000 1.0
C      1  0.4874280000000  0.6019250000000  0.4943180000000 1.0
C      1  0.4906180000000  0.3923150000000  0.5150790000000 1.0
C      1  0.5135950000000  0.6038820000000  0.5059320000000 1.0
C      1  0.5021870000000  0.3966480000000  0.4887620000000 1.0
C      1  0.5777600000000  0.5263390000000  0.4165970000000 1.0
C      1  0.4042530000000  0.4771850000000  0.4322540000000 1.0
C      1  0.4258580000000  0.5249260000000  0.5959530000000 1.0
C      1  0.5917520000000  0.4756790000000  0.5675680000000 1.0
C      1  0.4928040000000  0.4381080000000  0.4984260000000 1.0
C      1  0.5043510000000  0.5618470000000  0.4991870000000 1.0
C      1  0.4957710000000  0.4951780000000  0.4898290000000 1.0
END
