TITL C-3577084-3642-695 1.69267118749822e-06 125000 -791.779578289174 0 0 128 (C1) n - 1
REM
REM in /home/bkarasulu/work/CARBON/AIRSS/Generating-Clusters/EDIP-Nigel-Params/with-SteepDescent/Higher-Symm/SD-CG/HFTN-CG
REM
REM
REM
REM
REM
REM ./C.cell (12c818d87b63d06a65506943cc24bca4)
REM
REM compiler GCC version 9.2.1 20190827 (Red Hat 9.2.1-1)
REM options -cpp -mtune=generic -march=x86-64 -g -O0 -fpre-include=/usr/include/finclude/math-vector-fortran.h
REM seed -1537019438 1146825259 -633723175 -333321306 1072239693 -1343996654 1572266928 1627958063 1486498465 -136336335 -1324192391 974638573 -2039282522 -1967386808 1251455660 389003630 -988880598 1199249519 244546461 -1616767300 263335787 154294909 -588867482 1583044740 -426043105 -16221670 1912478406 -1615426258 1801075394 689098262 1664661436 1075388846 -1717813236
REM
CELL 1.54180   50.00000   50.00000   50.00000   90.00000   90.00000   90.00000
LATT -1
SFAC C  
C      1  0.5711660000000  0.4790790000000  0.5872550000000 1.0
C      1  0.5637070000000  0.4167590000000  0.5078920000000 1.0
C      1  0.5598320000000  0.4747350000000  0.4230920000000 1.0
C      1  0.5672360000000  0.5607540000000  0.4511460000000 1.0
C      1  0.5674220000000  0.5675090000000  0.5427830000000 1.0
C      1  0.4787890000000  0.5350170000000  0.5307300000000 1.0
C      1  0.4706310000000  0.4854650000000  0.5664790000000 1.0
C      1  0.4760270000000  0.4525380000000  0.5028970000000 1.0
C      1  0.4814370000000  0.4926240000000  0.4547050000000 1.0
C      1  0.4844770000000  0.5374890000000  0.4779530000000 1.0
C      1  0.4804110000000  0.4301590000000  0.4530260000000 1.0
C      1  0.4709530000000  0.5099970000000  0.4062610000000 1.0
C      1  0.4746690000000  0.5865530000000  0.4834530000000 1.0
C      1  0.4790710000000  0.5414680000000  0.5744510000000 1.0
C      1  0.4818830000000  0.4431550000000  0.5629140000000 1.0
C      1  0.5328670000000  0.4134040000000  0.5108270000000 1.0
C      1  0.5325020000000  0.4662280000000  0.4144110000000 1.0
C      1  0.5380610000000  0.5538250000000  0.4465590000000 1.0
C      1  0.5386640000000  0.5741640000000  0.5405480000000 1.0
C      1  0.5425780000000  0.4844230000000  0.5964810000000 1.0
C      1  0.5740170000000  0.5493960000000  0.5203050000000 1.0
C      1  0.5823460000000  0.4982190000000  0.5668470000000 1.0
C      1  0.5768210000000  0.4424860000000  0.5191430000000 1.0
C      1  0.5722560000000  0.4660550000000  0.4507680000000 1.0
C      1  0.5862080000000  0.5378380000000  0.4530190000000 1.0
C      1  0.5452740000000  0.4399290000000  0.5766930000000 1.0
C      1  0.5434280000000  0.4110410000000  0.4629730000000 1.0
C      1  0.5352630000000  0.5147100000000  0.4115230000000 1.0
C      1  0.5374690000000  0.5773750000000  0.4878880000000 1.0
C      1  0.5437020000000  0.5490840000000  0.5829840000000 1.0
C      1  0.5174150000000  0.4911960000000  0.4081120000000 1.0
C      1  0.5211980000000  0.5709490000000  0.4648020000000 1.0
C      1  0.5264100000000  0.5529190000000  0.5583030000000 1.0
C      1  0.5280560000000  0.4644810000000  0.5762690000000 1.0
C      1  0.5243300000000  0.4223160000000  0.4835670000000 1.0
C      1  0.5700440000000  0.5505780000000  0.5689810000000 1.0
C      1  0.5720960000000  0.4517170000000  0.5737640000000 1.0
C      1  0.5686060000000  0.4186460000000  0.4771480000000 1.0
C      1  0.5621840000000  0.5046170000000  0.4201260000000 1.0
C      1  0.5668030000000  0.5731210000000  0.4785360000000 1.0
C      1  0.4968830000000  0.5597590000000  0.5618880000000 1.0
C      1  0.4987730000000  0.4571900000000  0.5823850000000 1.0
C      1  0.4945270000000  0.4219590000000  0.4771920000000 1.0
C      1  0.4906020000000  0.4910690000000  0.3956630000000 1.0
C      1  0.4914040000000  0.5661590000000  0.4673420000000 1.0
C      1  0.4883350000000  0.5963270000000  0.5273660000000 1.0
C      1  0.4721350000000  0.4989390000000  0.5944450000000 1.0
C      1  0.4738520000000  0.4197550000000  0.5232430000000 1.0
C      1  0.4820790000000  0.4432680000000  0.4066440000000 1.0
C      1  0.4627690000000  0.5571020000000  0.4208140000000 1.0
C      1  0.5197000000000  0.4643620000000  0.4638610000000 1.0
C      1  0.5274800000000  0.5190660000000  0.4609450000000 1.0
C      1  0.5242760000000  0.5353770000000  0.5129510000000 1.0
C      1  0.5158560000000  0.5035580000000  0.5531870000000 1.0
C      1  0.5238070000000  0.4614740000000  0.5232230000000 1.0
C      1  0.4120420000000  0.4601900000000  0.4695290000000 1.0
C      1  0.4061240000000  0.5062740000000  0.4451730000000 1.0
C      1  0.4094780000000  0.5480280000000  0.4828570000000 1.0
C      1  0.4152300000000  0.5199630000000  0.5533100000000 1.0
C      1  0.4166550000000  0.4565760000000  0.5336960000000 1.0
C      1  0.4870120000000  0.5004200000000  0.5425220000000 1.0
C      1  0.4951800000000  0.4749070000000  0.5196030000000 1.0
C      1  0.4932810000000  0.4748890000000  0.4748820000000 1.0
C      1  0.4960720000000  0.5200510000000  0.4559210000000 1.0
C      1  0.4956100000000  0.5256800000000  0.5052300000000 1.0
C      1  0.4956150000000  0.5374500000000  0.4298980000000 1.0
C      1  0.4945190000000  0.5680600000000  0.5186000000000 1.0
C      1  0.5153370000000  0.5081440000000  0.5834220000000 1.0
C      1  0.5220240000000  0.4311580000000  0.5328260000000 1.0
C      1  0.5222890000000  0.4473350000000  0.4358370000000 1.0
C      1  0.4427220000000  0.5059750000000  0.4080860000000 1.0
C      1  0.4461590000000  0.5821260000000  0.4831690000000 1.0
C      1  0.4514190000000  0.5472650000000  0.5757930000000 1.0
C      1  0.4549570000000  0.4354930000000  0.5675680000000 1.0
C      1  0.4538420000000  0.4386720000000  0.4534600000000 1.0
C      1  0.5836330000000  0.4607100000000  0.4973590000000 1.0
C      1  0.5862700000000  0.4905930000000  0.4597300000000 1.0
C      1  0.5963310000000  0.5341990000000  0.4800950000000 1.0
C      1  0.5836640000000  0.5252900000000  0.5312230000000 1.0
C      1  0.5897110000000  0.4828030000000  0.5425920000000 1.0
C      1  0.5253780000000  0.5661230000000  0.5139640000000 1.0
C      1  0.5387860000000  0.5227780000000  0.5940680000000 1.0
C      1  0.5387320000000  0.4245350000000  0.5549910000000 1.0
C      1  0.5401280000000  0.4249660000000  0.4391680000000 1.0
C      1  0.5246500000000  0.5405310000000  0.4223880000000 1.0
C      1  0.4954440000000  0.4368800000000  0.4298660000000 1.0
C      1  0.4641680000000  0.5374320000000  0.4004950000000 1.0
C      1  0.4685410000000  0.6016170000000  0.5079420000000 1.0
C      1  0.4899180000000  0.5211970000000  0.5918220000000 1.0
C      1  0.4936030000000  0.4273660000000  0.5417230000000 1.0
C      1  0.5368010000000  0.4885930000000  0.4642910000000 1.0
C      1  0.5397510000000  0.5229420000000  0.4917150000000 1.0
C      1  0.5319140000000  0.5266860000000  0.5419850000000 1.0
C      1  0.5296470000000  0.4775080000000  0.5487020000000 1.0
C      1  0.5341000000000  0.4508580000000  0.4870820000000 1.0
C      1  0.4515690000000  0.4902260000000  0.4579920000000 1.0
C      1  0.4550360000000  0.5339330000000  0.4778290000000 1.0
C      1  0.4486580000000  0.5383290000000  0.5267120000000 1.0
C      1  0.4416210000000  0.4797990000000  0.5614990000000 1.0
C      1  0.4479070000000  0.4598510000000  0.4955660000000 1.0
C      1  0.4845290000000  0.5840110000000  0.5527730000000 1.0
C      1  0.4853530000000  0.4742720000000  0.6009920000000 1.0
C      1  0.4786030000000  0.4121010000000  0.4974470000000 1.0
C      1  0.4803330000000  0.4655850000000  0.3923260000000 1.0
C      1  0.4844860000000  0.5649090000000  0.4378280000000 1.0
C      1  0.5786370000000  0.4563950000000  0.5449570000000 1.0
C      1  0.5651630000000  0.4496370000000  0.4767710000000 1.0
C      1  0.5753540000000  0.5127070000000  0.4448780000000 1.0
C      1  0.5853540000000  0.5567600000000  0.4951890000000 1.0
C      1  0.5683800000000  0.5232130000000  0.5558900000000 1.0
C      1  0.4031580000000  0.5294590000000  0.4621320000000 1.0
C      1  0.4146130000000  0.5370940000000  0.5191260000000 1.0
C      1  0.4179320000000  0.4916820000000  0.5491870000000 1.0
C      1  0.4210240000000  0.4537820000000  0.5054810000000 1.0
C      1  0.3988060000000  0.4819440000000  0.4577990000000 1.0
C      1  0.4420390000000  0.4615130000000  0.4668510000000 1.0
C      1  0.4340250000000  0.5018260000000  0.4354290000000 1.0
C      1  0.4374900000000  0.5549130000000  0.4871450000000 1.0
C      1  0.4408930000000  0.5325950000000  0.5539730000000 1.0
C      1  0.4402350000000  0.4535530000000  0.5515730000000 1.0
C      1  0.4032720000000  0.5104700000000  0.5119730000000 1.0
C      1  0.5947570000000  0.4968250000000  0.4892610000000 1.0
C      1  0.4200190000000  0.5009600000000  0.4918550000000 1.0
C      1  0.5035200000000  0.4932670000000  0.4978780000000 1.0
C      1  0.5859890000000  0.4995440000000  0.5185740000000 1.0
C      1  0.4459010000000  0.5067630000000  0.4816790000000 1.0
C      1  0.3770780000000  0.5096990000000  0.5069890000000 1.0
C      1  0.5339950000000  0.4939600000000  0.4949430000000 1.0
END
