TITL C-3578206-1180-377 -2.47105724907576e-06 125000 -1219.72858840823 0 0 195 (D5) n - 1
REM
REM in /home/bkarasulu/work/CARBON/AIRSS/Generating-Clusters/EDIP-Nigel-Params/with-SteepDescent/Higher-Symm/SD-CG/HFTN-CG
REM
REM
REM
REM
REM
REM ./C.cell (12c818d87b63d06a65506943cc24bca4)
REM
REM compiler GCC version 9.2.1 20190827 (Red Hat 9.2.1-1)
REM options -cpp -mtune=generic -march=x86-64 -g -O0 -fpre-include=/usr/include/finclude/math-vector-fortran.h
REM seed 1103855259 -1042544864 264512845 933756854 -1949572914 1738034919 1735298551 355070542 1151113133 -1951134185 1270136803 -1182927794 -1529477774 -1070473723 1861568278 1063239781 2144045109 -1163275233 -1689931998 -238246929 -1747366418 1715325684 541603542 786172288 837493471 179659248 -1263895544 1300087452 -1200616475 -1922046654 -694532159 1529546046 -174813783
REM
CELL 1.54180   50.00000   50.00000   50.00000   90.00000   90.00000   90.00000
LATT -1
SFAC C  
C      1  0.5385200000000  0.4046470000000  0.4810370000000 1.0
C      1  0.4938680000000  0.4046480000000  0.4575040000000 1.0
C      1  0.4576880000000  0.4046480000000  0.4926980000000 1.0
C      1  0.4799800000000  0.4046480000000  0.5379830000000 1.0
C      1  0.5299370000000  0.4046470000000  0.5307760000000 1.0
C      1  0.5385230000000  0.5946790000000  0.5189630000000 1.0
C      1  0.4938710000000  0.5946790000000  0.5424960000000 1.0
C      1  0.4576910000000  0.5946800000000  0.5073020000000 1.0
C      1  0.4799830000000  0.5946800000000  0.4620170000000 1.0
C      1  0.5299400000000  0.5946790000000  0.4692240000000 1.0
C      1  0.4813490000000  0.4616000000000  0.3968580000000 1.0
C      1  0.3961430000000  0.4616010000000  0.4858650000000 1.0
C      1  0.4544630000000  0.4615990000000  0.5944060000000 1.0
C      1  0.5757130000000  0.4615980000000  0.5724810000000 1.0
C      1  0.5923300000000  0.4615980000000  0.4503900000000 1.0
C      1  0.4813500000000  0.5377280000000  0.6031420000000 1.0
C      1  0.3961440000000  0.5377290000000  0.5141350000000 1.0
C      1  0.4544640000000  0.5377290000000  0.4055940000000 1.0
C      1  0.5757140000000  0.5377270000000  0.4275200000000 1.0
C      1  0.5923310000000  0.5377260000000  0.5496110000000 1.0
C      1  0.4305200000000  0.5732430000000  0.4646600000000 1.0
C      1  0.4449200000000  0.5732420000000  0.5551600000000 1.0
C      1  0.5354400000000  0.5732410000000  0.5694310000000 1.0
C      1  0.5769850000000  0.5732410000000  0.4877510000000 1.0
C      1  0.5121410000000  0.5732420000000  0.4229990000000 1.0
C      1  0.4305180000000  0.4260860000000  0.5353390000000 1.0
C      1  0.4449180000000  0.4260860000000  0.4448400000000 1.0
C      1  0.5354380000000  0.4260850000000  0.4305700000000 1.0
C      1  0.5769820000000  0.4260840000000  0.5122490000000 1.0
C      1  0.5121380000000  0.4260840000000  0.5770010000000 1.0
C      1  0.4652940000000  0.4520350000000  0.5679640000000 1.0
C      1  0.5539120000000  0.4520340000000  0.5540090000000 1.0
C      1  0.5680250000000  0.4520340000000  0.4654150000000 1.0
C      1  0.4881280000000  0.4520350000000  0.4246170000000 1.0
C      1  0.4246370000000  0.4520360000000  0.4879950000000 1.0
C      1  0.4652960000000  0.5472930000000  0.4320360000000 1.0
C      1  0.5539140000000  0.5472910000000  0.4459920000000 1.0
C      1  0.5680260000000  0.5472910000000  0.5345850000000 1.0
C      1  0.4881290000000  0.5472920000000  0.5753830000000 1.0
C      1  0.4246390000000  0.5472930000000  0.5120050000000 1.0
C      1  0.5856260000000  0.4911740000000  0.4862060000000 1.0
C      1  0.5133400000000  0.4911750000000  0.4143020000000 1.0
C      1  0.4226190000000  0.4911760000000  0.4608300000000 1.0
C      1  0.4388350000000  0.4911760000000  0.5614890000000 1.0
C      1  0.5395790000000  0.4911740000000  0.5771720000000 1.0
C      1  0.5856260000000  0.5081500000000  0.5137950000000 1.0
C      1  0.5133400000000  0.5081510000000  0.5856980000000 1.0
C      1  0.4226190000000  0.5081530000000  0.5391690000000 1.0
C      1  0.4388360000000  0.5081530000000  0.4385100000000 1.0
C      1  0.5395800000000  0.5081510000000  0.4228280000000 1.0
C      1  0.4753980000000  0.4289960000000  0.4957240000000 1.0
C      1  0.4883310000000  0.4289950000000  0.5220760000000 1.0
C      1  0.5173890000000  0.4289950000000  0.5179190000000 1.0
C      1  0.5224150000000  0.4289950000000  0.4889990000000 1.0
C      1  0.4964630000000  0.4289950000000  0.4752810000000 1.0
C      1  0.4754000000000  0.5703320000000  0.5042760000000 1.0
C      1  0.4883330000000  0.5703320000000  0.4779240000000 1.0
C      1  0.5173910000000  0.5703310000000  0.4820810000000 1.0
C      1  0.5224170000000  0.5703310000000  0.5110020000000 1.0
C      1  0.4964650000000  0.5703310000000  0.5247190000000 1.0
C      1  0.4256850000000  0.4422350000000  0.4285460000000 1.0
C      1  0.4090790000000  0.4422350000000  0.5485960000000 1.0
C      1  0.5181210000000  0.4422330000000  0.6014870000000 1.0
C      1  0.6021200000000  0.4422320000000  0.5141260000000 1.0
C      1  0.5449910000000  0.4422340000000  0.4072430000000 1.0
C      1  0.4256870000000  0.5570940000000  0.5714530000000 1.0
C      1  0.4090810000000  0.5570940000000  0.4514030000000 1.0
C      1  0.5181230000000  0.5570930000000  0.3985130000000 1.0
C      1  0.6021210000000  0.5570910000000  0.4858740000000 1.0
C      1  0.5449920000000  0.5570920000000  0.5927570000000 1.0
C      1  0.5515430000000  0.5891100000000  0.5512260000000 1.0
C      1  0.5646470000000  0.5891100000000  0.4668110000000 1.0
C      1  0.4884130000000  0.5891110000000  0.4282630000000 1.0
C      1  0.4281940000000  0.5891120000000  0.4888530000000 1.0
C      1  0.4672100000000  0.5891110000000  0.5648490000000 1.0
C      1  0.5515400000000  0.4102150000000  0.4487750000000 1.0
C      1  0.5646440000000  0.4102150000000  0.5331890000000 1.0
C      1  0.4884100000000  0.4102160000000  0.5717370000000 1.0
C      1  0.4281910000000  0.4102170000000  0.5111460000000 1.0
C      1  0.4672080000000  0.4102170000000  0.4351510000000 1.0
C      1  0.5678390000000  0.5415860000000  0.5889930000000 1.0
C      1  0.6056010000000  0.5415860000000  0.4629820000000 1.0
C      1  0.4974270000000  0.5415880000000  0.3881290000000 1.0
C      1  0.3928090000000  0.5415890000000  0.4678780000000 1.0
C      1  0.4363260000000  0.5415880000000  0.5920190000000 1.0
C      1  0.5678380000000  0.4577390000000  0.4110070000000 1.0
C      1  0.6056000000000  0.4577380000000  0.5370180000000 1.0
C      1  0.4974250000000  0.4577390000000  0.6118710000000 1.0
C      1  0.3928080000000  0.4577410000000  0.5321220000000 1.0
C      1  0.4363250000000  0.4577410000000  0.4079810000000 1.0
C      1  0.4878910000000  0.6206870000000  0.4773640000000 1.0
C      1  0.4747310000000  0.6206870000000  0.5045230000000 1.0
C      1  0.4964940000000  0.6206870000000  0.5254320000000 1.0
C      1  0.5231050000000  0.6206870000000  0.5111950000000 1.0
C      1  0.5177880000000  0.6206870000000  0.4814880000000 1.0
C      1  0.4878880000000  0.3786400000000  0.5226360000000 1.0
C      1  0.4747270000000  0.3786400000000  0.4954770000000 1.0
C      1  0.4964910000000  0.3786400000000  0.4745680000000 1.0
C      1  0.5231010000000  0.3786390000000  0.4888050000000 1.0
C      1  0.5177840000000  0.3786390000000  0.5185130000000 1.0
C      1  0.5711160000000  0.5088490000000  0.4644280000000 1.0
C      1  0.4881450000000  0.5088500000000  0.4213730000000 1.0
C      1  0.4215580000000  0.5088510000000  0.4869770000000 1.0
C      1  0.4633750000000  0.5088500000000  0.5705790000000 1.0
C      1  0.5558070000000  0.5088490000000  0.5566430000000 1.0
C      1  0.5711150000000  0.4904760000000  0.5355720000000 1.0
C      1  0.4881450000000  0.4904770000000  0.5786270000000 1.0
C      1  0.4215580000000  0.4904780000000  0.5130220000000 1.0
C      1  0.4633750000000  0.4904770000000  0.4294210000000 1.0
C      1  0.5558070000000  0.4904760000000  0.4433580000000 1.0
C      1  0.4496790000000  0.5894740000000  0.4499530000000 1.0
C      1  0.4368530000000  0.5894740000000  0.5323940000000 1.0
C      1  0.5112960000000  0.5894730000000  0.5700680000000 1.0
C      1  0.5701300000000  0.5894720000000  0.5109100000000 1.0
C      1  0.5320490000000  0.5894730000000  0.4366750000000 1.0
C      1  0.4496760000000  0.4098540000000  0.5500470000000 1.0
C      1  0.4368500000000  0.4098550000000  0.4676050000000 1.0
C      1  0.5112940000000  0.4098540000000  0.4299320000000 1.0
C      1  0.5701280000000  0.4098530000000  0.4890900000000 1.0
C      1  0.5320460000000  0.4098530000000  0.5633250000000 1.0
C      1  0.5284220000000  0.5340220000000  0.4350710000000 1.0
C      1  0.4470320000000  0.5340230000000  0.4529050000000 1.0
C      1  0.4388420000000  0.5340230000000  0.5358230000000 1.0
C      1  0.5151710000000  0.5340220000000  0.5692350000000 1.0
C      1  0.5705350000000  0.5340210000000  0.5069660000000 1.0
C      1  0.5284210000000  0.4653040000000  0.5649290000000 1.0
C      1  0.4470310000000  0.4653050000000  0.5470940000000 1.0
C      1  0.4388420000000  0.4653060000000  0.4641760000000 1.0
C      1  0.5151710000000  0.4653040000000  0.4307650000000 1.0
C      1  0.5705340000000  0.4653030000000  0.4930340000000 1.0
C      1  0.4031780000000  0.5445610000000  0.5597380000000 1.0
C      1  0.5268950000000  0.5445590000000  0.6105440000000 1.0
C      1  0.6134450000000  0.5445580000000  0.5085820000000 1.0
C      1  0.5432190000000  0.5445590000000  0.3947600000000 1.0
C      1  0.4132670000000  0.5445610000000  0.4263760000000 1.0
C      1  0.4031770000000  0.4547690000000  0.4402620000000 1.0
C      1  0.5268940000000  0.4547670000000  0.3894560000000 1.0
C      1  0.6134430000000  0.4547660000000  0.4914190000000 1.0
C      1  0.5432170000000  0.4547660000000  0.6052400000000 1.0
C      1  0.4132650000000  0.4547680000000  0.5736230000000 1.0
C      1  0.5369810000000  0.4638290000000  0.4537950000000 1.0
C      1  0.4674830000000  0.4638300000000  0.4505500000000 1.0
C      1  0.4429220000000  0.4638300000000  0.5156440000000 1.0
C      1  0.4972400000000  0.4638290000000  0.5591180000000 1.0
C      1  0.5553710000000  0.4638280000000  0.5208930000000 1.0
C      1  0.5369820000000  0.5354970000000  0.5462060000000 1.0
C      1  0.4674840000000  0.5354980000000  0.5494500000000 1.0
C      1  0.4429230000000  0.5354990000000  0.4843560000000 1.0
C      1  0.4972410000000  0.5354980000000  0.4408820000000 1.0
C      1  0.5553720000000  0.5354970000000  0.4791070000000 1.0
C      1  0.4619120000000  0.5761780000000  0.4264970000000 1.0
C      1  0.4183250000000  0.5761780000000  0.5135120000000 1.0
C      1  0.4876120000000  0.5761770000000  0.5818540000000 1.0
C      1  0.5740200000000  0.5761760000000  0.5370770000000 1.0
C      1  0.5581370000000  0.5761770000000  0.4410610000000 1.0
C      1  0.4619090000000  0.4231500000000  0.5735030000000 1.0
C      1  0.4183230000000  0.4231510000000  0.4864880000000 1.0
C      1  0.4876100000000  0.4231500000000  0.4181460000000 1.0
C      1  0.5740180000000  0.4231490000000  0.4629230000000 1.0
C      1  0.5581340000000  0.4231480000000  0.5589390000000 1.0
C      1  0.5914450000000  0.5233000000000  0.4475160000000 1.0
C      1  0.4783430000000  0.5233020000000  0.3968120000000 1.0
C      1  0.3951710000000  0.5233030000000  0.4887110000000 1.0
C      1  0.4568690000000  0.5233020000000  0.5962100000000 1.0
C      1  0.5781740000000  0.5233000000000  0.5707510000000 1.0
C      1  0.5914440000000  0.4760240000000  0.5524840000000 1.0
C      1  0.4783420000000  0.4760250000000  0.6031870000000 1.0
C      1  0.3951700000000  0.4760270000000  0.5112890000000 1.0
C      1  0.4568690000000  0.4760260000000  0.4037890000000 1.0
C      1  0.5781730000000  0.4760240000000  0.4292500000000 1.0
C      1  0.5598410000000  0.4751380000000  0.5944590000000 1.0
C      1  0.6083280000000  0.4751380000000  0.4722770000000 1.0
C      1  0.5071080000000  0.4751390000000  0.3884070000000 1.0
C      1  0.3960650000000  0.4751410000000  0.4587550000000 1.0
C      1  0.4286560000000  0.4751400000000  0.5861020000000 1.0
C      1  0.5598420000000  0.5241870000000  0.4055410000000 1.0
C      1  0.6083280000000  0.5241860000000  0.5277240000000 1.0
C      1  0.5071090000000  0.5241870000000  0.6115930000000 1.0
C      1  0.3960660000000  0.5241890000000  0.5412450000000 1.0
C      1  0.4286570000000  0.5241890000000  0.4138980000000 1.0
C      1  0.5205080000000  0.5268790000000  0.5197350000000 1.0
C      1  0.5251060000000  0.5268790000000  0.4865950000000 1.0
C      1  0.4950090000000  0.5268790000000  0.4719800000000 1.0
C      1  0.4718100000000  0.5268790000000  0.4960880000000 1.0
C      1  0.4875690000000  0.5268790000000  0.5256020000000 1.0
C      1  0.5205070000000  0.4724480000000  0.4802650000000 1.0
C      1  0.5251060000000  0.4724470000000  0.5134050000000 1.0
C      1  0.4950090000000  0.4724480000000  0.5280200000000 1.0
C      1  0.4718090000000  0.4724480000000  0.5039120000000 1.0
C      1  0.4875680000000  0.4724480000000  0.4743980000000 1.0
C      1  0.5296630000000  0.4996630000000  0.4784490000000 1.0
C      1  0.5296630000000  0.4996630000000  0.5215510000000 1.0
C      1  0.4886700000000  0.4996640000000  0.4651290000000 1.0
C      1  0.4886700000000  0.4996630000000  0.5348710000000 1.0
C      1  0.4633350000000  0.4996640000000  0.5000000000000 1.0
END
