TITL C-3577081-279-165 3.05702795540814e-07 125000 -756.337935175839 0 0 120 (C1) n - 1
REM
REM in /home/bkarasulu/work/CARBON/AIRSS/Generating-Clusters/EDIP-Nigel-Params/with-SteepDescent/Higher-Symm/SD-CG/HFTN-CG
REM
REM
REM
REM
REM
REM ./C.cell (12c818d87b63d06a65506943cc24bca4)
REM
REM compiler GCC version 9.2.1 20190827 (Red Hat 9.2.1-1)
REM options -cpp -mtune=generic -march=x86-64 -g -O0 -fpre-include=/usr/include/finclude/math-vector-fortran.h
REM seed 877680861 1133496025 -1958078654 1477812395 1989179066 1224561367 -1614445369 -256796552 673456473 -1995182296 -892735626 -2099519588 312761863 -1397913202 -6502705 2142710585 -2111437637 147599274 -1173169453 750341672 660874079 -1393496330 1467899794 1148490894 1498923097 -939930178 -1046433816 552002025 -947812022 -1540337019 -2126512736 -705891545 -452398261
REM
CELL 1.54180   50.00000   50.00000   50.00000   90.00000   90.00000   90.00000
LATT -1
SFAC C  
C      1  0.4750910000000  0.5532790000000  0.4351590000000 1.0
C      1  0.5535780000000  0.5556720000000  0.4551290000000 1.0
C      1  0.5588300000000  0.5526390000000  0.5360840000000 1.0
C      1  0.4845650000000  0.5531680000000  0.5660700000000 1.0
C      1  0.4328280000000  0.5515100000000  0.5034790000000 1.0
C      1  0.4797600000000  0.5587170000000  0.4913010000000 1.0
C      1  0.4996960000000  0.5728570000000  0.4731850000000 1.0
C      1  0.5259150000000  0.5773520000000  0.4934580000000 1.0
C      1  0.5154050000000  0.5692860000000  0.5204850000000 1.0
C      1  0.4857250000000  0.5725820000000  0.5189050000000 1.0
C      1  0.5017520000000  0.5590750000000  0.4470660000000 1.0
C      1  0.5507810000000  0.5615200000000  0.4846600000000 1.0
C      1  0.5301570000000  0.5573220000000  0.5419210000000 1.0
C      1  0.4702110000000  0.5586090000000  0.5404430000000 1.0
C      1  0.4519080000000  0.5590680000000  0.4819270000000 1.0
C      1  0.4096290000000  0.5340890000000  0.4960990000000 1.0
C      1  0.4738310000000  0.5333920000000  0.4125640000000 1.0
C      1  0.5749010000000  0.5351830000000  0.4470280000000 1.0
C      1  0.5738350000000  0.5334850000000  0.5542990000000 1.0
C      1  0.4710610000000  0.5344090000000  0.5859070000000 1.0
C      1  0.4717320000000  0.6088160000000  0.4889610000000 1.0
C      1  0.4946740000000  0.6029900000000  0.4729510000000 1.0
C      1  0.5186910000000  0.6085900000000  0.4914580000000 1.0
C      1  0.5065890000000  0.6169600000000  0.5161060000000 1.0
C      1  0.4816510000000  0.6028120000000  0.5150650000000 1.0
C      1  0.5848390000000  0.4732600000000  0.5031740000000 1.0
C      1  0.5242320000000  0.4723080000000  0.5831870000000 1.0
C      1  0.4286580000000  0.4740460000000  0.5483530000000 1.0
C      1  0.4304270000000  0.4733430000000  0.4467570000000 1.0
C      1  0.5289390000000  0.4736910000000  0.4189490000000 1.0
C      1  0.5570180000000  0.5185530000000  0.4773860000000 1.0
C      1  0.5399280000000  0.5150340000000  0.5477870000000 1.0
C      1  0.4678650000000  0.5159860000000  0.5510450000000 1.0
C      1  0.4466680000000  0.5151440000000  0.4825310000000 1.0
C      1  0.4960560000000  0.5157750000000  0.4414960000000 1.0
C      1  0.5039610000000  0.5100190000000  0.5235050000000 1.0
C      1  0.4806570000000  0.5097370000000  0.5099160000000 1.0
C      1  0.4829250000000  0.5277320000000  0.4865820000000 1.0
C      1  0.5121630000000  0.5216820000000  0.4811010000000 1.0
C      1  0.5245490000000  0.5154880000000  0.5061290000000 1.0
C      1  0.5458900000000  0.4412560000000  0.4933450000000 1.0
C      1  0.5211820000000  0.4396580000000  0.5428490000000 1.0
C      1  0.4657170000000  0.4404040000000  0.5339020000000 1.0
C      1  0.4577950000000  0.4415220000000  0.4784620000000 1.0
C      1  0.5070900000000  0.4422120000000  0.4537260000000 1.0
C      1  0.5159620000000  0.4996110000000  0.4606870000000 1.0
C      1  0.5458540000000  0.4946390000000  0.5031790000000 1.0
C      1  0.5122450000000  0.4930370000000  0.5457880000000 1.0
C      1  0.4607370000000  0.4947900000000  0.5257300000000 1.0
C      1  0.4630010000000  0.4927640000000  0.4696550000000 1.0
C      1  0.4508910000000  0.5513400000000  0.4530030000000 1.0
C      1  0.5290240000000  0.5521140000000  0.4378280000000 1.0
C      1  0.5670320000000  0.5498870000000  0.5073920000000 1.0
C      1  0.5142380000000  0.5493910000000  0.5658250000000 1.0
C      1  0.4431220000000  0.5495110000000  0.5316090000000 1.0
C      1  0.5497920000000  0.5157380000000  0.5772250000000 1.0
C      1  0.4428400000000  0.5174880000000  0.5697180000000 1.0
C      1  0.4181840000000  0.5182860000000  0.4684020000000 1.0
C      1  0.5052440000000  0.5170970000000  0.4119150000000 1.0
C      1  0.5880720000000  0.5170160000000  0.4772480000000 1.0
C      1  0.5556490000000  0.5147140000000  0.4264870000000 1.0
C      1  0.5889930000000  0.5136770000000  0.5306690000000 1.0
C      1  0.4984390000000  0.5134880000000  0.5931600000000 1.0
C      1  0.4124630000000  0.5152970000000  0.5249880000000 1.0
C      1  0.4475480000000  0.5142010000000  0.4242510000000 1.0
C      1  0.4314490000000  0.5313570000000  0.4441320000000 1.0
C      1  0.5318620000000  0.5311320000000  0.4174330000000 1.0
C      1  0.5892050000000  0.5303970000000  0.5048830000000 1.0
C      1  0.5234580000000  0.5296650000000  0.5859400000000 1.0
C      1  0.4266100000000  0.5311950000000  0.5471280000000 1.0
C      1  0.4798010000000  0.4184980000000  0.5164840000000 1.0
C      1  0.4779900000000  0.4193090000000  0.4864730000000 1.0
C      1  0.5058110000000  0.4196890000000  0.4753720000000 1.0
C      1  0.5249550000000  0.4188540000000  0.4984420000000 1.0
C      1  0.5089710000000  0.4180400000000  0.5238950000000 1.0
C      1  0.6000390000000  0.4824980000000  0.5265070000000 1.0
C      1  0.5055950000000  0.4831720000000  0.6032360000000 1.0
C      1  0.4046520000000  0.4855850000000  0.5357840000000 1.0
C      1  0.4352460000000  0.4844520000000  0.4196380000000 1.0
C      1  0.5557030000000  0.4848740000000  0.4144620000000 1.0
C      1  0.4138500000000  0.4874150000000  0.4671580000000 1.0
C      1  0.5049520000000  0.4866980000000  0.4088110000000 1.0
C      1  0.5874340000000  0.4862360000000  0.4772360000000 1.0
C      1  0.5503500000000  0.4845700000000  0.5780390000000 1.0
C      1  0.4417840000000  0.4865020000000  0.5713230000000 1.0
C      1  0.5738430000000  0.4462050000000  0.5057340000000 1.0
C      1  0.5174350000000  0.4454070000000  0.5733230000000 1.0
C      1  0.4355970000000  0.4468050000000  0.5396630000000 1.0
C      1  0.4421090000000  0.4462930000000  0.4514850000000 1.0
C      1  0.5279380000000  0.4469670000000  0.4309960000000 1.0
C      1  0.4700100000000  0.4765980000000  0.5721800000000 1.0
C      1  0.4229250000000  0.4776110000000  0.4936900000000 1.0
C      1  0.4817670000000  0.4769860000000  0.4246700000000 1.0
C      1  0.5644970000000  0.4779860000000  0.4602790000000 1.0
C      1  0.5596280000000  0.4753950000000  0.5510140000000 1.0
C      1  0.5467810000000  0.5016620000000  0.4546760000000 1.0
C      1  0.5590240000000  0.4984180000000  0.5315770000000 1.0
C      1  0.4885570000000  0.4991160000000  0.5655050000000 1.0
C      1  0.4360990000000  0.5005890000000  0.5080930000000 1.0
C      1  0.4711460000000  0.4994400000000  0.4412600000000 1.0
C      1  0.4817170000000  0.4650400000000  0.5971290000000 1.0
C      1  0.4026200000000  0.4665300000000  0.5122780000000 1.0
C      1  0.4577530000000  0.4655960000000  0.4110360000000 1.0
C      1  0.5705610000000  0.4663690000000  0.4335270000000 1.0
C      1  0.5869770000000  0.4638080000000  0.5470180000000 1.0
C      1  0.5763260000000  0.4384280000000  0.5335800000000 1.0
C      1  0.4909600000000  0.4393620000000  0.5835750000000 1.0
C      1  0.4179190000000  0.4407040000000  0.5175150000000 1.0
C      1  0.4577080000000  0.4400210000000  0.4277630000000 1.0
C      1  0.5552240000000  0.4406610000000  0.4384310000000 1.0
C      1  0.4755410000000  0.4684900000000  0.4854830000000 1.0
C      1  0.5059820000000  0.4693950000000  0.4737160000000 1.0
C      1  0.5277230000000  0.4677130000000  0.4986390000000 1.0
C      1  0.5109120000000  0.4660770000000  0.5269980000000 1.0
C      1  0.4784820000000  0.4663980000000  0.5197700000000 1.0
C      1  0.5495340000000  0.4338250000000  0.5409150000000 1.0
C      1  0.4760170000000  0.4346500000000  0.5603040000000 1.0
C      1  0.4359630000000  0.4357360000000  0.4965540000000 1.0
C      1  0.4832570000000  0.4354020000000  0.4386480000000 1.0
C      1  0.5530580000000  0.4358630000000  0.4659520000000 1.0
END
