TITL C-3578208-4450-527 -2.26372238671903e-06 125000 -1039.05180838694 0 0 165 (C1) n - 1
REM
REM in /home/bkarasulu/work/CARBON/AIRSS/Generating-Clusters/EDIP-Nigel-Params/with-SteepDescent/Higher-Symm/SD-CG/HFTN-CG
REM
REM
REM
REM
REM
REM ./C.cell (12c818d87b63d06a65506943cc24bca4)
REM
REM compiler GCC version 9.2.1 20190827 (Red Hat 9.2.1-1)
REM options -cpp -mtune=generic -march=x86-64 -g -O0 -fpre-include=/usr/include/finclude/math-vector-fortran.h
REM seed 34543658 1239535879 1784411439 2093151611 710914282 920144153 191612527 -773795052 -1369103164 -1425619039 -821348910 1649920975 1228852145 -1007618237 857450271 1984960084 335833974 670380309 -1644222470 1251630097 595079619 -38767884 1535601446 686382056 492265080 420684048 -1656185925 -928028725 1237525600 1336287430 228592756 119849042 -13203515
REM
CELL 1.54180   50.00000   50.00000   50.00000   90.00000   90.00000   90.00000
LATT -1
SFAC C  
C      1  0.5096790000000  0.5600300000000  0.5944340000000 1.0
C      1  0.4924030000000  0.4388350000000  0.5812290000000 1.0
C      1  0.5162560000000  0.5497610000000  0.4191950000000 1.0
C      1  0.4889210000000  0.4390280000000  0.4177210000000 1.0
C      1  0.5436850000000  0.4762630000000  0.4829360000000 1.0
C      1  0.4615220000000  0.5470420000000  0.4917930000000 1.0
C      1  0.5557330000000  0.4800790000000  0.5109320000000 1.0
C      1  0.4416580000000  0.5484710000000  0.5111900000000 1.0
C      1  0.5896770000000  0.5070310000000  0.5065790000000 1.0
C      1  0.4075180000000  0.4860480000000  0.5154020000000 1.0
C      1  0.5950950000000  0.5035230000000  0.4775470000000 1.0
C      1  0.4124790000000  0.4945990000000  0.4860350000000 1.0
C      1  0.4284060000000  0.4105650000000  0.4876820000000 1.0
C      1  0.5545900000000  0.5801610000000  0.4925280000000 1.0
C      1  0.4322760000000  0.4144590000000  0.5162640000000 1.0
C      1  0.5559790000000  0.5777800000000  0.5217740000000 1.0
C      1  0.4203340000000  0.4366860000000  0.4770620000000 1.0
C      1  0.5698770000000  0.5580120000000  0.4810490000000 1.0
C      1  0.4177180000000  0.4372000000000  0.5294100000000 1.0
C      1  0.5665470000000  0.5452460000000  0.5313360000000 1.0
C      1  0.4674970000000  0.4926890000000  0.5620330000000 1.0
C      1  0.5366000000000  0.5191360000000  0.5654120000000 1.0
C      1  0.4664990000000  0.4924930000000  0.4402330000000 1.0
C      1  0.5281460000000  0.5002680000000  0.4351910000000 1.0
C      1  0.5536520000000  0.4948980000000  0.3866960000000 1.0
C      1  0.4525070000000  0.5011390000000  0.3969510000000 1.0
C      1  0.5563020000000  0.5022870000000  0.6075230000000 1.0
C      1  0.4493190000000  0.4959020000000  0.6067260000000 1.0
C      1  0.4612240000000  0.5721110000000  0.4278200000000 1.0
C      1  0.5452500000000  0.4284320000000  0.4348380000000 1.0
C      1  0.4572730000000  0.5646050000000  0.5698290000000 1.0
C      1  0.5496350000000  0.4335460000000  0.5648810000000 1.0
C      1  0.5906550000000  0.5352400000000  0.5163090000000 1.0
C      1  0.3987870000000  0.4554930000000  0.5153410000000 1.0
C      1  0.5939950000000  0.5533020000000  0.4950510000000 1.0
C      1  0.3962490000000  0.4456880000000  0.4890820000000 1.0
C      1  0.5776210000000  0.4668630000000  0.4495700000000 1.0
C      1  0.4308840000000  0.5350970000000  0.4580530000000 1.0
C      1  0.5780840000000  0.4752870000000  0.5434520000000 1.0
C      1  0.4202970000000  0.5286460000000  0.5476330000000 1.0
C      1  0.5537510000000  0.5839520000000  0.5736290000000 1.0
C      1  0.4467020000000  0.4223930000000  0.5576410000000 1.0
C      1  0.5573570000000  0.5682340000000  0.4398480000000 1.0
C      1  0.4430980000000  0.4259790000000  0.4407330000000 1.0
C      1  0.5203060000000  0.4163080000000  0.4505060000000 1.0
C      1  0.4876530000000  0.5837750000000  0.4399980000000 1.0
C      1  0.5232270000000  0.4210110000000  0.5458570000000 1.0
C      1  0.4806420000000  0.5780370000000  0.5534680000000 1.0
C      1  0.4648360000000  0.5398760000000  0.5841710000000 1.0
C      1  0.5417540000000  0.4531060000000  0.5872600000000 1.0
C      1  0.4684990000000  0.5474650000000  0.4115780000000 1.0
C      1  0.5385410000000  0.4509310000000  0.4165610000000 1.0
C      1  0.4729560000000  0.4841890000000  0.4119790000000 1.0
C      1  0.5331290000000  0.5155310000000  0.3943280000000 1.0
C      1  0.4710110000000  0.4818550000000  0.5907990000000 1.0
C      1  0.5341480000000  0.5195630000000  0.5963460000000 1.0
C      1  0.5126640000000  0.4613680000000  0.5829480000000 1.0
C      1  0.4903260000000  0.5378140000000  0.5983140000000 1.0
C      1  0.5113880000000  0.4566160000000  0.4105240000000 1.0
C      1  0.4951550000000  0.5422440000000  0.3998800000000 1.0
C      1  0.5589140000000  0.4785940000000  0.5895680000000 1.0
C      1  0.4436410000000  0.5220080000000  0.5930720000000 1.0
C      1  0.5578930000000  0.4701590000000  0.4051010000000 1.0
C      1  0.4511840000000  0.5249060000000  0.4138130000000 1.0
C      1  0.4798490000000  0.5250680000000  0.4473680000000 1.0
C      1  0.5095090000000  0.4719560000000  0.4521790000000 1.0
C      1  0.4836380000000  0.5256450000000  0.5469550000000 1.0
C      1  0.5160100000000  0.4712850000000  0.5537940000000 1.0
C      1  0.4690180000000  0.4105330000000  0.5455540000000 1.0
C      1  0.5299180000000  0.5916890000000  0.5616290000000 1.0
C      1  0.4636350000000  0.4102310000000  0.4519940000000 1.0
C      1  0.5357340000000  0.5852170000000  0.4469050000000 1.0
C      1  0.5260860000000  0.5373720000000  0.4690270000000 1.0
C      1  0.4705080000000  0.4490690000000  0.4718210000000 1.0
C      1  0.5218290000000  0.5416930000000  0.5243400000000 1.0
C      1  0.4773650000000  0.4597530000000  0.5245130000000 1.0
C      1  0.4192150000000  0.4966790000000  0.4260910000000 1.0
C      1  0.5860760000000  0.5029120000000  0.4153770000000 1.0
C      1  0.4181220000000  0.4882180000000  0.5763310000000 1.0
C      1  0.5840790000000  0.5163300000000  0.5757240000000 1.0
C      1  0.5224930000000  0.4482480000000  0.5321710000000 1.0
C      1  0.4795370000000  0.5542260000000  0.5313830000000 1.0
C      1  0.5172350000000  0.4431500000000  0.4661280000000 1.0
C      1  0.4886800000000  0.5607890000000  0.4602100000000 1.0
C      1  0.4091440000000  0.5227320000000  0.4770130000000 1.0
C      1  0.6002340000000  0.4758040000000  0.4674780000000 1.0
C      1  0.3985500000000  0.5124840000000  0.5309180000000 1.0
C      1  0.5979260000000  0.4844160000000  0.5232350000000 1.0
C      1  0.5116040000000  0.6080570000000  0.5192900000000 1.0
C      1  0.5021030000000  0.3924980000000  0.5128430000000 1.0
C      1  0.5079960000000  0.6048540000000  0.4894140000000 1.0
C      1  0.4982410000000  0.4050950000000  0.4869110000000 1.0
C      1  0.5166860000000  0.4891800000000  0.4765450000000 1.0
C      1  0.4616410000000  0.4998330000000  0.4875390000000 1.0
C      1  0.5018580000000  0.5023020000000  0.5216250000000 1.0
C      1  0.4514220000000  0.5020300000000  0.5160310000000 1.0
C      1  0.3844960000000  0.5288630000000  0.5134900000000 1.0
C      1  0.6101050000000  0.4639340000000  0.5090060000000 1.0
C      1  0.3881790000000  0.5374080000000  0.4882560000000 1.0
C      1  0.6150390000000  0.4580560000000  0.4833320000000 1.0
C      1  0.5050720000000  0.4860050000000  0.4107610000000 1.0
C      1  0.5043000000000  0.5165090000000  0.3880220000000 1.0
C      1  0.4989390000000  0.4847510000000  0.5988690000000 1.0
C      1  0.5064730000000  0.5126910000000  0.6019530000000 1.0
C      1  0.4948570000000  0.4354510000000  0.4856610000000 1.0
C      1  0.5112790000000  0.5594830000000  0.4797660000000 1.0
C      1  0.4998350000000  0.4476020000000  0.5122080000000 1.0
C      1  0.5017640000000  0.5539190000000  0.5084980000000 1.0
C      1  0.4425580000000  0.5669190000000  0.4528670000000 1.0
C      1  0.5638790000000  0.4396860000000  0.4561220000000 1.0
C      1  0.4331870000000  0.5618960000000  0.5527610000000 1.0
C      1  0.5683560000000  0.4450910000000  0.5436880000000 1.0
C      1  0.4395570000000  0.4775080000000  0.5574420000000 1.0
C      1  0.5633590000000  0.5352970000000  0.5626760000000 1.0
C      1  0.4379310000000  0.4803680000000  0.4432490000000 1.0
C      1  0.5647190000000  0.5180640000000  0.4309760000000 1.0
C      1  0.4259450000000  0.4905000000000  0.3988580000000 1.0
C      1  0.5799890000000  0.5068550000000  0.3876290000000 1.0
C      1  0.4246620000000  0.4815580000000  0.6035100000000 1.0
C      1  0.5806130000000  0.5171510000000  0.6042130000000 1.0
C      1  0.4908970000000  0.4170220000000  0.4381180000000 1.0
C      1  0.5138440000000  0.5788300000000  0.4279040000000 1.0
C      1  0.4948290000000  0.4201970000000  0.5581880000000 1.0
C      1  0.5059830000000  0.5779060000000  0.5708850000000 1.0
C      1  0.5374050000000  0.5492640000000  0.6009990000000 1.0
C      1  0.4664650000000  0.4521910000000  0.5874060000000 1.0
C      1  0.5409690000000  0.5430500000000  0.4035840000000 1.0
C      1  0.4646410000000  0.4551540000000  0.4118160000000 1.0
C      1  0.5527890000000  0.5330190000000  0.4816220000000 1.0
C      1  0.4439730000000  0.4544180000000  0.4850060000000 1.0
C      1  0.5462000000000  0.5286290000000  0.5146840000000 1.0
C      1  0.4481440000000  0.4555180000000  0.5152880000000 1.0
C      1  0.5283300000000  0.4015610000000  0.4854770000000 1.0
C      1  0.4772900000000  0.5962870000000  0.4942700000000 1.0
C      1  0.5275280000000  0.4013470000000  0.5223830000000 1.0
C      1  0.4827270000000  0.6008030000000  0.5255170000000 1.0
C      1  0.5320280000000  0.5914330000000  0.5330040000000 1.0
C      1  0.4604440000000  0.4055990000000  0.5178490000000 1.0
C      1  0.5281070000000  0.5844310000000  0.4771250000000 1.0
C      1  0.4552090000000  0.4023440000000  0.4797940000000 1.0
C      1  0.4891310000000  0.4818100000000  0.5417030000000 1.0
C      1  0.5138790000000  0.5329600000000  0.5505250000000 1.0
C      1  0.4805930000000  0.4731540000000  0.4575260000000 1.0
C      1  0.5135670000000  0.5275150000000  0.4434440000000 1.0
C      1  0.5571110000000  0.4867370000000  0.4590310000000 1.0
C      1  0.4586620000000  0.5257440000000  0.4715600000000 1.0
C      1  0.5389590000000  0.4923600000000  0.5523800000000 1.0
C      1  0.4464540000000  0.5267320000000  0.5300940000000 1.0
C      1  0.4413900000000  0.4517560000000  0.4294540000000 1.0
C      1  0.5630460000000  0.5467230000000  0.4222350000000 1.0
C      1  0.4452540000000  0.4485170000000  0.5680120000000 1.0
C      1  0.5589130000000  0.5582590000000  0.5826020000000 1.0
C      1  0.4273740000000  0.5245160000000  0.4302000000000 1.0
C      1  0.5826920000000  0.4735330000000  0.4204960000000 1.0
C      1  0.4210690000000  0.5168950000000  0.5750240000000 1.0
C      1  0.5792330000000  0.4874060000000  0.5704690000000 1.0
C      1  0.5363600000000  0.4996670000000  0.5235310000000 1.0
C      1  0.4354600000000  0.4804030000000  0.5265870000000 1.0
C      1  0.5702120000000  0.5137840000000  0.4634240000000 1.0
C      1  0.4374930000000  0.4821110000000  0.4749910000000 1.0
C      1  0.4441130000000  0.5708180000000  0.5277750000000 1.0
C      1  0.5499550000000  0.4514310000000  0.5208680000000 1.0
C      1  0.4645070000000  0.5712890000000  0.4759860000000 1.0
C      1  0.5440360000000  0.4468090000000  0.4777100000000 1.0
C      1  0.4932150000000  0.4953360000000  0.4937760000000 1.0
END
