TITL C-3577088-510-50 3.84344853236552e-07 125000 -444.190102492775 0 0 72 (C1) n - 1
REM
REM in /home/bkarasulu/work/CARBON/AIRSS/Generating-Clusters/EDIP-Nigel-Params/with-SteepDescent/Higher-Symm/SD-CG/HFTN-CG
REM
REM
REM
REM
REM
REM ./C.cell (12c818d87b63d06a65506943cc24bca4)
REM
REM compiler GCC version 9.2.1 20190827 (Red Hat 9.2.1-1)
REM options -cpp -mtune=generic -march=x86-64 -g -O0 -fpre-include=/usr/include/finclude/math-vector-fortran.h
REM seed -1203781547 -408888382 -1413252752 -1843029719 1904692445 -852754778 -498001169 -2090561401 -1597905258 -2135536090 -540640234 -233258089 -1271217446 548490132 -739969208 -708614670 1902799833 1874377233 660234634 -1640273996 1452339186 893211773 2069323555 -1818422148 -75175382 -2049487412 -1163213688 856463268 -204249124 866070309 194493175 834885527 -396241609
REM
CELL 1.54180   50.00000   50.00000   50.00000   90.00000   90.00000   90.00000
LATT -1
SFAC C  
C      1  0.5159640000000  0.4803820000000  0.5861690000000 1.0
C      1  0.4854190000000  0.4906470000000  0.4159160000000 1.0
C      1  0.4874450000000  0.5058550000000  0.5775250000000 1.0
C      1  0.4825500000000  0.5187690000000  0.4143890000000 1.0
C      1  0.5151620000000  0.5095950000000  0.5843290000000 1.0
C      1  0.5126760000000  0.4920910000000  0.4228740000000 1.0
C      1  0.4499440000000  0.4558620000000  0.5428510000000 1.0
C      1  0.4426280000000  0.5174700000000  0.4531500000000 1.0
C      1  0.4781280000000  0.5754430000000  0.5457780000000 1.0
C      1  0.5503450000000  0.5448980000000  0.4575370000000 1.0
C      1  0.5570660000000  0.4809680000000  0.5476360000000 1.0
C      1  0.5213460000000  0.4237070000000  0.4537110000000 1.0
C      1  0.4947180000000  0.4309290000000  0.4598010000000 1.0
C      1  0.4374220000000  0.4793720000000  0.5341530000000 1.0
C      1  0.4467030000000  0.5455270000000  0.4602290000000 1.0
C      1  0.5055360000000  0.5704220000000  0.5407220000000 1.0
C      1  0.5625750000000  0.5213050000000  0.4666010000000 1.0
C      1  0.5528900000000  0.4530500000000  0.5399790000000 1.0
C      1  0.5117300000000  0.4203880000000  0.5046590000000 1.0
C      1  0.4448620000000  0.4604270000000  0.4887530000000 1.0
C      1  0.4282240000000  0.5284200000000  0.5053350000000 1.0
C      1  0.4875130000000  0.5798120000000  0.4953000000000 1.0
C      1  0.5516550000000  0.5391340000000  0.5120470000000 1.0
C      1  0.5722740000000  0.4708080000000  0.4947170000000 1.0
C      1  0.4904160000000  0.4830770000000  0.4943470000000 1.0
C      1  0.4548780000000  0.5157230000000  0.5108820000000 1.0
C      1  0.4816880000000  0.5520920000000  0.4858540000000 1.0
C      1  0.5156070000000  0.5244010000000  0.5069250000000 1.0
C      1  0.5457620000000  0.4830830000000  0.4881560000000 1.0
C      1  0.5184540000000  0.4482140000000  0.5132950000000 1.0
C      1  0.4903580000000  0.5364740000000  0.4355280000000 1.0
C      1  0.5287260000000  0.5208700000000  0.5602470000000 1.0
C      1  0.5164080000000  0.4959890000000  0.4517630000000 1.0
C      1  0.5087900000000  0.4628350000000  0.5639300000000 1.0
C      1  0.4715150000000  0.4791350000000  0.4395030000000 1.0
C      1  0.4844020000000  0.5040080000000  0.5480030000000 1.0
C      1  0.4677210000000  0.5023750000000  0.4598650000000 1.0
C      1  0.4966180000000  0.5285770000000  0.5309180000000 1.0
C      1  0.4964840000000  0.5181180000000  0.4580900000000 1.0
C      1  0.5321050000000  0.4960680000000  0.5405750000000 1.0
C      1  0.5038300000000  0.4729630000000  0.4692730000000 1.0
C      1  0.5039420000000  0.4816300000000  0.5417290000000 1.0
C      1  0.5366520000000  0.5626130000000  0.4994930000000 1.0
C      1  0.5832080000000  0.4958440000000  0.5084560000000 1.0
C      1  0.5489670000000  0.4230610000000  0.4958610000000 1.0
C      1  0.4627850000000  0.4392350000000  0.5002010000000 1.0
C      1  0.4162070000000  0.5039410000000  0.4922640000000 1.0
C      1  0.4503250000000  0.5759670000000  0.5038960000000 1.0
C      1  0.4553390000000  0.5024840000000  0.5371220000000 1.0
C      1  0.4715850000000  0.5554720000000  0.4488600000000 1.0
C      1  0.5195230000000  0.5488470000000  0.5548700000000 1.0
C      1  0.5454270000000  0.4977530000000  0.4625960000000 1.0
C      1  0.5275020000000  0.4436200000000  0.5506250000000 1.0
C      1  0.4810670000000  0.4520250000000  0.4455690000000 1.0
C      1  0.4942910000000  0.4652090000000  0.5183960000000 1.0
C      1  0.4641290000000  0.4929990000000  0.4886250000000 1.0
C      1  0.4731840000000  0.5393800000000  0.5142940000000 1.0
C      1  0.5064340000000  0.5366170000000  0.4800800000000 1.0
C      1  0.5363670000000  0.5033660000000  0.5117370000000 1.0
C      1  0.5272650000000  0.4600200000000  0.4845370000000 1.0
C      1  0.5289160000000  0.5559560000000  0.4715620000000 1.0
C      1  0.5798820000000  0.4926420000000  0.5362470000000 1.0
C      1  0.5401090000000  0.4361550000000  0.4706070000000 1.0
C      1  0.4710980000000  0.4464430000000  0.5271120000000 1.0
C      1  0.4196140000000  0.5060980000000  0.4644200000000 1.0
C      1  0.4597710000000  0.5626450000000  0.5286020000000 1.0
C      1  0.4266380000000  0.4775110000000  0.5054340000000 1.0
C      1  0.4364480000000  0.5536460000000  0.4880250000000 1.0
C      1  0.5115880000000  0.5740380000000  0.5121650000000 1.0
C      1  0.5722730000000  0.5226530000000  0.4955930000000 1.0
C      1  0.5628720000000  0.4454580000000  0.5118640000000 1.0
C      1  0.4880540000000  0.4273910000000  0.4878420000000 1.0
END
