TITL C-3578196-9646-53 2.78625881249615e-06 125000 -434.683428877554 0 0 71 (C1) n - 1
REM
REM in /home/bkarasulu/work/CARBON/AIRSS/Generating-Clusters/EDIP-Nigel-Params/with-SteepDescent/Higher-Symm/SD-CG/HFTN-CG
REM
REM
REM
REM
REM
REM ./C.cell (12c818d87b63d06a65506943cc24bca4)
REM
REM compiler GCC version 9.2.1 20190827 (Red Hat 9.2.1-1)
REM options -cpp -mtune=generic -march=x86-64 -g -O0 -fpre-include=/usr/include/finclude/math-vector-fortran.h
REM seed -488249921 -893174344 -2126720763 1984389846 1427447571 655863746 -200048403 -2115923845 -1978986830 -1755570567 -1352913167 -266377969 965327760 -1123055524 29780713 -699211770 1451740297 -1547521264 1462431308 -1441777409 -1033755896 47311306 -2116971520 -242969046 -1629648697 -374658777 -2068046317 -1878435413 61515578 879604588 409482158 1074304332 304570096
REM
CELL 1.54180   50.00000   50.00000   50.00000   90.00000   90.00000   90.00000
LATT -1
SFAC C  
C      1  0.4794050000000  0.4247770000000  0.5233740000000 1.0
C      1  0.5266680000000  0.5687430000000  0.5176380000000 1.0
C      1  0.5227660000000  0.4298130000000  0.4789640000000 1.0
C      1  0.4804480000000  0.5659650000000  0.4814640000000 1.0
C      1  0.5198560000000  0.4648380000000  0.5383440000000 1.0
C      1  0.5349420000000  0.5327710000000  0.4767460000000 1.0
C      1  0.4819120000000  0.4654740000000  0.4676840000000 1.0
C      1  0.4597530000000  0.5435350000000  0.5226110000000 1.0
C      1  0.5624460000000  0.5315690000000  0.4893190000000 1.0
C      1  0.4972320000000  0.4751930000000  0.4447470000000 1.0
C      1  0.4385460000000  0.5308280000000  0.5048950000000 1.0
C      1  0.5020670000000  0.4669510000000  0.5619440000000 1.0
C      1  0.5622210000000  0.4811500000000  0.5487130000000 1.0
C      1  0.5425370000000  0.5238280000000  0.4337430000000 1.0
C      1  0.4353630000000  0.4798690000000  0.4557960000000 1.0
C      1  0.4546350000000  0.5209780000000  0.5665030000000 1.0
C      1  0.5062530000000  0.5753710000000  0.4708590000000 1.0
C      1  0.4722190000000  0.4270250000000  0.4943850000000 1.0
C      1  0.4987670000000  0.5707700000000  0.5287890000000 1.0
C      1  0.5306600000000  0.4250070000000  0.5072250000000 1.0
C      1  0.4794130000000  0.4959490000000  0.4331710000000 1.0
C      1  0.4315770000000  0.5063560000000  0.5213970000000 1.0
C      1  0.5159580000000  0.4893230000000  0.5751810000000 1.0
C      1  0.5705540000000  0.5064350000000  0.4753510000000 1.0
C      1  0.4728140000000  0.4675130000000  0.5533160000000 1.0
C      1  0.5641500000000  0.5308290000000  0.5190480000000 1.0
C      1  0.5275460000000  0.4717170000000  0.4470700000000 1.0
C      1  0.4482030000000  0.5288110000000  0.4763090000000 1.0
C      1  0.4761970000000  0.5172080000000  0.5275650000000 1.0
C      1  0.5313060000000  0.4975410000000  0.5220110000000 1.0
C      1  0.5199740000000  0.5004260000000  0.4723640000000 1.0
C      1  0.4686130000000  0.4905690000000  0.4831380000000 1.0
C      1  0.5616670000000  0.4992040000000  0.5227840000000 1.0
C      1  0.5207450000000  0.5171650000000  0.4159150000000 1.0
C      1  0.4172800000000  0.4864870000000  0.4772030000000 1.0
C      1  0.4738940000000  0.5133740000000  0.5857750000000 1.0
C      1  0.4907120000000  0.5557470000000  0.5534330000000 1.0
C      1  0.5529500000000  0.4438000000000  0.5142890000000 1.0
C      1  0.5136110000000  0.5636540000000  0.4444290000000 1.0
C      1  0.4484950000000  0.4434200000000  0.4871590000000 1.0
C      1  0.5203910000000  0.5257520000000  0.5247210000000 1.0
C      1  0.5242990000000  0.4810910000000  0.4972550000000 1.0
C      1  0.4869120000000  0.5256160000000  0.4651800000000 1.0
C      1  0.4758840000000  0.4688910000000  0.5209660000000 1.0
C      1  0.5500080000000  0.4647460000000  0.4922190000000 1.0
C      1  0.4970310000000  0.5386060000000  0.4387670000000 1.0
C      1  0.4515640000000  0.4701120000000  0.5017460000000 1.0
C      1  0.4984660000000  0.5273000000000  0.5464600000000 1.0
C      1  0.4991670000000  0.5133570000000  0.5732640000000 1.0
C      1  0.5710000000000  0.4858760000000  0.4964850000000 1.0
C      1  0.4920060000000  0.5175860000000  0.4170120000000 1.0
C      1  0.4249440000000  0.4831390000000  0.5044790000000 1.0
C      1  0.4548220000000  0.5006560000000  0.5427510000000 1.0
C      1  0.5433530000000  0.4915640000000  0.5671950000000 1.0
C      1  0.5521190000000  0.5009460000000  0.4510490000000 1.0
C      1  0.4537910000000  0.5023200000000  0.4486990000000 1.0
C      1  0.5483830000000  0.4551660000000  0.5418630000000 1.0
C      1  0.5376570000000  0.5476980000000  0.4504570000000 1.0
C      1  0.4525650000000  0.4554230000000  0.4598100000000 1.0
C      1  0.4597690000000  0.5488510000000  0.5544990000000 1.0
C      1  0.5083990000000  0.4255150000000  0.5260460000000 1.0
C      1  0.5270370000000  0.5746090000000  0.4900560000000 1.0
C      1  0.4940530000000  0.4299530000000  0.4747140000000 1.0
C      1  0.4777480000000  0.5633780000000  0.5099440000000 1.0
C      1  0.4638730000000  0.4398330000000  0.5435780000000 1.0
C      1  0.5471910000000  0.5519260000000  0.5315320000000 1.0
C      1  0.5401190000000  0.4512930000000  0.4660180000000 1.0
C      1  0.4599910000000  0.5532330000000  0.4658780000000 1.0
C      1  0.5082520000000  0.5349530000000  0.4954310000000 1.0
C      1  0.5017480000000  0.4582230000000  0.5055750000000 1.0
C      1  0.4881340000000  0.5063740000000  0.5016760000000 1.0
END
