TITL C-3578204-4308-63 -6.63741725707448e-07 125000 -58.8172222953694 0 0 11 (Cs) n - 1
REM
REM in /home/bkarasulu/work/CARBON/AIRSS/Generating-Clusters/EDIP-Nigel-Params/with-SteepDescent/Higher-Symm/SD-CG/HFTN-CG
REM
REM
REM
REM
REM
REM ./C.cell (12c818d87b63d06a65506943cc24bca4)
REM
REM compiler GCC version 9.2.1 20190827 (Red Hat 9.2.1-1)
REM options -cpp -mtune=generic -march=x86-64 -g -O0 -fpre-include=/usr/include/finclude/math-vector-fortran.h
REM seed -1753566282 2049883902 -648668709 1646948177 1303729814 774478083 1328390918 649056771 165486366 -231999753 1222100231 1547332930 -132020416 1926618403 -1579953785 1674067336 928317128 -1062646341 -1811033839 -332363063 774144324 -1377529325 -1068757562 206031220 -1883809320 1931537663 1341013865 -1036230420 297216042 -1047722257 -818110051 577703445 1887267035
REM
CELL 1.54180   50.00000   50.00000   50.00000   90.00000   90.00000   90.00000
LATT -1
SFAC C  
C      1  0.4942520000000  0.4964720000000  0.4648590000000 1.0
C      1  0.4597120000000  0.4975700000000  0.4967990000000 1.0
C      1  0.4916400000000  0.4639820000000  0.4986230000000 1.0
C      1  0.4912190000000  0.4971970000000  0.5308290000000 1.0
C      1  0.5492490000000  0.4955290000000  0.5000730000000 1.0
C      1  0.4938280000000  0.5299770000000  0.4973450000000 1.0
C      1  0.5088490000000  0.4779060000000  0.4804730000000 1.0
C      1  0.4779660000000  0.5129570000000  0.4811680000000 1.0
C      1  0.4744880000000  0.4806490000000  0.5144440000000 1.0
C      1  0.5083780000000  0.5151330000000  0.5165680000000 1.0
C      1  0.5228380000000  0.4903880000000  0.5050300000000 1.0
END
