TITL C-3577079-311-111 -2.2626752191307e-06 125000 -489.375281659124 0 0 79 (C1) n - 1
REM
REM in /home/bkarasulu/work/CARBON/AIRSS/Generating-Clusters/EDIP-Nigel-Params/with-SteepDescent/Higher-Symm/SD-CG/HFTN-CG
REM
REM
REM
REM
REM
REM ./C.cell (12c818d87b63d06a65506943cc24bca4)
REM
REM compiler GCC version 9.2.1 20190827 (Red Hat 9.2.1-1)
REM options -cpp -mtune=generic -march=x86-64 -g -O0 -fpre-include=/usr/include/finclude/math-vector-fortran.h
REM seed 401518688 1242043361 2141912138 -2009066297 291047746 -1682722360 -1975630008 -950437172 538577166 316016527 -640798189 -103920110 9061601 -1533732837 -923770579 -1938798068 -789692185 -1341446783 -1697594958 -1507191256 1152476155 1394926322 933508319 -1934007266 241588998 1319778429 1412949869 -1391782421 -1841334530 395972542 1262992155 -822543667 -1612410230
REM
CELL 1.54180   50.00000   50.00000   50.00000   90.00000   90.00000   90.00000
LATT -1
SFAC C  
C      1  0.5299840000000  0.4122910000000  0.4781930000000 1.0
C      1  0.5553850000000  0.5708560000000  0.4827590000000 1.0
C      1  0.4081870000000  0.5160540000000  0.4852470000000 1.0
C      1  0.5340870000000  0.4127840000000  0.5159840000000 1.0
C      1  0.5584500000000  0.5699350000000  0.5207250000000 1.0
C      1  0.4061470000000  0.5087360000000  0.5227510000000 1.0
C      1  0.5304890000000  0.5850820000000  0.4801650000000 1.0
C      1  0.5551660000000  0.4265620000000  0.4811770000000 1.0
C      1  0.4071080000000  0.4867990000000  0.4887500000000 1.0
C      1  0.5331190000000  0.5835100000000  0.5179310000000 1.0
C      1  0.5589940000000  0.4274490000000  0.5190060000000 1.0
C      1  0.4079070000000  0.4797860000000  0.5265750000000 1.0
C      1  0.4732430000000  0.4267200000000  0.4820430000000 1.0
C      1  0.5768060000000  0.5144550000000  0.4857900000000 1.0
C      1  0.4487290000000  0.5549070000000  0.4857200000000 1.0
C      1  0.4740930000000  0.4224860000000  0.5130250000000 1.0
C      1  0.5764640000000  0.5136970000000  0.5171380000000 1.0
C      1  0.4461880000000  0.5584240000000  0.5163990000000 1.0
C      1  0.4743780000000  0.5708100000000  0.4853960000000 1.0
C      1  0.5758050000000  0.4837390000000  0.4852830000000 1.0
C      1  0.4469940000000  0.4414690000000  0.4844950000000 1.0
C      1  0.4730720000000  0.5739200000000  0.5165090000000 1.0
C      1  0.5752200000000  0.4831990000000  0.5163300000000 1.0
C      1  0.4468940000000  0.4372910000000  0.5154890000000 1.0
C      1  0.5159760000000  0.4240240000000  0.5367320000000 1.0
C      1  0.5544150000000  0.5489530000000  0.5414780000000 1.0
C      1  0.4261170000000  0.5214770000000  0.5404480000000 1.0
C      1  0.5146510000000  0.4285590000000  0.4588930000000 1.0
C      1  0.5545880000000  0.5495710000000  0.4617020000000 1.0
C      1  0.4296730000000  0.5200920000000  0.4658970000000 1.0
C      1  0.5151130000000  0.5735030000000  0.5389340000000 1.0
C      1  0.5529010000000  0.4480450000000  0.5394080000000 1.0
C      1  0.4305180000000  0.4741020000000  0.5447820000000 1.0
C      1  0.5144320000000  0.5689550000000  0.4619400000000 1.0
C      1  0.5537080000000  0.4489020000000  0.4613380000000 1.0
C      1  0.4257030000000  0.4764110000000  0.4673400000000 1.0
C      1  0.4767790000000  0.5363000000000  0.5574080000000 1.0
C      1  0.4886360000000  0.4880440000000  0.5527970000000 1.0
C      1  0.5206190000000  0.5218400000000  0.5711510000000 1.0
C      1  0.4836650000000  0.5187630000000  0.4357260000000 1.0
C      1  0.5117080000000  0.4813200000000  0.4249180000000 1.0
C      1  0.5314120000000  0.5224690000000  0.4217040000000 1.0
C      1  0.4682690000000  0.5071530000000  0.5607400000000 1.0
C      1  0.5002750000000  0.5409220000000  0.5741690000000 1.0
C      1  0.5165710000000  0.4975440000000  0.5558810000000 1.0
C      1  0.4864010000000  0.4880200000000  0.4352620000000 1.0
C      1  0.5055790000000  0.5336000000000  0.4231670000000 1.0
C      1  0.5329370000000  0.4971820000000  0.4348010000000 1.0
C      1  0.4937860000000  0.5558960000000  0.5284330000000 1.0
C      1  0.4531820000000  0.4641450000000  0.5279730000000 1.0
C      1  0.5476660000000  0.4741080000000  0.5243460000000 1.0
C      1  0.4958460000000  0.5516820000000  0.4777670000000 1.0
C      1  0.4520720000000  0.4702500000000  0.4790090000000 1.0
C      1  0.5486420000000  0.4746150000000  0.4762790000000 1.0
C      1  0.4951090000000  0.4412710000000  0.5238890000000 1.0
C      1  0.4517880000000  0.5317860000000  0.5284900000000 1.0
C      1  0.5495790000000  0.5238010000000  0.5258570000000 1.0
C      1  0.4951170000000  0.4459910000000  0.4741810000000 1.0
C      1  0.4559060000000  0.5265920000000  0.4795210000000 1.0
C      1  0.5498880000000  0.5247810000000  0.4774110000000 1.0
C      1  0.4387920000000  0.5005180000000  0.5570100000000 1.0
C      1  0.5317790000000  0.5542970000000  0.4431130000000 1.0
C      1  0.4299400000000  0.4973550000000  0.4489840000000 1.0
C      1  0.5315030000000  0.4385980000000  0.5552990000000 1.0
C      1  0.5331700000000  0.4427720000000  0.4427710000000 1.0
C      1  0.5307470000000  0.5569050000000  0.5581000000000 1.0
C      1  0.5070060000000  0.5392250000000  0.5045080000000 1.0
C      1  0.5074270000000  0.4543990000000  0.4998870000000 1.0
C      1  0.5336800000000  0.4667280000000  0.5001000000000 1.0
C      1  0.5371510000000  0.5360350000000  0.5024690000000 1.0
C      1  0.4544760000000  0.4836250000000  0.5052810000000 1.0
C      1  0.4644210000000  0.5120610000000  0.5066170000000 1.0
C      1  0.4982810000000  0.5096610000000  0.5070040000000 1.0
C      1  0.4838090000000  0.5253180000000  0.4649740000000 1.0
C      1  0.4802150000000  0.4622260000000  0.5412000000000 1.0
C      1  0.5325160000000  0.4997980000000  0.4650740000000 1.0
C      1  0.4823730000000  0.4751720000000  0.4639250000000 1.0
C      1  0.5287070000000  0.4996980000000  0.5291750000000 1.0
C      1  0.5006710000000  0.5006640000000  0.4768050000000 1.0
END
