TITL C-3577087-600-320 2.87400205641755e-06 125000 -992.51783679336 0 0 157 (C1) n - 1
REM
REM in /home/bkarasulu/work/CARBON/AIRSS/Generating-Clusters/EDIP-Nigel-Params/with-SteepDescent/Higher-Symm/SD-CG/HFTN-CG
REM
REM
REM
REM
REM
REM ./C.cell (12c818d87b63d06a65506943cc24bca4)
REM
REM compiler GCC version 9.2.1 20190827 (Red Hat 9.2.1-1)
REM options -cpp -mtune=generic -march=x86-64 -g -O0 -fpre-include=/usr/include/finclude/math-vector-fortran.h
REM seed 331655655 176211019 1915237582 869679972 1899715212 889720040 -1264748810 1980523807 -749935496 -79403805 915914287 -820651076 1458020943 2041140132 -352768600 447741167 1303395344 354913788 -491234200 -1401085024 884230265 1860952830 -377619489 -1372797960 -1905158001 -1228291045 473163431 -279370235 1586200711 -1436504978 812654604 1828167542 512446195
REM
CELL 1.54180   50.00000   50.00000   50.00000   90.00000   90.00000   90.00000
LATT -1
SFAC C  
C      1  0.4116600000000  0.5456310000000  0.4969030000000 1.0
C      1  0.4251170000000  0.5156000000000  0.5348640000000 1.0
C      1  0.4250710000000  0.4695070000000  0.5223150000000 1.0
C      1  0.4158530000000  0.4648550000000  0.4735330000000 1.0
C      1  0.4103350000000  0.5125950000000  0.4557810000000 1.0
C      1  0.5763340000000  0.5427190000000  0.4994270000000 1.0
C      1  0.5787470000000  0.5150320000000  0.5407420000000 1.0
C      1  0.5805380000000  0.4653740000000  0.5270550000000 1.0
C      1  0.5793010000000  0.4640600000000  0.4760100000000 1.0
C      1  0.5794130000000  0.5123320000000  0.4592260000000 1.0
C      1  0.4428250000000  0.5742520000000  0.5128710000000 1.0
C      1  0.4371760000000  0.5129950000000  0.5800190000000 1.0
C      1  0.4380500000000  0.4258290000000  0.5365390000000 1.0
C      1  0.4419960000000  0.4467570000000  0.4424630000000 1.0
C      1  0.4421040000000  0.5347370000000  0.4317050000000 1.0
C      1  0.5643350000000  0.5852720000000  0.5161250000000 1.0
C      1  0.5627500000000  0.5134210000000  0.5851920000000 1.0
C      1  0.5641420000000  0.4252240000000  0.5376680000000 1.0
C      1  0.5639120000000  0.4399320000000  0.4377370000000 1.0
C      1  0.5636010000000  0.5390240000000  0.4240770000000 1.0
C      1  0.4352620000000  0.5087480000000  0.4704230000000 1.0
C      1  0.4418680000000  0.5295980000000  0.4892100000000 1.0
C      1  0.4486200000000  0.5158470000000  0.5153160000000 1.0
C      1  0.4485780000000  0.4844860000000  0.5078890000000 1.0
C      1  0.4422380000000  0.4819440000000  0.4782450000000 1.0
C      1  0.5574290000000  0.5050210000000  0.4777030000000 1.0
C      1  0.5510750000000  0.5257060000000  0.4972950000000 1.0
C      1  0.5523020000000  0.5103970000000  0.5241000000000 1.0
C      1  0.5584630000000  0.4825450000000  0.5157500000000 1.0
C      1  0.5548280000000  0.4782270000000  0.4873840000000 1.0
C      1  0.4219120000000  0.4373670000000  0.4848970000000 1.0
C      1  0.4168280000000  0.4930430000000  0.4328750000000 1.0
C      1  0.4170940000000  0.5612040000000  0.4703050000000 1.0
C      1  0.4205500000000  0.5424920000000  0.5464210000000 1.0
C      1  0.4288810000000  0.4705560000000  0.5519410000000 1.0
C      1  0.5756750000000  0.4356690000000  0.4853240000000 1.0
C      1  0.5787800000000  0.4940210000000  0.4350720000000 1.0
C      1  0.5757450000000  0.5601000000000  0.4748810000000 1.0
C      1  0.5787950000000  0.5437110000000  0.5503760000000 1.0
C      1  0.5795440000000  0.4670380000000  0.5573160000000 1.0
C      1  0.5336500000000  0.5494490000000  0.5304960000000 1.0
C      1  0.5359610000000  0.4883690000000  0.5522870000000 1.0
C      1  0.5241320000000  0.4477520000000  0.5125840000000 1.0
C      1  0.5342680000000  0.4762130000000  0.4543100000000 1.0
C      1  0.5266640000000  0.5301590000000  0.4591560000000 1.0
C      1  0.4708650000000  0.5415930000000  0.5346830000000 1.0
C      1  0.4776760000000  0.4955810000000  0.5511810000000 1.0
C      1  0.4644000000000  0.4480390000000  0.5070870000000 1.0
C      1  0.4723880000000  0.4727940000000  0.4614370000000 1.0
C      1  0.4680110000000  0.5426680000000  0.4750300000000 1.0
C      1  0.5183790000000  0.4501870000000  0.4581160000000 1.0
C      1  0.5038010000000  0.5390500000000  0.4376380000000 1.0
C      1  0.5163850000000  0.5694580000000  0.5154530000000 1.0
C      1  0.5223120000000  0.5110870000000  0.5667310000000 1.0
C      1  0.5051300000000  0.4277610000000  0.5282530000000 1.0
C      1  0.4916900000000  0.4533910000000  0.4427960000000 1.0
C      1  0.4759830000000  0.5268990000000  0.4493710000000 1.0
C      1  0.4849040000000  0.5630900000000  0.5165980000000 1.0
C      1  0.4950210000000  0.5013280000000  0.5765180000000 1.0
C      1  0.4784900000000  0.4438730000000  0.5344580000000 1.0
C      1  0.5160830000000  0.4758780000000  0.5249610000000 1.0
C      1  0.5095360000000  0.4524170000000  0.4865620000000 1.0
C      1  0.5149040000000  0.4998090000000  0.4670890000000 1.0
C      1  0.5236090000000  0.5454030000000  0.4862340000000 1.0
C      1  0.5165660000000  0.5271400000000  0.5431380000000 1.0
C      1  0.4896960000000  0.4716630000000  0.5381750000000 1.0
C      1  0.4825400000000  0.4638540000000  0.4883590000000 1.0
C      1  0.4866260000000  0.4990370000000  0.4566260000000 1.0
C      1  0.4917860000000  0.5400510000000  0.4937550000000 1.0
C      1  0.4892660000000  0.5187860000000  0.5343220000000 1.0
C      1  0.5153670000000  0.6014030000000  0.4853440000000 1.0
C      1  0.5143570000000  0.5483400000000  0.5890030000000 1.0
C      1  0.5151760000000  0.4297160000000  0.5708770000000 1.0
C      1  0.5141740000000  0.4071050000000  0.4529110000000 1.0
C      1  0.5142640000000  0.5141580000000  0.4033160000000 1.0
C      1  0.4867150000000  0.5959400000000  0.4871310000000 1.0
C      1  0.4858970000000  0.5435030000000  0.5838020000000 1.0
C      1  0.4858860000000  0.4274290000000  0.5741570000000 1.0
C      1  0.4850670000000  0.4130410000000  0.4532620000000 1.0
C      1  0.4851730000000  0.5156540000000  0.4049440000000 1.0
C      1  0.5260350000000  0.4757580000000  0.5928270000000 1.0
C      1  0.5294450000000  0.4039080000000  0.5032580000000 1.0
C      1  0.5265160000000  0.4659040000000  0.4126150000000 1.0
C      1  0.5291970000000  0.5743580000000  0.4427410000000 1.0
C      1  0.5280430000000  0.5860300000000  0.5540500000000 1.0
C      1  0.4707460000000  0.4720960000000  0.5958480000000 1.0
C      1  0.4750450000000  0.4063600000000  0.5046700000000 1.0
C      1  0.4711380000000  0.4662580000000  0.4064660000000 1.0
C      1  0.4760900000000  0.5719350000000  0.4430550000000 1.0
C      1  0.4714400000000  0.5829420000000  0.5541790000000 1.0
C      1  0.5424450000000  0.4052190000000  0.5333430000000 1.0
C      1  0.5398830000000  0.4401040000000  0.4210410000000 1.0
C      1  0.5402020000000  0.5561760000000  0.4196490000000 1.0
C      1  0.5431940000000  0.6006030000000  0.5306110000000 1.0
C      1  0.5402880000000  0.5037020000000  0.6022090000000 1.0
C      1  0.4605650000000  0.4069210000000  0.5323570000000 1.0
C      1  0.4570590000000  0.4419660000000  0.4185280000000 1.0
C      1  0.4602270000000  0.5571860000000  0.4225170000000 1.0
C      1  0.4568030000000  0.5936840000000  0.5297620000000 1.0
C      1  0.4575310000000  0.5029130000000  0.5991470000000 1.0
C      1  0.4336640000000  0.4425080000000  0.5119710000000 1.0
C      1  0.4182550000000  0.4643980000000  0.4430640000000 1.0
C      1  0.4163540000000  0.5417690000000  0.4472680000000 1.0
C      1  0.4190190000000  0.5611080000000  0.5227250000000 1.0
C      1  0.4419490000000  0.4972770000000  0.5551810000000 1.0
C      1  0.5593350000000  0.4394480000000  0.5112370000000 1.0
C      1  0.5677110000000  0.4682230000000  0.4465880000000 1.0
C      1  0.5640100000000  0.5407470000000  0.4537380000000 1.0
C      1  0.5654590000000  0.5566190000000  0.5260440000000 1.0
C      1  0.5677540000000  0.4944110000000  0.5622760000000 1.0
C      1  0.4393600000000  0.5070590000000  0.4179540000000 1.0
C      1  0.4438600000000  0.5733660000000  0.4819900000000 1.0
C      1  0.4379280000000  0.5436580000000  0.5711030000000 1.0
C      1  0.4424580000000  0.4458580000000  0.5594410000000 1.0
C      1  0.4419770000000  0.4277460000000  0.4658140000000 1.0
C      1  0.5605490000000  0.5082600000000  0.4168570000000 1.0
C      1  0.5605740000000  0.5832940000000  0.4845210000000 1.0
C      1  0.5620710000000  0.5428680000000  0.5746750000000 1.0
C      1  0.5607540000000  0.4448940000000  0.5620700000000 1.0
C      1  0.5609980000000  0.4225470000000  0.4635670000000 1.0
C      1  0.6053510000000  0.4794160000000  0.5154630000000 1.0
C      1  0.6048340000000  0.4794090000000  0.4853830000000 1.0
C      1  0.6044420000000  0.5083350000000  0.4763440000000 1.0
C      1  0.6020970000000  0.5255230000000  0.5005330000000 1.0
C      1  0.6035410000000  0.5081050000000  0.5243360000000 1.0
C      1  0.3975910000000  0.4792090000000  0.5144040000000 1.0
C      1  0.3914530000000  0.4781920000000  0.4855030000000 1.0
C      1  0.3876050000000  0.5063320000000  0.4756340000000 1.0
C      1  0.3902250000000  0.5240450000000  0.4996670000000 1.0
C      1  0.3981610000000  0.5070160000000  0.5225360000000 1.0
C      1  0.5237680000000  0.5273010000000  0.6057280000000 1.0
C      1  0.5233130000000  0.4068280000000  0.5552790000000 1.0
C      1  0.5235370000000  0.4188030000000  0.4292000000000 1.0
C      1  0.5210600000000  0.5422620000000  0.4029120000000 1.0
C      1  0.5257360000000  0.6105880000000  0.5101750000000 1.0
C      1  0.4775900000000  0.5235710000000  0.6028760000000 1.0
C      1  0.4767520000000  0.4076120000000  0.5560690000000 1.0
C      1  0.4768660000000  0.4218070000000  0.4262400000000 1.0
C      1  0.4769070000000  0.5426410000000  0.4050040000000 1.0
C      1  0.4754800000000  0.6044130000000  0.5114240000000 1.0
C      1  0.5336680000000  0.4949670000000  0.4142290000000 1.0
C      1  0.5343460000000  0.5848430000000  0.4706260000000 1.0
C      1  0.5349040000000  0.5578420000000  0.5689740000000 1.0
C      1  0.5342670000000  0.4517180000000  0.5756620000000 1.0
C      1  0.5329190000000  0.4169180000000  0.4742550000000 1.0
C      1  0.4649540000000  0.4950220000000  0.4102880000000 1.0
C      1  0.4674730000000  0.5851320000000  0.4677000000000 1.0
C      1  0.4660280000000  0.5534740000000  0.5626190000000 1.0
C      1  0.4670150000000  0.4499090000000  0.5757130000000 1.0
C      1  0.4667340000000  0.4155260000000  0.4768820000000 1.0
C      1  0.4990180000000  0.4740930000000  0.6039140000000 1.0
C      1  0.5023150000000  0.5777630000000  0.4333520000000 1.0
C      1  0.4993640000000  0.5886520000000  0.5447680000000 1.0
C      1  0.4993530000000  0.4598340000000  0.4051890000000 1.0
C      1  0.5016250000000  0.3953390000000  0.5072370000000 1.0
C      1  0.4915160000000  0.5132420000000  0.5060910000000 1.0
C      1  0.5122010000000  0.4950300000000  0.4989870000000 1.0
END
