TITL C-3577090-796-701 -1.00257540703263e-06 125000 -555.621172234117 0 0 88 (C2) n - 1
REM
REM in /home/bkarasulu/work/CARBON/AIRSS/Generating-Clusters/EDIP-Nigel-Params/with-SteepDescent/Higher-Symm/SD-CG/HFTN-CG
REM
REM
REM
REM
REM
REM ./C.cell (12c818d87b63d06a65506943cc24bca4)
REM
REM compiler GCC version 9.2.1 20190827 (Red Hat 9.2.1-1)
REM options -cpp -mtune=generic -march=x86-64 -g -O0 -fpre-include=/usr/include/finclude/math-vector-fortran.h
REM seed 1196914022 1942224709 1050713718 -1421116614 -1323250103 -1100777512 -1698880942 1320703802 -2143059335 588925230 893949538 -1860701589 1653111592 1542258646 -1654589180 -1643161967 -586559160 619599531 247756684 2130715532 1924707 1744196177 2092899548 -613233049 1757451797 1704681243 1677376271 -1592771647 1432832809 579984431 -1474781411 -1182099647 -1897649013
REM
CELL 1.54180   50.00000   50.00000   50.00000   90.00000   90.00000   90.00000
LATT -1
SFAC C  
C      1  0.5574730000000  0.4824410000000  0.4278000000000 1.0
C      1  0.4439670000000  0.4805430000000  0.5742930000000 1.0
C      1  0.5560170000000  0.5194790000000  0.5742990000000 1.0
C      1  0.4425420000000  0.5175380000000  0.4277830000000 1.0
C      1  0.5118130000000  0.4622770000000  0.4355940000000 1.0
C      1  0.4864220000000  0.4586150000000  0.5650360000000 1.0
C      1  0.5135650000000  0.5414040000000  0.5650270000000 1.0
C      1  0.4882000000000  0.5377040000000  0.4355800000000 1.0
C      1  0.4966200000000  0.4318910000000  0.5570840000000 1.0
C      1  0.5026860000000  0.4352690000000  0.4419050000000 1.0
C      1  0.4973260000000  0.5647140000000  0.4418850000000 1.0
C      1  0.5033680000000  0.5681250000000  0.5570650000000 1.0
C      1  0.4572660000000  0.4604180000000  0.5606300000000 1.0
C      1  0.5398320000000  0.4663250000000  0.4421830000000 1.0
C      1  0.4601800000000  0.5336580000000  0.4421650000000 1.0
C      1  0.5427220000000  0.5396000000000  0.5606280000000 1.0
C      1  0.5072670000000  0.5602720000000  0.4842330000000 1.0
C      1  0.4947940000000  0.5660600000000  0.5107940000000 1.0
C      1  0.5052040000000  0.4339440000000  0.5108150000000 1.0
C      1  0.4927360000000  0.4397230000000  0.4842490000000 1.0
C      1  0.5691790000000  0.5256150000000  0.5183220000000 1.0
C      1  0.4331490000000  0.5234280000000  0.4838280000000 1.0
C      1  0.5668540000000  0.4765670000000  0.4838490000000 1.0
C      1  0.4308170000000  0.4743910000000  0.5183150000000 1.0
C      1  0.5660440000000  0.5030430000000  0.4716170000000 1.0
C      1  0.4324610000000  0.5016150000000  0.5301710000000 1.0
C      1  0.5675330000000  0.4983940000000  0.5301850000000 1.0
C      1  0.4339620000000  0.4969490000000  0.4716040000000 1.0
C      1  0.5164890000000  0.4995590000000  0.5370510000000 1.0
C      1  0.4823910000000  0.4966310000000  0.4513400000000 1.0
C      1  0.5176190000000  0.5033550000000  0.4513430000000 1.0
C      1  0.4835030000000  0.5004520000000  0.5370470000000 1.0
C      1  0.4963760000000  0.4722190000000  0.4760140000000 1.0
C      1  0.5007780000000  0.4598780000000  0.5230030000000 1.0
C      1  0.4992170000000  0.5401290000000  0.5229910000000 1.0
C      1  0.5036290000000  0.5277740000000  0.4760070000000 1.0
C      1  0.4942850000000  0.5167820000000  0.5709010000000 1.0
C      1  0.5067310000000  0.5171850000000  0.4224030000000 1.0
C      1  0.4932860000000  0.4827920000000  0.4224070000000 1.0
C      1  0.5057000000000  0.4832390000000  0.5709070000000 1.0
C      1  0.5407300000000  0.5696540000000  0.5206280000000 1.0
C      1  0.4603880000000  0.5686310000000  0.4781890000000 1.0
C      1  0.5396160000000  0.4313630000000  0.4782170000000 1.0
C      1  0.4592660000000  0.4303520000000  0.5206400000000 1.0
C      1  0.4752480000000  0.4306680000000  0.4396930000000 1.0
C      1  0.5246200000000  0.4300260000000  0.5593220000000 1.0
C      1  0.4753670000000  0.5699910000000  0.5592970000000 1.0
C      1  0.5247650000000  0.5693150000000  0.4396780000000 1.0
C      1  0.5467090000000  0.4591710000000  0.4699810000000 1.0
C      1  0.4534950000000  0.4586630000000  0.5308340000000 1.0
C      1  0.5464980000000  0.5413460000000  0.5308320000000 1.0
C      1  0.4532970000000  0.5408210000000  0.4699590000000 1.0
C      1  0.5430490000000  0.5262650000000  0.4324210000000 1.0
C      1  0.4624920000000  0.5245610000000  0.5669010000000 1.0
C      1  0.5374940000000  0.4754590000000  0.5669160000000 1.0
C      1  0.4569650000000  0.4737160000000  0.4324200000000 1.0
C      1  0.4445890000000  0.5028500000000  0.5576360000000 1.0
C      1  0.5607380000000  0.5054360000000  0.4427380000000 1.0
C      1  0.4392740000000  0.4945470000000  0.4427270000000 1.0
C      1  0.5553990000000  0.4971670000000  0.5576480000000 1.0
C      1  0.5236100000000  0.4756170000000  0.5188700000000 1.0
C      1  0.4719870000000  0.4849910000000  0.4907950000000 1.0
C      1  0.5280140000000  0.5150060000000  0.4907970000000 1.0
C      1  0.4763860000000  0.5243880000000  0.5188580000000 1.0
C      1  0.5234770000000  0.4833240000000  0.4896420000000 1.0
C      1  0.4764440000000  0.4756440000000  0.5202690000000 1.0
C      1  0.5235520000000  0.5243620000000  0.5202670000000 1.0
C      1  0.4765250000000  0.5166730000000  0.4896320000000 1.0
C      1  0.5678040000000  0.4738000000000  0.5134900000000 1.0
C      1  0.4340680000000  0.4727800000000  0.4881960000000 1.0
C      1  0.5659340000000  0.5272170000000  0.4882020000000 1.0
C      1  0.4321930000000  0.5262040000000  0.5134680000000 1.0
C      1  0.5437450000000  0.4498170000000  0.5535370000000 1.0
C      1  0.4556130000000  0.4489460000000  0.4471000000000 1.0
C      1  0.5443980000000  0.5510390000000  0.4470940000000 1.0
C      1  0.4562430000000  0.5501990000000  0.5535140000000 1.0
C      1  0.5357660000000  0.5691070000000  0.4907900000000 1.0
C      1  0.4645990000000  0.5692150000000  0.5074960000000 1.0
C      1  0.5353990000000  0.4307880000000  0.5075240000000 1.0
C      1  0.4642360000000  0.4308900000000  0.4908020000000 1.0
C      1  0.4489630000000  0.4501470000000  0.4754670000000 1.0
C      1  0.5462650000000  0.4549330000000  0.5239120000000 1.0
C      1  0.4537300000000  0.5450740000000  0.5238890000000 1.0
C      1  0.5510420000000  0.5498450000000  0.4754630000000 1.0
C      1  0.4831450000000  0.5797370000000  0.4626440000000 1.0
C      1  0.5178630000000  0.5826640000000  0.5352810000000 1.0
C      1  0.4821300000000  0.4173470000000  0.5353010000000 1.0
C      1  0.5168630000000  0.4202520000000  0.4626710000000 1.0
END
