TITL C-3578203-1966-30 -2.18848508175354e-06 125000 -1058.91789390051 0 0 169 (C1) n - 1
REM
REM in /home/bkarasulu/work/CARBON/AIRSS/Generating-Clusters/EDIP-Nigel-Params/with-SteepDescent/Higher-Symm/SD-CG/HFTN-CG
REM
REM
REM
REM
REM
REM ./C.cell (12c818d87b63d06a65506943cc24bca4)
REM
REM compiler GCC version 9.2.1 20190827 (Red Hat 9.2.1-1)
REM options -cpp -mtune=generic -march=x86-64 -g -O0 -fpre-include=/usr/include/finclude/math-vector-fortran.h
REM seed 1067208677 1245531209 2049509256 1953492140 603174795 -1181728938 -111440727 9487472 743126023 1656814502 1042860198 927774740 -1656180223 1538303265 -1355095489 946019886 -1306454188 -2085817229 417659031 134506450 -526341697 -1178629051 -574453613 -1586373115 2091365213 -1810732837 2023045896 1787622689 1451553651 -186542579 1997030608 -1747348181 1131221920
REM
CELL 1.54180   50.00000   50.00000   50.00000   90.00000   90.00000   90.00000
LATT -1
SFAC C  
C      1  0.4574270000000  0.5134290000000  0.5945930000000 1.0
C      1  0.4795270000000  0.5727010000000  0.4408690000000 1.0
C      1  0.4589580000000  0.5304310000000  0.4137610000000 1.0
C      1  0.5163800000000  0.5462800000000  0.5459800000000 1.0
C      1  0.4859470000000  0.5098850000000  0.4496650000000 1.0
C      1  0.4541670000000  0.4773330000000  0.5350650000000 1.0
C      1  0.5363490000000  0.5092100000000  0.4533040000000 1.0
C      1  0.5969290000000  0.5626700000000  0.5064960000000 1.0
C      1  0.4806070000000  0.5440050000000  0.4744010000000 1.0
C      1  0.4343020000000  0.4317530000000  0.5571420000000 1.0
C      1  0.5403540000000  0.5414890000000  0.5258550000000 1.0
C      1  0.5166310000000  0.4101200000000  0.5504590000000 1.0
C      1  0.5515720000000  0.5850700000000  0.4518280000000 1.0
C      1  0.4838530000000  0.4574100000000  0.4795630000000 1.0
C      1  0.4621640000000  0.5045040000000  0.4661910000000 1.0
C      1  0.5621020000000  0.5732430000000  0.5614710000000 1.0
C      1  0.5988090000000  0.4710670000000  0.4995430000000 1.0
C      1  0.5831250000000  0.5306380000000  0.5716180000000 1.0
C      1  0.5302860000000  0.5011790000000  0.4103230000000 1.0
C      1  0.5351320000000  0.4737700000000  0.5875360000000 1.0
C      1  0.4593010000000  0.5743960000000  0.4625920000000 1.0
C      1  0.4424930000000  0.4321280000000  0.4466340000000 1.0
C      1  0.5392000000000  0.4532840000000  0.4053310000000 1.0
C      1  0.5025580000000  0.4758710000000  0.4958500000000 1.0
C      1  0.5735990000000  0.4698960000000  0.4487490000000 1.0
C      1  0.5093220000000  0.5111420000000  0.4657050000000 1.0
C      1  0.4286040000000  0.4339720000000  0.4704770000000 1.0
C      1  0.5405600000000  0.4729520000000  0.4881520000000 1.0
C      1  0.4125100000000  0.4556860000000  0.4763250000000 1.0
C      1  0.5313060000000  0.5482230000000  0.4557670000000 1.0
C      1  0.4352470000000  0.4504080000000  0.4252000000000 1.0
C      1  0.4073690000000  0.5468750000000  0.4946250000000 1.0
C      1  0.4532360000000  0.4530430000000  0.4930630000000 1.0
C      1  0.4863420000000  0.6009800000000  0.5039560000000 1.0
C      1  0.4829100000000  0.5441340000000  0.4306400000000 1.0
C      1  0.5977060000000  0.4914040000000  0.5510100000000 1.0
C      1  0.5859060000000  0.5576760000000  0.5586660000000 1.0
C      1  0.5117180000000  0.6061890000000  0.5158840000000 1.0
C      1  0.4672670000000  0.4178900000000  0.4507670000000 1.0
C      1  0.4816080000000  0.4588620000000  0.5372010000000 1.0
C      1  0.4424840000000  0.4918690000000  0.4504960000000 1.0
C      1  0.4775730000000  0.5774410000000  0.5620060000000 1.0
C      1  0.5055800000000  0.3932570000000  0.4531010000000 1.0
C      1  0.5880020000000  0.4257200000000  0.5311150000000 1.0
C      1  0.4131080000000  0.4804990000000  0.4589830000000 1.0
C      1  0.4869260000000  0.4427300000000  0.4196150000000 1.0
C      1  0.4644110000000  0.5901670000000  0.4895450000000 1.0
C      1  0.5367050000000  0.4446420000000  0.5790370000000 1.0
C      1  0.4850740000000  0.4416660000000  0.5795040000000 1.0
C      1  0.5137780000000  0.4866080000000  0.6052710000000 1.0
C      1  0.5331990000000  0.5999740000000  0.4969750000000 1.0
C      1  0.5648110000000  0.4082340000000  0.5203330000000 1.0
C      1  0.5724660000000  0.4401100000000  0.4429080000000 1.0
C      1  0.5510900000000  0.5297900000000  0.4768130000000 1.0
C      1  0.4351560000000  0.5791820000000  0.5460330000000 1.0
C      1  0.5296100000000  0.4072630000000  0.4586390000000 1.0
C      1  0.4020640000000  0.5304640000000  0.4715790000000 1.0
C      1  0.5197270000000  0.5656870000000  0.5028000000000 1.0
C      1  0.5770360000000  0.4825170000000  0.4213810000000 1.0
C      1  0.5241310000000  0.5152460000000  0.5994250000000 1.0
C      1  0.6043710000000  0.4942210000000  0.5219740000000 1.0
C      1  0.3871220000000  0.4958700000000  0.5052740000000 1.0
C      1  0.4609670000000  0.4843400000000  0.5993860000000 1.0
C      1  0.4151460000000  0.5052570000000  0.4142200000000 1.0
C      1  0.4473550000000  0.4797460000000  0.5064370000000 1.0
C      1  0.4655660000000  0.5511560000000  0.5690110000000 1.0
C      1  0.3949180000000  0.4502590000000  0.4983650000000 1.0
C      1  0.5471360000000  0.5672740000000  0.5842960000000 1.0
C      1  0.6080430000000  0.5423150000000  0.4922100000000 1.0
C      1  0.5237180000000  0.4818900000000  0.5365760000000 1.0
C      1  0.5060000000000  0.3971120000000  0.5045940000000 1.0
C      1  0.4593340000000  0.4546590000000  0.4085270000000 1.0
C      1  0.4047860000000  0.4808160000000  0.5524080000000 1.0
C      1  0.4004080000000  0.5521610000000  0.5219100000000 1.0
C      1  0.5983990000000  0.5612560000000  0.5340750000000 1.0
C      1  0.4870140000000  0.4708330000000  0.6045450000000 1.0
C      1  0.5732230000000  0.5458700000000  0.4419340000000 1.0
C      1  0.5542230000000  0.4386630000000  0.5564780000000 1.0
C      1  0.4959170000000  0.5644010000000  0.5247280000000 1.0
C      1  0.5039220000000  0.5832030000000  0.4538390000000 1.0
C      1  0.4300970000000  0.5663340000000  0.4586870000000 1.0
C      1  0.4899760000000  0.4303270000000  0.4938570000000 1.0
C      1  0.4376860000000  0.4703930000000  0.5877910000000 1.0
C      1  0.5306890000000  0.5300560000000  0.4156740000000 1.0
C      1  0.5120200000000  0.4294850000000  0.5732000000000 1.0
C      1  0.4899890000000  0.5007060000000  0.5045920000000 1.0
C      1  0.5794620000000  0.5089140000000  0.5124600000000 1.0
C      1  0.5861920000000  0.4450500000000  0.5081860000000 1.0
C      1  0.5767970000000  0.4237540000000  0.4654030000000 1.0
C      1  0.5229680000000  0.4363950000000  0.5146060000000 1.0
C      1  0.4362850000000  0.5477840000000  0.4068560000000 1.0
C      1  0.4632210000000  0.5852120000000  0.5374880000000 1.0
C      1  0.4790150000000  0.5254620000000  0.3908560000000 1.0
C      1  0.5823310000000  0.4351590000000  0.5573920000000 1.0
C      1  0.4613850000000  0.5411490000000  0.5002380000000 1.0
C      1  0.4323720000000  0.4618070000000  0.5508840000000 1.0
C      1  0.5700330000000  0.5675100000000  0.4634140000000 1.0
C      1  0.5047690000000  0.5427460000000  0.4096430000000 1.0
C      1  0.5655890000000  0.5254550000000  0.5373240000000 1.0
C      1  0.5667110000000  0.4284760000000  0.4922700000000 1.0
C      1  0.5514040000000  0.4808930000000  0.4069830000000 1.0
C      1  0.4708090000000  0.4100530000000  0.4788980000000 1.0
C      1  0.5397750000000  0.4426860000000  0.4910760000000 1.0
C      1  0.4878800000000  0.4073940000000  0.4336410000000 1.0
C      1  0.5733810000000  0.5714100000000  0.4932460000000 1.0
C      1  0.5541630000000  0.5462790000000  0.4205770000000 1.0
C      1  0.5062520000000  0.5391130000000  0.5960720000000 1.0
C      1  0.4574750000000  0.4828800000000  0.3989650000000 1.0
C      1  0.5564780000000  0.5888020000000  0.5095650000000 1.0
C      1  0.5409200000000  0.4210470000000  0.5361830000000 1.0
C      1  0.4368480000000  0.5587210000000  0.5667590000000 1.0
C      1  0.4223820000000  0.5697220000000  0.4871910000000 1.0
C      1  0.5061710000000  0.5209010000000  0.4924720000000 1.0
C      1  0.4475050000000  0.5704740000000  0.5050010000000 1.0
C      1  0.5106730000000  0.4896160000000  0.5617460000000 1.0
C      1  0.5945450000000  0.4793740000000  0.4697170000000 1.0
C      1  0.4538210000000  0.5054690000000  0.5480500000000 1.0
C      1  0.4913750000000  0.3887960000000  0.4799350000000 1.0
C      1  0.4951490000000  0.4064840000000  0.5306280000000 1.0
C      1  0.5672570000000  0.4934590000000  0.5536200000000 1.0
C      1  0.4036290000000  0.4323840000000  0.5175240000000 1.0
C      1  0.4756950000000  0.5372870000000  0.5934910000000 1.0
C      1  0.5080120000000  0.5608680000000  0.4735580000000 1.0
C      1  0.5223540000000  0.5949250000000  0.5421070000000 1.0
C      1  0.4125020000000  0.5761050000000  0.5300450000000 1.0
C      1  0.5196070000000  0.5643730000000  0.5855880000000 1.0
C      1  0.3771560000000  0.4698450000000  0.5058000000000 1.0
C      1  0.4826710000000  0.4963130000000  0.3885020000000 1.0
C      1  0.5580550000000  0.4920390000000  0.5819570000000 1.0
C      1  0.4272220000000  0.4233120000000  0.5294140000000 1.0
C      1  0.5093640000000  0.4566230000000  0.4014090000000 1.0
C      1  0.3973490000000  0.5025050000000  0.4770570000000 1.0
C      1  0.5964210000000  0.5081450000000  0.4661240000000 1.0
C      1  0.5447940000000  0.4782250000000  0.4586670000000 1.0
C      1  0.4799870000000  0.5400080000000  0.5223680000000 1.0
C      1  0.5880000000000  0.5204780000000  0.4415520000000 1.0
C      1  0.4520190000000  0.4286080000000  0.5143610000000 1.0
C      1  0.5079140000000  0.4627280000000  0.5218300000000 1.0
C      1  0.5912360000000  0.5063320000000  0.4179140000000 1.0
C      1  0.5485650000000  0.5834060000000  0.5375190000000 1.0
C      1  0.5276470000000  0.5839760000000  0.4382920000000 1.0
C      1  0.5852370000000  0.5246720000000  0.4870570000000 1.0
C      1  0.5252570000000  0.4333000000000  0.4683480000000 1.0
C      1  0.5341490000000  0.5255050000000  0.5013280000000 1.0
C      1  0.4445780000000  0.5010170000000  0.4205310000000 1.0
C      1  0.4036410000000  0.5302670000000  0.5405800000000 1.0
C      1  0.5264760000000  0.4541150000000  0.4478850000000 1.0
C      1  0.6056440000000  0.5127100000000  0.5680190000000 1.0
C      1  0.5524190000000  0.5184960000000  0.5907430000000 1.0
C      1  0.4360400000000  0.5121050000000  0.5721920000000 1.0
C      1  0.4193320000000  0.5356730000000  0.5651450000000 1.0
C      1  0.4116930000000  0.4707400000000  0.4283700000000 1.0
C      1  0.4951350000000  0.4590860000000  0.4457090000000 1.0
C      1  0.4168650000000  0.4899210000000  0.5792510000000 1.0
C      1  0.4741190000000  0.5280690000000  0.5487970000000 1.0
C      1  0.4858470000000  0.4706320000000  0.5653610000000 1.0
C      1  0.4005960000000  0.5024550000000  0.5316310000000 1.0
C      1  0.5517670000000  0.4771260000000  0.5349850000000 1.0
C      1  0.5021210000000  0.5212030000000  0.5616950000000 1.0
C      1  0.4915700000000  0.4857900000000  0.4338400000000 1.0
C      1  0.5066120000000  0.5799870000000  0.5637540000000 1.0
C      1  0.5454760000000  0.4365170000000  0.4292250000000 1.0
C      1  0.4630450000000  0.4246910000000  0.5632530000000 1.0
C      1  0.5041110000000  0.4862070000000  0.4071300000000 1.0
C      1  0.4154320000000  0.5345530000000  0.4214010000000 1.0
C      1  0.4189180000000  0.5403550000000  0.4499320000000 1.0
C      1  0.4618290000000  0.5043750000000  0.4956300000000 1.0
C      1  0.4738360000000  0.4285890000000  0.5353510000000 1.0
C      1  0.5623260000000  0.4820440000000  0.5080310000000 1.0
END
