TITL C-3578207-9274-321 6.0884175869491e-06 125000 -995.964192953925 0 0 160 (C1) n - 1
REM
REM in /home/bkarasulu/work/CARBON/AIRSS/Generating-Clusters/EDIP-Nigel-Params/with-SteepDescent/Higher-Symm/SD-CG/HFTN-CG
REM
REM
REM
REM
REM
REM ./C.cell (12c818d87b63d06a65506943cc24bca4)
REM
REM compiler GCC version 9.2.1 20190827 (Red Hat 9.2.1-1)
REM options -cpp -mtune=generic -march=x86-64 -g -O0 -fpre-include=/usr/include/finclude/math-vector-fortran.h
REM seed -2033385345 2016622121 -1164149252 -1019958266 -1555043748 -115242446 215138029 -660609361 -379558324 422710280 -1250983435 -1524859893 -1691431837 -730093747 2110332773 -1150199992 2036805422 -240969742 2023010102 1869853558 1250150768 -518830243 1667307636 196322937 -211655713 1970446410 -247705241 -1005350316 -1960375691 1247286189 -1671680731 1658878420 -848907778
REM
CELL 1.54180   50.00000   50.00000   50.00000   90.00000   90.00000   90.00000
LATT -1
SFAC C  
C      1  0.4328430000000  0.4538630000000  0.4268320000000 1.0
C      1  0.5769110000000  0.4510270000000  0.4381840000000 1.0
C      1  0.5007020000000  0.5883670000000  0.4350060000000 1.0
C      1  0.5754040000000  0.4585470000000  0.5716960000000 1.0
C      1  0.4229460000000  0.4576260000000  0.5586210000000 1.0
C      1  0.5012510000000  0.5832330000000  0.5608970000000 1.0
C      1  0.4873310000000  0.4308870000000  0.5071250000000 1.0
C      1  0.5692490000000  0.5296650000000  0.5113330000000 1.0
C      1  0.4445330000000  0.5415630000000  0.5129120000000 1.0
C      1  0.5073570000000  0.4287400000000  0.4834290000000 1.0
C      1  0.4347760000000  0.5242250000000  0.4899870000000 1.0
C      1  0.5598700000000  0.5463230000000  0.4881090000000 1.0
C      1  0.4937820000000  0.5489100000000  0.5960260000000 1.0
C      1  0.4630510000000  0.4746390000000  0.5910720000000 1.0
C      1  0.5355280000000  0.4874020000000  0.5907540000000 1.0
C      1  0.5039670000000  0.5412050000000  0.4108370000000 1.0
C      1  0.5304930000000  0.4738410000000  0.4155490000000 1.0
C      1  0.4577850000000  0.4855900000000  0.4004530000000 1.0
C      1  0.4451680000000  0.5456940000000  0.5910780000000 1.0
C      1  0.4827960000000  0.4320490000000  0.5862440000000 1.0
C      1  0.5660040000000  0.5258580000000  0.5898050000000 1.0
C      1  0.5532000000000  0.5455760000000  0.4093640000000 1.0
C      1  0.5082510000000  0.4322390000000  0.4108630000000 1.0
C      1  0.4318460000000  0.5247710000000  0.4102930000000 1.0
C      1  0.5570380000000  0.5804770000000  0.4540900000000 1.0
C      1  0.4062300000000  0.5022510000000  0.4561610000000 1.0
C      1  0.5415100000000  0.4088040000000  0.4542120000000 1.0
C      1  0.4445810000000  0.5777650000000  0.5452780000000 1.0
C      1  0.5972100000000  0.5055130000000  0.5435880000000 1.0
C      1  0.4577770000000  0.4166310000000  0.5413230000000 1.0
C      1  0.4751410000000  0.5777620000000  0.5030650000000 1.0
C      1  0.4394880000000  0.4313360000000  0.5049020000000 1.0
C      1  0.5834200000000  0.4834280000000  0.5021730000000 1.0
C      1  0.5290790000000  0.5836040000000  0.4953110000000 1.0
C      1  0.5511990000000  0.4461210000000  0.5037710000000 1.0
C      1  0.4148390000000  0.4763330000000  0.4961220000000 1.0
C      1  0.4688940000000  0.5323800000000  0.5529040000000 1.0
C      1  0.4923540000000  0.4594160000000  0.5490380000000 1.0
C      1  0.5475540000000  0.5138350000000  0.5489170000000 1.0
C      1  0.5345890000000  0.5332810000000  0.4501550000000 1.0
C      1  0.5126650000000  0.4587410000000  0.4463450000000 1.0
C      1  0.4566120000000  0.5098430000000  0.4483440000000 1.0
C      1  0.6084390000000  0.5285780000000  0.4589990000000 1.0
C      1  0.4217310000000  0.5764750000000  0.4621300000000 1.0
C      1  0.4705700000000  0.3914550000000  0.4585520000000 1.0
C      1  0.3949110000000  0.5242020000000  0.5400800000000 1.0
C      1  0.5812210000000  0.5796600000000  0.5385070000000 1.0
C      1  0.5277220000000  0.3943680000000  0.5383580000000 1.0
C      1  0.5366040000000  0.5045060000000  0.4235640000000 1.0
C      1  0.4772420000000  0.5281800000000  0.4205420000000 1.0
C      1  0.4778490000000  0.4688820000000  0.4142460000000 1.0
C      1  0.4698660000000  0.5105370000000  0.5772760000000 1.0
C      1  0.5194620000000  0.5386960000000  0.5854880000000 1.0
C      1  0.5131760000000  0.4668710000000  0.5814110000000 1.0
C      1  0.4830610000000  0.5709010000000  0.5789440000000 1.0
C      1  0.4478940000000  0.4575520000000  0.5712950000000 1.0
C      1  0.5633920000000  0.4822940000000  0.5804190000000 1.0
C      1  0.5138010000000  0.5646690000000  0.4264340000000 1.0
C      1  0.5506400000000  0.4514610000000  0.4257030000000 1.0
C      1  0.4320910000000  0.4803870000000  0.4147210000000 1.0
C      1  0.5984560000000  0.5275100000000  0.5204180000000 1.0
C      1  0.4288330000000  0.5661280000000  0.5215510000000 1.0
C      1  0.4741870000000  0.4052400000000  0.5169600000000 1.0
C      1  0.4058030000000  0.5230740000000  0.4801670000000 1.0
C      1  0.5747070000000  0.5710460000000  0.4786440000000 1.0
C      1  0.5233140000000  0.4035810000000  0.4779240000000 1.0
C      1  0.5079720000000  0.4189150000000  0.5776460000000 1.0
C      1  0.5660720000000  0.5535600000000  0.5791160000000 1.0
C      1  0.4249690000000  0.5270340000000  0.5805020000000 1.0
C      1  0.4829970000000  0.4185940000000  0.4170470000000 1.0
C      1  0.4353090000000  0.5514630000000  0.4224880000000 1.0
C      1  0.5770170000000  0.5306980000000  0.4195980000000 1.0
C      1  0.4238800000000  0.5498510000000  0.4500550000000 1.0
C      1  0.4896620000000  0.4004900000000  0.4390830000000 1.0
C      1  0.5846440000000  0.5417580000000  0.4470030000000 1.0
C      1  0.5803000000000  0.5529870000000  0.5518600000000 1.0
C      1  0.5038570000000  0.4080670000000  0.5494890000000 1.0
C      1  0.4122690000000  0.5392660000000  0.5571620000000 1.0
C      1  0.5576980000000  0.4730080000000  0.4636070000000 1.0
C      1  0.4963560000000  0.5670960000000  0.4672160000000 1.0
C      1  0.4568250000000  0.4593060000000  0.4723620000000 1.0
C      1  0.4565760000000  0.4815180000000  0.5221180000000 1.0
C      1  0.5091360000000  0.5628840000000  0.5299600000000 1.0
C      1  0.5492930000000  0.4620150000000  0.5307070000000 1.0
C      1  0.5389010000000  0.6011390000000  0.4633860000000 1.0
C      1  0.4067840000000  0.4748220000000  0.4674830000000 1.0
C      1  0.5680610000000  0.4130120000000  0.4625740000000 1.0
C      1  0.4624810000000  0.5972300000000  0.5342640000000 1.0
C      1  0.5939810000000  0.4790000000000  0.5301350000000 1.0
C      1  0.4288330000000  0.4159350000000  0.5384520000000 1.0
C      1  0.5530300000000  0.5876070000000  0.5385540000000 1.0
C      1  0.4046160000000  0.4968090000000  0.5383040000000 1.0
C      1  0.5485220000000  0.4145640000000  0.5400600000000 1.0
C      1  0.4495910000000  0.5853740000000  0.4617750000000 1.0
C      1  0.6010200000000  0.5001060000000  0.4594930000000 1.0
C      1  0.4518420000000  0.4132070000000  0.4587340000000 1.0
C      1  0.6067540000000  0.4946580000000  0.4871810000000 1.0
C      1  0.4523650000000  0.5926460000000  0.4895440000000 1.0
C      1  0.4395950000000  0.4087380000000  0.4851420000000 1.0
C      1  0.3943560000000  0.4904390000000  0.5117590000000 1.0
C      1  0.5508070000000  0.5969900000000  0.5113930000000 1.0
C      1  0.5557870000000  0.4165750000000  0.5118740000000 1.0
C      1  0.5257800000000  0.4510030000000  0.4895800000000 1.0
C      1  0.5314110000000  0.5536660000000  0.4933770000000 1.0
C      1  0.4440560000000  0.4950290000000  0.4951230000000 1.0
C      1  0.4621990000000  0.4505580000000  0.5016580000000 1.0
C      1  0.4735270000000  0.5475020000000  0.5081680000000 1.0
C      1  0.5588130000000  0.5023560000000  0.5053860000000 1.0
C      1  0.5149370000000  0.5429720000000  0.4717900000000 1.0
C      1  0.4619840000000  0.4890640000000  0.4705470000000 1.0
C      1  0.5283310000000  0.4699590000000  0.4683170000000 1.0
C      1  0.4919440000000  0.5352230000000  0.5294420000000 1.0
C      1  0.5375450000000  0.4954280000000  0.5272470000000 1.0
C      1  0.4854840000000  0.4837920000000  0.5318780000000 1.0
C      1  0.5370920000000  0.5177590000000  0.5974110000000 1.0
C      1  0.4703450000000  0.5303550000000  0.6001730000000 1.0
C      1  0.4884910000000  0.4597910000000  0.5977880000000 1.0
C      1  0.4591570000000  0.5156920000000  0.3995640000000 1.0
C      1  0.5293870000000  0.5261270000000  0.4039110000000 1.0
C      1  0.5043480000000  0.4612580000000  0.4038180000000 1.0
C      1  0.4689450000000  0.4404440000000  0.5602210000000 1.0
C      1  0.5711980000000  0.5069790000000  0.5660310000000 1.0
C      1  0.4591120000000  0.5588270000000  0.5663200000000 1.0
C      1  0.5321420000000  0.4285260000000  0.4311770000000 1.0
C      1  0.4295770000000  0.5040790000000  0.4336910000000 1.0
C      1  0.5414860000000  0.5585510000000  0.4345540000000 1.0
C      1  0.5369920000000  0.5629890000000  0.5438300000000 1.0
C      1  0.4350390000000  0.4972260000000  0.5424030000000 1.0
C      1  0.5344460000000  0.4402450000000  0.5459660000000 1.0
C      1  0.4672170000000  0.5619770000000  0.4563700000000 1.0
C      1  0.5715200000000  0.4992130000000  0.4547880000000 1.0
C      1  0.4669050000000  0.4387050000000  0.4536700000000 1.0
C      1  0.4626380000000  0.4445110000000  0.4237900000000 1.0
C      1  0.5663430000000  0.5034300000000  0.4256350000000 1.0
C      1  0.4648700000000  0.5548080000000  0.4269990000000 1.0
C      1  0.5275740000000  0.4416570000000  0.5751720000000 1.0
C      1  0.4397220000000  0.5008970000000  0.5740300000000 1.0
C      1  0.5365510000000  0.5601370000000  0.5743620000000 1.0
C      1  0.4128170000000  0.4407520000000  0.5383330000000 1.0
C      1  0.5757870000000  0.4608600000000  0.5436610000000 1.0
C      1  0.4911350000000  0.5982960000000  0.5381820000000 1.0
C      1  0.5825680000000  0.4370270000000  0.4632980000000 1.0
C      1  0.4228110000000  0.4549530000000  0.4540560000000 1.0
C      1  0.5104030000000  0.5999590000000  0.4593540000000 1.0
C      1  0.5380100000000  0.3955640000000  0.5016880000000 1.0
C      1  0.5773500000000  0.5894660000000  0.5017480000000 1.0
C      1  0.3880890000000  0.5173760000000  0.5029410000000 1.0
C      1  0.4600880000000  0.3902650000000  0.4953560000000 1.0
C      1  0.4260160000000  0.5847960000000  0.4991550000000 1.0
C      1  0.6141750000000  0.5211260000000  0.4961150000000 1.0
C      1  0.4428010000000  0.5270880000000  0.5385480000000 1.0
C      1  0.5052840000000  0.4370060000000  0.5334090000000 1.0
C      1  0.5563320000000  0.5392450000000  0.5367890000000 1.0
C      1  0.5609430000000  0.5286560000000  0.4636720000000 1.0
C      1  0.4965500000000  0.4341630000000  0.4561590000000 1.0
C      1  0.4478200000000  0.5345730000000  0.4644110000000 1.0
C      1  0.4152360000000  0.4482480000000  0.5084010000000 1.0
C      1  0.5730460000000  0.4578290000000  0.4861370000000 1.0
C      1  0.5017160000000  0.5928510000000  0.5020730000000 1.0
C      1  0.5057560000000  0.5047040000000  0.5243050000000 1.0
END
