TITL C-3578205-846-503 8.19996489171167e-07 125000 -600.853086573855 0 0 95 (C1) n - 1
REM
REM in /home/bkarasulu/work/CARBON/AIRSS/Generating-Clusters/EDIP-Nigel-Params/with-SteepDescent/Higher-Symm/SD-CG/HFTN-CG
REM
REM
REM
REM
REM
REM ./C.cell (12c818d87b63d06a65506943cc24bca4)
REM
REM compiler GCC version 9.2.1 20190827 (Red Hat 9.2.1-1)
REM options -cpp -mtune=generic -march=x86-64 -g -O0 -fpre-include=/usr/include/finclude/math-vector-fortran.h
REM seed 1127218074 1885946757 -125370148 1791611201 170209354 -1338066202 -248576103 507599958 433828187 -1739819121 -978512742 636437674 -2021890461 -646294685 -1447228884 -1800469545 -572165964 1748857238 1038034588 1162601634 1288138089 -953334194 -454055740 1114524924 -1695747902 -1905944046 -1720815335 779616852 1768568184 527917880 -373833786 1658621548 -594610533
REM
CELL 1.54180   50.00000   50.00000   50.00000   90.00000   90.00000   90.00000
LATT -1
SFAC C  
C      1  0.4980510000000  0.5290850000000  0.5685510000000 1.0
C      1  0.4401340000000  0.5277060000000  0.4638040000000 1.0
C      1  0.5656440000000  0.5260420000000  0.4631960000000 1.0
C      1  0.4898070000000  0.5021370000000  0.4568600000000 1.0
C      1  0.5446160000000  0.5038270000000  0.5108460000000 1.0
C      1  0.4674670000000  0.4977130000000  0.5300350000000 1.0
C      1  0.5416030000000  0.4214050000000  0.4975270000000 1.0
C      1  0.4818070000000  0.4240250000000  0.5342640000000 1.0
C      1  0.4779200000000  0.4219070000000  0.4640620000000 1.0
C      1  0.4735960000000  0.5054810000000  0.4318730000000 1.0
C      1  0.5748650000000  0.5051800000000  0.5086640000000 1.0
C      1  0.4545720000000  0.5042420000000  0.5568690000000 1.0
C      1  0.4201480000000  0.5221700000000  0.4841830000000 1.0
C      1  0.5552130000000  0.5191070000000  0.4371320000000 1.0
C      1  0.5255200000000  0.5234910000000  0.5754250000000 1.0
C      1  0.4756790000000  0.4864520000000  0.4806220000000 1.0
C      1  0.5293520000000  0.4933250000000  0.4878470000000 1.0
C      1  0.4976720000000  0.4880040000000  0.5300900000000 1.0
C      1  0.4175300000000  0.4948950000000  0.5234350000000 1.0
C      1  0.5220960000000  0.4941330000000  0.4166070000000 1.0
C      1  0.5616920000000  0.4963890000000  0.5579050000000 1.0
C      1  0.5056180000000  0.5901730000000  0.4884640000000 1.0
C      1  0.5197800000000  0.5889020000000  0.5136750000000 1.0
C      1  0.4822780000000  0.5935900000000  0.5056910000000 1.0
C      1  0.4456670000000  0.5066950000000  0.4436980000000 1.0
C      1  0.5800580000000  0.5053820000000  0.4786610000000 1.0
C      1  0.4788820000000  0.5073710000000  0.5747300000000 1.0
C      1  0.4841680000000  0.5289270000000  0.4160470000000 1.0
C      1  0.5828260000000  0.5290380000000  0.5258060000000 1.0
C      1  0.4361570000000  0.5280390000000  0.5554710000000 1.0
C      1  0.5167270000000  0.4722350000000  0.5666990000000 1.0
C      1  0.4338770000000  0.4721200000000  0.4804750000000 1.0
C      1  0.5493200000000  0.4719840000000  0.4544560000000 1.0
C      1  0.4732930000000  0.4131100000000  0.5103190000000 1.0
C      1  0.5033530000000  0.4099560000000  0.4678550000000 1.0
C      1  0.5266930000000  0.4099880000000  0.5184890000000 1.0
C      1  0.5572520000000  0.5617650000000  0.4985860000000 1.0
C      1  0.4699380000000  0.5662890000000  0.5465890000000 1.0
C      1  0.4784460000000  0.5638800000000  0.4539780000000 1.0
C      1  0.5091920000000  0.5399750000000  0.4812670000000 1.0
C      1  0.5124600000000  0.5361840000000  0.5273480000000 1.0
C      1  0.4648490000000  0.5319330000000  0.4999040000000 1.0
C      1  0.4477100000000  0.5531180000000  0.5566940000000 1.0
C      1  0.4796720000000  0.5535470000000  0.4282900000000 1.0
C      1  0.5793760000000  0.5535280000000  0.5133300000000 1.0
C      1  0.5352790000000  0.4953130000000  0.5708750000000 1.0
C      1  0.4178250000000  0.4938150000000  0.4939650000000 1.0
C      1  0.5471710000000  0.4910730000000  0.4321880000000 1.0
C      1  0.5767400000000  0.4598600000000  0.4958130000000 1.0
C      1  0.4652960000000  0.4602840000000  0.5658210000000 1.0
C      1  0.4601640000000  0.4605010000000  0.4352270000000 1.0
C      1  0.4247150000000  0.4709850000000  0.5398830000000 1.0
C      1  0.5035130000000  0.4712060000000  0.4157610000000 1.0
C      1  0.5714150000000  0.4722890000000  0.5431180000000 1.0
C      1  0.5156000000000  0.5178860000000  0.4623390000000 1.0
C      1  0.5263770000000  0.5089340000000  0.5351610000000 1.0
C      1  0.4552150000000  0.5026400000000  0.5020900000000 1.0
C      1  0.4818860000000  0.4447700000000  0.4472470000000 1.0
C      1  0.5506670000000  0.4482050000000  0.5062800000000 1.0
C      1  0.4658050000000  0.4468010000000  0.5397790000000 1.0
C      1  0.5112810000000  0.4262640000000  0.5368620000000 1.0
C      1  0.4671800000000  0.4327040000000  0.4897690000000 1.0
C      1  0.5273000000000  0.4245990000000  0.4718940000000 1.0
C      1  0.4539450000000  0.5543270000000  0.4699870000000 1.0
C      1  0.5565200000000  0.5540770000000  0.4696720000000 1.0
C      1  0.4956730000000  0.5579620000000  0.5603330000000 1.0
C      1  0.4406170000000  0.4782860000000  0.5645910000000 1.0
C      1  0.4747190000000  0.4792320000000  0.4165880000000 1.0
C      1  0.5859920000000  0.4786580000000  0.5179100000000 1.0
C      1  0.4398440000000  0.4490360000000  0.5258090000000 1.0
C      1  0.5080810000000  0.4487360000000  0.4348720000000 1.0
C      1  0.5516600000000  0.4511350000000  0.5366790000000 1.0
C      1  0.5288670000000  0.5336760000000  0.4376360000000 1.0
C      1  0.5433100000000  0.5423760000000  0.5611570000000 1.0
C      1  0.4225350000000  0.5407520000000  0.5075330000000 1.0
C      1  0.4403270000000  0.4471030000000  0.4954900000000 1.0
C      1  0.5318170000000  0.4476120000000  0.4532070000000 1.0
C      1  0.5265700000000  0.4484630000000  0.5517920000000 1.0
C      1  0.5302960000000  0.5620480000000  0.5126510000000 1.0
C      1  0.4679590000000  0.5718670000000  0.5175020000000 1.0
C      1  0.5054150000000  0.5664840000000  0.4684690000000 1.0
C      1  0.4885140000000  0.4784840000000  0.5725270000000 1.0
C      1  0.4423890000000  0.4779430000000  0.4525030000000 1.0
C      1  0.5735100000000  0.4765190000000  0.4711500000000 1.0
C      1  0.5251620000000  0.5649560000000  0.5502860000000 1.0
C      1  0.4437700000000  0.5637860000000  0.5002300000000 1.0
C      1  0.5321590000000  0.5627050000000  0.4512540000000 1.0
C      1  0.4869670000000  0.4571490000000  0.4894560000000 1.0
C      1  0.5253700000000  0.4625680000000  0.4939330000000 1.0
C      1  0.5019780000000  0.4589710000000  0.5172200000000 1.0
C      1  0.4193330000000  0.5233240000000  0.5320560000000 1.0
C      1  0.5131750000000  0.5235760000000  0.4127960000000 1.0
C      1  0.5652140000000  0.5246250000000  0.5493830000000 1.0
C      1  0.5002190000000  0.5001290000000  0.5000780000000 1.0
C      1  0.4950710000000  0.5296030000000  0.5033350000000 1.0
END
