TITL C-3577084-3642-254 -1.49886580685368e-06 125000 -579.319122267744 0 0 92 (C1) n - 1
REM
REM in /home/bkarasulu/work/CARBON/AIRSS/Generating-Clusters/EDIP-Nigel-Params/with-SteepDescent/Higher-Symm/SD-CG/HFTN-CG
REM
REM
REM
REM
REM
REM ./C.cell (12c818d87b63d06a65506943cc24bca4)
REM
REM compiler GCC version 9.2.1 20190827 (Red Hat 9.2.1-1)
REM options -cpp -mtune=generic -march=x86-64 -g -O0 -fpre-include=/usr/include/finclude/math-vector-fortran.h
REM seed 32038065 -1648940400 -1199780092 1925099721 48916669 -1528767212 -1112503413 1199875296 -1950272869 1569648966 -159770823 -240199960 259552395 -399619152 -755780522 364952031 -1810792921 1975382320 1067810364 -1312147803 259059735 1666301587 1141266198 993658085 -512268545 -654007154 -600377495 -1936256203 -552071789 1141972010 962662168 1934396017 -126628593
REM
CELL 1.54180   50.00000   50.00000   50.00000   90.00000   90.00000   90.00000
LATT -1
SFAC C  
C      1  0.5761220000000  0.5286610000000  0.5145270000000 1.0
C      1  0.5761680000000  0.4713720000000  0.5146160000000 1.0
C      1  0.5584550000000  0.5155490000000  0.5342310000000 1.0
C      1  0.5584400000000  0.4844930000000  0.5342400000000 1.0
C      1  0.4866680000000  0.4697900000000  0.4229630000000 1.0
C      1  0.4866880000000  0.5306480000000  0.4227360000000 1.0
C      1  0.5541050000000  0.4852470000000  0.4472340000000 1.0
C      1  0.5534740000000  0.5146120000000  0.4473920000000 1.0
C      1  0.4249040000000  0.4854230000000  0.5185420000000 1.0
C      1  0.4249390000000  0.5145330000000  0.5185180000000 1.0
C      1  0.4998670000000  0.4176790000000  0.5287460000000 1.0
C      1  0.4998750000000  0.5823100000000  0.5286930000000 1.0
C      1  0.5265950000000  0.5708990000000  0.4878800000000 1.0
C      1  0.5266500000000  0.4290150000000  0.4879550000000 1.0
C      1  0.4252660000000  0.4854730000000  0.4680140000000 1.0
C      1  0.4253140000000  0.5144370000000  0.4679990000000 1.0
C      1  0.5513340000000  0.4741360000000  0.4748280000000 1.0
C      1  0.5511890000000  0.5257770000000  0.4748910000000 1.0
C      1  0.4323540000000  0.4431200000000  0.4880720000000 1.0
C      1  0.4324400000000  0.5567880000000  0.4880140000000 1.0
C      1  0.4988110000000  0.5628910000000  0.5490900000000 1.0
C      1  0.4988150000000  0.4371190000000  0.5491210000000 1.0
C      1  0.4334580000000  0.4722010000000  0.5428510000000 1.0
C      1  0.4334880000000  0.5277710000000  0.5428110000000 1.0
C      1  0.5003160000000  0.5264890000000  0.4698870000000 1.0
C      1  0.5002670000000  0.4732490000000  0.4700360000000 1.0
C      1  0.5513870000000  0.4852550000000  0.5780320000000 1.0
C      1  0.5513910000000  0.5147760000000  0.5780200000000 1.0
C      1  0.4981860000000  0.4845940000000  0.5413620000000 1.0
C      1  0.4981750000000  0.5153670000000  0.5413740000000 1.0
C      1  0.4197940000000  0.4706600000000  0.4933050000000 1.0
C      1  0.4198530000000  0.5292720000000  0.4932710000000 1.0
C      1  0.5417830000000  0.5588990000000  0.5303300000000 1.0
C      1  0.5418120000000  0.4410490000000  0.5304000000000 1.0
C      1  0.5247420000000  0.5770550000000  0.5159850000000 1.0
C      1  0.5247540000000  0.4228790000000  0.5160590000000 1.0
C      1  0.4779550000000  0.4747950000000  0.5731120000000 1.0
C      1  0.4779610000000  0.5252230000000  0.5731200000000 1.0
C      1  0.4711250000000  0.4697380000000  0.5031070000000 1.0
C      1  0.4712760000000  0.5301980000000  0.5030510000000 1.0
C      1  0.5746280000000  0.4851800000000  0.4896240000000 1.0
C      1  0.5745810000000  0.5147830000000  0.4895810000000 1.0
C      1  0.5119480000000  0.4854870000000  0.4213700000000 1.0
C      1  0.5122040000000  0.5152660000000  0.4186680000000 1.0
C      1  0.4676910000000  0.4834500000000  0.5289220000000 1.0
C      1  0.4677250000000  0.5165320000000  0.5288800000000 1.0
C      1  0.4483180000000  0.4473240000000  0.5453070000000 1.0
C      1  0.4483360000000  0.5526470000000  0.5452630000000 1.0
C      1  0.4703880000000  0.4338370000000  0.4563830000000 1.0
C      1  0.4705420000000  0.5659970000000  0.4563800000000 1.0
C      1  0.4924930000000  0.4524230000000  0.4475180000000 1.0
C      1  0.4927410000000  0.5474650000000  0.4475100000000 1.0
C      1  0.4612050000000  0.5151070000000  0.4292410000000 1.0
C      1  0.4610270000000  0.4848270000000  0.4291930000000 1.0
C      1  0.5504400000000  0.5573130000000  0.4745860000000 1.0
C      1  0.5506120000000  0.4425580000000  0.4748320000000 1.0
C      1  0.5378350000000  0.5300340000000  0.4284770000000 1.0
C      1  0.5375610000000  0.4704040000000  0.4288160000000 1.0
C      1  0.5239980000000  0.4505550000000  0.5531230000000 1.0
C      1  0.5239840000000  0.5494380000000  0.5530810000000 1.0
C      1  0.5130650000000  0.4307880000000  0.4438030000000 1.0
C      1  0.5131380000000  0.5693610000000  0.4437850000000 1.0
C      1  0.4748810000000  0.4511170000000  0.5575520000000 1.0
C      1  0.4748870000000  0.5488750000000  0.5575190000000 1.0
C      1  0.5254450000000  0.4809470000000  0.5214030000000 1.0
C      1  0.5254020000000  0.5189860000000  0.5214210000000 1.0
C      1  0.5394840000000  0.4432060000000  0.4432510000000 1.0
C      1  0.5396280000000  0.5571950000000  0.4431160000000 1.0
C      1  0.5697860000000  0.4748870000000  0.5599590000000 1.0
C      1  0.5698040000000  0.5251410000000  0.5599540000000 1.0
C      1  0.5020990000000  0.4849610000000  0.5848960000000 1.0
C      1  0.5021030000000  0.5150580000000  0.5849050000000 1.0
C      1  0.5259850000000  0.5273110000000  0.5729270000000 1.0
C      1  0.5259870000000  0.4727090000000  0.5729390000000 1.0
C      1  0.4473290000000  0.4305530000000  0.5218880000000 1.0
C      1  0.4473750000000  0.5693840000000  0.5218280000000 1.0
C      1  0.4512300000000  0.5247740000000  0.4570020000000 1.0
C      1  0.4511490000000  0.4750970000000  0.4570090000000 1.0
C      1  0.4803960000000  0.5834220000000  0.4771790000000 1.0
C      1  0.4803700000000  0.4165540000000  0.4772450000000 1.0
C      1  0.5636310000000  0.4458750000000  0.5109660000000 1.0
C      1  0.5634810000000  0.5540840000000  0.5107810000000 1.0
C      1  0.5243320000000  0.5157100000000  0.4873780000000 1.0
C      1  0.5243940000000  0.4841960000000  0.4873360000000 1.0
C      1  0.5088270000000  0.4157600000000  0.4696300000000 1.0
C      1  0.5088500000000  0.5843140000000  0.4696240000000 1.0
C      1  0.4740050000000  0.4841020000000  0.4777030000000 1.0
C      1  0.4740570000000  0.5157710000000  0.4776660000000 1.0
C      1  0.4625090000000  0.5587190000000  0.4993520000000 1.0
C      1  0.4624000000000  0.4412110000000  0.4993780000000 1.0
C      1  0.4448280000000  0.5536960000000  0.4597000000000 1.0
C      1  0.4446870000000  0.4461670000000  0.4597310000000 1.0
END
