TITL C-3577090-796-353 -3.23304246215497e-07 125000 -36.981442622099 0 0 7 (Cs) n - 1
REM
REM in /home/bkarasulu/work/CARBON/AIRSS/Generating-Clusters/EDIP-Nigel-Params/with-SteepDescent/Higher-Symm/SD-CG/HFTN-CG
REM
REM
REM
REM
REM
REM ./C.cell (12c818d87b63d06a65506943cc24bca4)
REM
REM compiler GCC version 9.2.1 20190827 (Red Hat 9.2.1-1)
REM options -cpp -mtune=generic -march=x86-64 -g -O0 -fpre-include=/usr/include/finclude/math-vector-fortran.h
REM seed -888510540 21706173 -1379839450 1585335281 -1529984857 -899067495 -988612537 1589358324 586328978 -149825830 -520803593 -1678647325 1060957526 1612588423 445408011 -974265478 2045713971 2115085308 532935342 -955809660 1892472932 1941166969 -2114676885 875764037 1305365477 1068403011 -1006725855 1126397737 -332942931 -1134542769 308138258 -2089401953 370952634
REM
CELL 1.54180   50.00000   50.00000   50.00000   90.00000   90.00000   90.00000
LATT -1
SFAC C  
C      1  0.4781520000000  0.4855920000000  0.5161720000000 1.0
C      1  0.4776790000000  0.4959040000000  0.4789400000000 1.0
C      1  0.4768960000000  0.5124890000000  0.5035900000000 1.0
C      1  0.5048370000000  0.5209860000000  0.5055880000000 1.0
C      1  0.5053690000000  0.4770880000000  0.5173730000000 1.0
C      1  0.5048040000000  0.4894070000000  0.4728940000000 1.0
C      1  0.5171690000000  0.4953590000000  0.4983340000000 1.0
END
