TITL C-3578206-1180-525 3.03957182597844e-07 125000 -737.15219898392 0 0 119 (C1) n - 1
REM
REM in /home/bkarasulu/work/CARBON/AIRSS/Generating-Clusters/EDIP-Nigel-Params/with-SteepDescent/Higher-Symm/SD-CG/HFTN-CG
REM
REM
REM
REM
REM
REM ./C.cell (12c818d87b63d06a65506943cc24bca4)
REM
REM compiler GCC version 9.2.1 20190827 (Red Hat 9.2.1-1)
REM options -cpp -mtune=generic -march=x86-64 -g -O0 -fpre-include=/usr/include/finclude/math-vector-fortran.h
REM seed -1009449379 -931543817 472872931 265120072 -1849888999 169067342 -1603066372 -955639997 1434597921 1061870314 -1765574198 -100651952 1339788354 -1759444514 1241758868 924143041 1515466039 1852655045 644875148 -1163951389 -2052746452 -214585209 -2116569267 -363755187 213703631 -144381675 -345470130 31668828 -1502999471 -1550664502 470777743 -103040523 2092335468
REM
CELL 1.54180   50.00000   50.00000   50.00000   90.00000   90.00000   90.00000
LATT -1
SFAC C  
C      1  0.4651500000000  0.5147330000000  0.4756080000000 1.0
C      1  0.4764450000000  0.4655480000000  0.4528930000000 1.0
C      1  0.4518740000000  0.4516120000000  0.5578740000000 1.0
C      1  0.4551560000000  0.5508320000000  0.5741150000000 1.0
C      1  0.4473680000000  0.4436850000000  0.4614650000000 1.0
C      1  0.4440070000000  0.5399760000000  0.4757760000000 1.0
C      1  0.4581590000000  0.5361950000000  0.5322770000000 1.0
C      1  0.4461730000000  0.4799360000000  0.5245790000000 1.0
C      1  0.4612710000000  0.4657770000000  0.4106590000000 1.0
C      1  0.4648880000000  0.5226900000000  0.4200600000000 1.0
C      1  0.4800470000000  0.4499490000000  0.5637990000000 1.0
C      1  0.4792200000000  0.5384340000000  0.5581400000000 1.0
C      1  0.5578230000000  0.4368860000000  0.4774590000000 1.0
C      1  0.5709800000000  0.5710720000000  0.4649230000000 1.0
C      1  0.4456300000000  0.4141000000000  0.5257310000000 1.0
C      1  0.4884100000000  0.5818460000000  0.5534820000000 1.0
C      1  0.4134350000000  0.4810090000000  0.5493660000000 1.0
C      1  0.4203990000000  0.5337790000000  0.5408400000000 1.0
C      1  0.5099260000000  0.5437580000000  0.5271300000000 1.0
C      1  0.5069210000000  0.4612010000000  0.5182100000000 1.0
C      1  0.4611320000000  0.5634080000000  0.4857840000000 1.0
C      1  0.4563340000000  0.4211340000000  0.4791450000000 1.0
C      1  0.4372980000000  0.4753020000000  0.5623470000000 1.0
C      1  0.4312410000000  0.5379030000000  0.5664330000000 1.0
C      1  0.5404850000000  0.4999090000000  0.5168840000000 1.0
C      1  0.5420520000000  0.5323910000000  0.5133010000000 1.0
C      1  0.5685910000000  0.5294370000000  0.5568130000000 1.0
C      1  0.5719990000000  0.4996750000000  0.5536270000000 1.0
C      1  0.5759090000000  0.4634680000000  0.5169860000000 1.0
C      1  0.5860070000000  0.5555430000000  0.5130770000000 1.0
C      1  0.4165220000000  0.4655780000000  0.4342440000000 1.0
C      1  0.4204130000000  0.5222440000000  0.4404590000000 1.0
C      1  0.5868820000000  0.5523890000000  0.4827970000000 1.0
C      1  0.5738270000000  0.4581430000000  0.4885230000000 1.0
C      1  0.5062850000000  0.4305180000000  0.4257170000000 1.0
C      1  0.5098180000000  0.5581430000000  0.4319420000000 1.0
C      1  0.5440560000000  0.4901810000000  0.5595880000000 1.0
C      1  0.5404470000000  0.5338690000000  0.5684900000000 1.0
C      1  0.4592780000000  0.5497840000000  0.4302020000000 1.0
C      1  0.4549770000000  0.4373630000000  0.4185820000000 1.0
C      1  0.4864140000000  0.4768680000000  0.4254510000000 1.0
C      1  0.4917060000000  0.5122570000000  0.4286800000000 1.0
C      1  0.5752120000000  0.5260960000000  0.4760290000000 1.0
C      1  0.5707080000000  0.4821770000000  0.4745520000000 1.0
C      1  0.5583050000000  0.5562190000000  0.4422430000000 1.0
C      1  0.5461330000000  0.4393560000000  0.4507690000000 1.0
C      1  0.5152760000000  0.4173660000000  0.5618750000000 1.0
C      1  0.5319400000000  0.5625380000000  0.5691900000000 1.0
C      1  0.4377860000000  0.4674050000000  0.4779590000000 1.0
C      1  0.4201890000000  0.5262140000000  0.4901110000000 1.0
C      1  0.5122270000000  0.5903920000000  0.5058520000000 1.0
C      1  0.5110160000000  0.4177120000000  0.5018520000000 1.0
C      1  0.5569530000000  0.5858090000000  0.5283000000000 1.0
C      1  0.5502850000000  0.4245330000000  0.5354720000000 1.0
C      1  0.4714060000000  0.5199000000000  0.5071610000000 1.0
C      1  0.4726490000000  0.4929950000000  0.5173150000000 1.0
C      1  0.5095290000000  0.4921610000000  0.4761480000000 1.0
C      1  0.4931370000000  0.5159630000000  0.4616960000000 1.0
C      1  0.5545020000000  0.4839230000000  0.4304700000000 1.0
C      1  0.5500520000000  0.5131910000000  0.4360530000000 1.0
C      1  0.4350230000000  0.5469210000000  0.4479350000000 1.0
C      1  0.4302910000000  0.4387080000000  0.4366930000000 1.0
C      1  0.5779590000000  0.5168510000000  0.4480130000000 1.0
C      1  0.5809630000000  0.4843430000000  0.4474240000000 1.0
C      1  0.5417590000000  0.4154830000000  0.5603610000000 1.0
C      1  0.5452840000000  0.5804240000000  0.5527580000000 1.0
C      1  0.5536480000000  0.5875020000000  0.4801750000000 1.0
C      1  0.5582060000000  0.4116750000000  0.4892560000000 1.0
C      1  0.5005860000000  0.5895730000000  0.4804460000000 1.0
C      1  0.5052440000000  0.4257270000000  0.4721990000000 1.0
C      1  0.5416590000000  0.5317560000000  0.4169200000000 1.0
C      1  0.5349920000000  0.4644520000000  0.4399550000000 1.0
C      1  0.5146850000000  0.4716610000000  0.5920120000000 1.0
C      1  0.5034820000000  0.5197320000000  0.5969510000000 1.0
C      1  0.4924330000000  0.4271140000000  0.5496810000000 1.0
C      1  0.5035800000000  0.5652390000000  0.5709450000000 1.0
C      1  0.4930470000000  0.4343620000000  0.5199410000000 1.0
C      1  0.4949870000000  0.5741770000000  0.5246830000000 1.0
C      1  0.5314060000000  0.5547340000000  0.4533610000000 1.0
C      1  0.5242740000000  0.4201720000000  0.4481760000000 1.0
C      1  0.5121490000000  0.5336600000000  0.4154390000000 1.0
C      1  0.5119160000000  0.4596950000000  0.4221430000000 1.0
C      1  0.5387500000000  0.4890820000000  0.5887730000000 1.0
C      1  0.5331010000000  0.5181910000000  0.5940130000000 1.0
C      1  0.5726540000000  0.4411830000000  0.5336160000000 1.0
C      1  0.5841740000000  0.5812460000000  0.5244010000000 1.0
C      1  0.4783300000000  0.4253220000000  0.4345150000000 1.0
C      1  0.4829680000000  0.5645570000000  0.4420690000000 1.0
C      1  0.4983310000000  0.4747190000000  0.5664640000000 1.0
C      1  0.4949100000000  0.5132540000000  0.5684580000000 1.0
C      1  0.4122490000000  0.4779960000000  0.4637450000000 1.0
C      1  0.4096390000000  0.5091820000000  0.4657450000000 1.0
C      1  0.4424310000000  0.4574210000000  0.5061000000000 1.0
C      1  0.4483550000000  0.5667200000000  0.5321830000000 1.0
C      1  0.4585350000000  0.5773700000000  0.5586120000000 1.0
C      1  0.4397810000000  0.4288150000000  0.5476030000000 1.0
C      1  0.5701100000000  0.5325400000000  0.5259810000000 1.0
C      1  0.5702870000000  0.4930880000000  0.5242160000000 1.0
C      1  0.4915790000000  0.4770810000000  0.5001330000000 1.0
C      1  0.4985520000000  0.5302400000000  0.5044310000000 1.0
C      1  0.4865250000000  0.5658720000000  0.4714860000000 1.0
C      1  0.4794330000000  0.4134060000000  0.4627760000000 1.0
C      1  0.5038070000000  0.5406870000000  0.4768420000000 1.0
C      1  0.5016720000000  0.4582670000000  0.4679450000000 1.0
C      1  0.5393600000000  0.4133920000000  0.5102330000000 1.0
C      1  0.5406450000000  0.5861830000000  0.5048190000000 1.0
C      1  0.4598250000000  0.4319690000000  0.5077780000000 1.0
C      1  0.4669360000000  0.5743610000000  0.5120930000000 1.0
C      1  0.5177640000000  0.4776470000000  0.5414000000000 1.0
C      1  0.5198580000000  0.5197670000000  0.5497040000000 1.0
C      1  0.5384990000000  0.4987360000000  0.4850880000000 1.0
C      1  0.5452770000000  0.5296860000000  0.4809190000000 1.0
C      1  0.4216510000000  0.5160180000000  0.5180250000000 1.0
C      1  0.4088560000000  0.4917930000000  0.5241440000000 1.0
C      1  0.4941510000000  0.5021320000000  0.6167760000000 1.0
C      1  0.5010330000000  0.4759850000000  0.6164800000000 1.0
C      1  0.4421090000000  0.5071280000000  0.4285390000000 1.0
C      1  0.4365620000000  0.4811810000000  0.4175970000000 1.0
C      1  0.4600230000000  0.4852260000000  0.4701390000000 1.0
END
