TITL C-3577085-527-419 9.65965022170456e-07 125000 -465.716837732425 0 0 76 (C1) n - 1
REM
REM in /home/bkarasulu/work/CARBON/AIRSS/Generating-Clusters/EDIP-Nigel-Params/with-SteepDescent/Higher-Symm/SD-CG/HFTN-CG
REM
REM
REM
REM
REM
REM ./C.cell (12c818d87b63d06a65506943cc24bca4)
REM
REM compiler GCC version 9.2.1 20190827 (Red Hat 9.2.1-1)
REM options -cpp -mtune=generic -march=x86-64 -g -O0 -fpre-include=/usr/include/finclude/math-vector-fortran.h
REM seed -956359525 -1464029235 1874100411 679307349 -1007248533 -6296554 147239478 -511362476 1740381164 1003900407 -1913063297 1414931848 -1280700522 845750384 -1328491155 -1492692841 592291604 -937832294 -648967811 -518055140 1885399687 1413609303 -1478264224 159283656 -99024903 1778957336 147573601 1546574946 -640144049 2065612091 -986150092 199479350 2130648231
REM
CELL 1.54180   50.00000   50.00000   50.00000   90.00000   90.00000   90.00000
LATT -1
SFAC C  
C      1  0.5581490000000  0.5437120000000  0.4961560000000 1.0
C      1  0.4420600000000  0.4593540000000  0.4951230000000 1.0
C      1  0.5515270000000  0.4363160000000  0.5070370000000 1.0
C      1  0.4419310000000  0.5374540000000  0.5016370000000 1.0
C      1  0.5257910000000  0.5564800000000  0.4931800000000 1.0
C      1  0.4627680000000  0.4365270000000  0.4963870000000 1.0
C      1  0.4651050000000  0.5590500000000  0.5020830000000 1.0
C      1  0.5263730000000  0.4222790000000  0.5063350000000 1.0
C      1  0.4792240000000  0.4436340000000  0.4465340000000 1.0
C      1  0.5172710000000  0.5649880000000  0.4437520000000 1.0
C      1  0.4792720000000  0.5587660000000  0.5552820000000 1.0
C      1  0.5209850000000  0.4409580000000  0.5537950000000 1.0
C      1  0.4444150000000  0.4833930000000  0.4453010000000 1.0
C      1  0.5537610000000  0.5272280000000  0.4476310000000 1.0
C      1  0.5596100000000  0.4791650000000  0.5501010000000 1.0
C      1  0.4467440000000  0.5214550000000  0.5517590000000 1.0
C      1  0.5646170000000  0.5257450000000  0.5202340000000 1.0
C      1  0.4345040000000  0.4788660000000  0.5162110000000 1.0
C      1  0.5623470000000  0.4617840000000  0.4991150000000 1.0
C      1  0.4349350000000  0.5235130000000  0.4760420000000 1.0
C      1  0.5166240000000  0.5666960000000  0.5200180000000 1.0
C      1  0.4758720000000  0.4311330000000  0.5227310000000 1.0
C      1  0.4771150000000  0.5663160000000  0.4756580000000 1.0
C      1  0.5149780000000  0.4244080000000  0.4790520000000 1.0
C      1  0.5113090000000  0.5297290000000  0.4886560000000 1.0
C      1  0.4950720000000  0.4647480000000  0.4863640000000 1.0
C      1  0.5105610000000  0.4631240000000  0.5128850000000 1.0
C      1  0.4924570000000  0.5276290000000  0.5127210000000 1.0
C      1  0.5333540000000  0.5080600000000  0.4866310000000 1.0
C      1  0.4684970000000  0.4929350000000  0.4855960000000 1.0
C      1  0.4708220000000  0.5056340000000  0.5129310000000 1.0
C      1  0.5353110000000  0.4935570000000  0.5129010000000 1.0
C      1  0.4397640000000  0.4917230000000  0.4748020000000 1.0
C      1  0.5585630000000  0.5218870000000  0.4767310000000 1.0
C      1  0.4418920000000  0.5144240000000  0.5219510000000 1.0
C      1  0.5639110000000  0.4886530000000  0.5205410000000 1.0
C      1  0.4864900000000  0.4378320000000  0.4760820000000 1.0
C      1  0.5079670000000  0.5710800000000  0.4718420000000 1.0
C      1  0.5076510000000  0.4353700000000  0.5253640000000 1.0
C      1  0.4860010000000  0.5636200000000  0.5259080000000 1.0
C      1  0.4648900000000  0.5002210000000  0.5615770000000 1.0
C      1  0.5422470000000  0.5020200000000  0.5601000000000 1.0
C      1  0.4646040000000  0.5042160000000  0.4380690000000 1.0
C      1  0.5401610000000  0.5017540000000  0.4384480000000 1.0
C      1  0.5010690000000  0.4606480000000  0.5631160000000 1.0
C      1  0.5026750000000  0.5408070000000  0.5618470000000 1.0
C      1  0.5024990000000  0.4603460000000  0.4381550000000 1.0
C      1  0.4971710000000  0.5439240000000  0.4383540000000 1.0
C      1  0.4803030000000  0.5050190000000  0.4126670000000 1.0
C      1  0.5210260000000  0.4995930000000  0.4152170000000 1.0
C      1  0.4816530000000  0.4982770000000  0.5857940000000 1.0
C      1  0.5283090000000  0.5039460000000  0.5859420000000 1.0
C      1  0.5038610000000  0.4752950000000  0.4133620000000 1.0
C      1  0.4972000000000  0.5293280000000  0.4127390000000 1.0
C      1  0.5017290000000  0.4770280000000  0.5872060000000 1.0
C      1  0.5083440000000  0.5255550000000  0.5868820000000 1.0
C      1  0.4594560000000  0.5609510000000  0.4539400000000 1.0
C      1  0.5360060000000  0.4392930000000  0.4666750000000 1.0
C      1  0.4590430000000  0.4441370000000  0.5406300000000 1.0
C      1  0.5359130000000  0.5605630000000  0.5399770000000 1.0
C      1  0.5496680000000  0.4635730000000  0.4720250000000 1.0
C      1  0.4426530000000  0.5392970000000  0.4540180000000 1.0
C      1  0.4406800000000  0.4646980000000  0.5404410000000 1.0
C      1  0.5547350000000  0.5405210000000  0.5420190000000 1.0
C      1  0.5084980000000  0.5262710000000  0.5367470000000 1.0
C      1  0.5009390000000  0.4779560000000  0.5388130000000 1.0
C      1  0.5046700000000  0.4790780000000  0.4612440000000 1.0
C      1  0.4958950000000  0.5278920000000  0.4636660000000 1.0
C      1  0.5212990000000  0.5010440000000  0.5387010000000 1.0
C      1  0.4726670000000  0.4856140000000  0.5367500000000 1.0
C      1  0.4839460000000  0.5021520000000  0.4608590000000 1.0
C      1  0.5327890000000  0.4876020000000  0.4641380000000 1.0
C      1  0.5425820000000  0.5526860000000  0.4424900000000 1.0
C      1  0.5458700000000  0.4544590000000  0.5524900000000 1.0
C      1  0.4540050000000  0.5472780000000  0.5594120000000 1.0
C      1  0.4553490000000  0.4577320000000  0.4424300000000 1.0
END
