TITL C-3577083-591-239 -3.44623286158364e-06 125000 -1198.14515611444 0 0 192 (C2) n - 1
REM
REM in /home/bkarasulu/work/CARBON/AIRSS/Generating-Clusters/EDIP-Nigel-Params/with-SteepDescent/Higher-Symm/SD-CG/HFTN-CG
REM
REM
REM
REM
REM
REM ./C.cell (12c818d87b63d06a65506943cc24bca4)
REM
REM compiler GCC version 9.2.1 20190827 (Red Hat 9.2.1-1)
REM options -cpp -mtune=generic -march=x86-64 -g -O0 -fpre-include=/usr/include/finclude/math-vector-fortran.h
REM seed 1173715099 -490361828 2028807175 798956953 723190919 1501985369 -505077208 2075937811 -2071233196 -1615988461 920629750 110477375 -1600508930 276306538 -1780229581 -951153360 -1754474399 1721065605 -403444666 567509565 -2119142862 1469867064 422796456 697832440 862472271 -922244582 -1204591558 -742619613 680242396 1399695202 1778561784 1459185966 -1437477757
REM
CELL 1.54180   50.00000   50.00000   50.00000   90.00000   90.00000   90.00000
LATT -1
SFAC C  
C      1  0.5189620000000  0.5632970000000  0.5895760000000 1.0
C      1  0.5615640000000  0.5146460000000  0.5885050000000 1.0
C      1  0.5450210000000  0.4518020000000  0.5896860000000 1.0
C      1  0.4811550000000  0.4377720000000  0.5887190000000 1.0
C      1  0.4382820000000  0.4856280000000  0.5883570000000 1.0
C      1  0.4556090000000  0.5482790000000  0.5895880000000 1.0
C      1  0.4813000000000  0.5625040000000  0.5884550000000 1.0
C      1  0.4384670000000  0.5153010000000  0.5878740000000 1.0
C      1  0.4556090000000  0.4524900000000  0.5898010000000 1.0
C      1  0.5195180000000  0.4377280000000  0.5882020000000 1.0
C      1  0.5616820000000  0.4849720000000  0.5878460000000 1.0
C      1  0.5439850000000  0.5478380000000  0.5899600000000 1.0
C      1  0.5128150000000  0.5446740000000  0.4801620000000 1.0
C      1  0.5447670000000  0.5137900000000  0.4815030000000 1.0
C      1  0.5293270000000  0.4714880000000  0.4634590000000 1.0
C      1  0.4871750000000  0.4552380000000  0.4800140000000 1.0
C      1  0.4552140000000  0.4861080000000  0.4814330000000 1.0
C      1  0.4706790000000  0.5284780000000  0.4635370000000 1.0
C      1  0.4849100000000  0.5471030000000  0.4775490000000 1.0
C      1  0.4503820000000  0.5122460000000  0.4728470000000 1.0
C      1  0.4713000000000  0.4709930000000  0.4639650000000 1.0
C      1  0.5151130000000  0.4529390000000  0.4775790000000 1.0
C      1  0.5496260000000  0.4876910000000  0.4728290000000 1.0
C      1  0.5287200000000  0.5289840000000  0.4640760000000 1.0
C      1  0.4288510000000  0.5602940000000  0.4393990000000 1.0
C      1  0.5148070000000  0.5980410000000  0.4405960000000 1.0
C      1  0.5803110000000  0.5306270000000  0.4397300000000 1.0
C      1  0.5711380000000  0.4396720000000  0.4394000000000 1.0
C      1  0.4851660000000  0.4019300000000  0.4406050000000 1.0
C      1  0.4196450000000  0.4693430000000  0.4397200000000 1.0
C      1  0.5696990000000  0.5595980000000  0.4389580000000 1.0
C      1  0.4840020000000  0.5980090000000  0.4382510000000 1.0
C      1  0.4182230000000  0.5312740000000  0.4388820000000 1.0
C      1  0.4302670000000  0.4403690000000  0.4389310000000 1.0
C      1  0.5159720000000  0.4019540000000  0.4382850000000 1.0
C      1  0.5817780000000  0.4686990000000  0.4388950000000 1.0
C      1  0.5733130000000  0.5762950000000  0.4871950000000 1.0
C      1  0.6146150000000  0.4723580000000  0.4786430000000 1.0
C      1  0.5340390000000  0.3829270000000  0.4813250000000 1.0
C      1  0.4266150000000  0.4236460000000  0.4871310000000 1.0
C      1  0.3853890000000  0.5276990000000  0.4786090000000 1.0
C      1  0.4659460000000  0.6170580000000  0.4812730000000 1.0
C      1  0.4245630000000  0.5778750000000  0.4870960000000 1.0
C      1  0.3890260000000  0.4718020000000  0.4799190000000 1.0
C      1  0.4665130000000  0.3827440000000  0.4833840000000 1.0
C      1  0.5754570000000  0.4220580000000  0.4870650000000 1.0
C      1  0.6109010000000  0.5282330000000  0.4799210000000 1.0
C      1  0.5334430000000  0.6172110000000  0.4833870000000 1.0
C      1  0.5613600000000  0.5809950000000  0.4597340000000 1.0
C      1  0.5997920000000  0.4850310000000  0.4567030000000 1.0
C      1  0.5383360000000  0.4006470000000  0.4585570000000 1.0
C      1  0.4385920000000  0.4189510000000  0.4596910000000 1.0
C      1  0.4001910000000  0.5149700000000  0.4566830000000 1.0
C      1  0.4616320000000  0.5993280000000  0.4585200000000 1.0
C      1  0.4371550000000  0.5814030000000  0.4597370000000 1.0
C      1  0.4011880000000  0.4850580000000  0.4570210000000 1.0
C      1  0.4624280000000  0.4002020000000  0.4602000000000 1.0
C      1  0.5628310000000  0.4185490000000  0.4597270000000 1.0
C      1  0.5987770000000  0.5149380000000  0.4570280000000 1.0
C      1  0.5375300000000  0.5997490000000  0.4602120000000 1.0
C      1  0.4278420000000  0.5998840000000  0.5071250000000 1.0
C      1  0.5489530000000  0.6153110000000  0.5084670000000 1.0
C      1  0.6151720000000  0.5142750000000  0.5051360000000 1.0
C      1  0.5721970000000  0.4000510000000  0.5070920000000 1.0
C      1  0.4509760000000  0.3846060000000  0.5084550000000 1.0
C      1  0.3848070000000  0.4858180000000  0.5051190000000 1.0
C      1  0.5722770000000  0.5979750000000  0.5080580000000 1.0
C      1  0.4533350000000  0.6125320000000  0.5068250000000 1.0
C      1  0.3859010000000  0.5145470000000  0.5046230000000 1.0
C      1  0.4276240000000  0.4019380000000  0.5079810000000 1.0
C      1  0.5466790000000  0.3874380000000  0.5068680000000 1.0
C      1  0.6140620000000  0.4855490000000  0.5046400000000 1.0
C      1  0.5459790000000  0.4893280000000  0.5310110000000 1.0
C      1  0.5124000000000  0.4557150000000  0.5353600000000 1.0
C      1  0.4694690000000  0.4665710000000  0.5390440000000 1.0
C      1  0.4540580000000  0.5104980000000  0.5310060000000 1.0
C      1  0.4876730000000  0.5439570000000  0.5353520000000 1.0
C      1  0.5304390000000  0.5329780000000  0.5390890000000 1.0
C      1  0.4574060000000  0.4896380000000  0.5485680000000 1.0
C      1  0.4917450000000  0.4587100000000  0.5535360000000 1.0
C      1  0.5377440000000  0.4648640000000  0.5420480000000 1.0
C      1  0.5428370000000  0.5100920000000  0.5486150000000 1.0
C      1  0.5080120000000  0.5400750000000  0.5537000000000 1.0
C      1  0.4622710000000  0.5350000000000  0.5419170000000 1.0
C      1  0.4439370000000  0.4470820000000  0.4982550000000 1.0
C      1  0.4270890000000  0.5213860000000  0.4895530000000 1.0
C      1  0.4701740000000  0.5616640000000  0.4972710000000 1.0
C      1  0.5559760000000  0.5528420000000  0.4982930000000 1.0
C      1  0.5729030000000  0.4785480000000  0.4895830000000 1.0
C      1  0.5298790000000  0.4383660000000  0.4972600000000 1.0
C      1  0.5595820000000  0.4460510000000  0.4989920000000 1.0
C      1  0.5719060000000  0.5170100000000  0.4968170000000 1.0
C      1  0.5272580000000  0.5619430000000  0.4968170000000 1.0
C      1  0.4404630000000  0.5538760000000  0.4989810000000 1.0
C      1  0.4280570000000  0.4829110000000  0.4967700000000 1.0
C      1  0.4726780000000  0.4380830000000  0.4967440000000 1.0
C      1  0.3796530000000  0.4448780000000  0.5317820000000 1.0
C      1  0.3938750000000  0.5794360000000  0.5338660000000 1.0
C      1  0.5135650000000  0.6324400000000  0.5370330000000 1.0
C      1  0.6203190000000  0.5552520000000  0.5317930000000 1.0
C      1  0.6062230000000  0.4206260000000  0.5336810000000 1.0
C      1  0.4864630000000  0.3676170000000  0.5370580000000 1.0
C      1  0.6176610000000  0.4446720000000  0.5314780000000 1.0
C      1  0.6067110000000  0.5779050000000  0.5348310000000 1.0
C      1  0.4873050000000  0.6285980000000  0.5387960000000 1.0
C      1  0.3823430000000  0.5554600000000  0.5314620000000 1.0
C      1  0.3931250000000  0.4221110000000  0.5346080000000 1.0
C      1  0.5127300000000  0.3714010000000  0.5388810000000 1.0
C      1  0.4868400000000  0.6347510000000  0.4803760000000 1.0
C      1  0.6007290000000  0.5710490000000  0.4838200000000 1.0
C      1  0.6203940000000  0.4454230000000  0.4771450000000 1.0
C      1  0.5131400000000  0.3652410000000  0.4804500000000 1.0
C      1  0.3992150000000  0.4289740000000  0.4837240000000 1.0
C      1  0.3795630000000  0.5546270000000  0.4770500000000 1.0
C      1  0.5132100000000  0.6357400000000  0.4822110000000 1.0
C      1  0.3968780000000  0.5734000000000  0.4838790000000 1.0
C      1  0.3797730000000  0.4457040000000  0.4769480000000 1.0
C      1  0.4867670000000  0.3642370000000  0.4822300000000 1.0
C      1  0.6031400000000  0.4265390000000  0.4838110000000 1.0
C      1  0.6201380000000  0.5543340000000  0.4769090000000 1.0
C      1  0.3843370000000  0.5278280000000  0.5307780000000 1.0
C      1  0.4615300000000  0.6239240000000  0.5316970000000 1.0
C      1  0.5813230000000  0.5889720000000  0.5348200000000 1.0
C      1  0.6157070000000  0.4723140000000  0.5307970000000 1.0
C      1  0.5385110000000  0.3759710000000  0.5317210000000 1.0
C      1  0.4184720000000  0.4109430000000  0.5347010000000 1.0
C      1  0.6166670000000  0.5278610000000  0.5315140000000 1.0
C      1  0.5362200000000  0.6165870000000  0.5355290000000 1.0
C      1  0.4183210000000  0.5926820000000  0.5342260000000 1.0
C      1  0.3832950000000  0.4722770000000  0.5315050000000 1.0
C      1  0.4637580000000  0.3834010000000  0.5355260000000 1.0
C      1  0.5818310000000  0.4072750000000  0.5341350000000 1.0
C      1  0.5700890000000  0.4853130000000  0.4174520000000 1.0
C      1  0.5227450000000  0.4122080000000  0.4126250000000 1.0
C      1  0.4411480000000  0.4375290000000  0.4129830000000 1.0
C      1  0.4299020000000  0.5146570000000  0.4174450000000 1.0
C      1  0.4772450000000  0.5877620000000  0.4125840000000 1.0
C      1  0.5588310000000  0.5624410000000  0.4130030000000 1.0
C      1  0.4301920000000  0.4856080000000  0.4178770000000 1.0
C      1  0.4766680000000  0.4144660000000  0.4170870000000 1.0
C      1  0.5572290000000  0.4368590000000  0.4153730000000 1.0
C      1  0.5697890000000  0.5143630000000  0.4178820000000 1.0
C      1  0.5233090000000  0.5855070000000  0.4170790000000 1.0
C      1  0.4427670000000  0.5631070000000  0.4153760000000 1.0
C      1  0.4852520000000  0.4242500000000  0.5197980000000 1.0
C      1  0.4275520000000  0.4750670000000  0.5278480000000 1.0
C      1  0.4418200000000  0.5532850000000  0.5301530000000 1.0
C      1  0.5147090000000  0.5756630000000  0.5199620000000 1.0
C      1  0.5724320000000  0.5248700000000  0.5278550000000 1.0
C      1  0.5582400000000  0.4466020000000  0.5301890000000 1.0
C      1  0.5148750000000  0.4296990000000  0.5229330000000 1.0
C      1  0.5731320000000  0.4817840000000  0.5216900000000 1.0
C      1  0.5541210000000  0.5488770000000  0.5295190000000 1.0
C      1  0.4852260000000  0.5700900000000  0.5230740000000 1.0
C      1  0.4268480000000  0.5181260000000  0.5216450000000 1.0
C      1  0.4456950000000  0.4509630000000  0.5294360000000 1.0
C      1  0.5311170000000  0.5876810000000  0.5441620000000 1.0
C      1  0.5941220000000  0.5174050000000  0.5483510000000 1.0
C      1  0.5601340000000  0.4229870000000  0.5480780000000 1.0
C      1  0.4687910000000  0.4123640000000  0.5439820000000 1.0
C      1  0.4058640000000  0.4827640000000  0.5482760000000 1.0
C      1  0.4400790000000  0.5769070000000  0.5480570000000 1.0
C      1  0.4699130000000  0.5890760000000  0.5445960000000 1.0
C      1  0.4068320000000  0.5152080000000  0.5465030000000 1.0
C      1  0.4400940000000  0.4277080000000  0.5474510000000 1.0
C      1  0.5301970000000  0.4108740000000  0.5445800000000 1.0
C      1  0.5932070000000  0.4849920000000  0.5464780000000 1.0
C      1  0.5596440000000  0.5722130000000  0.5475300000000 1.0
C      1  0.4850610000000  0.4149070000000  0.5702710000000 1.0
C      1  0.4178010000000  0.4694930000000  0.5741670000000 1.0
C      1  0.4328500000000  0.5582670000000  0.5733830000000 1.0
C      1  0.5149120000000  0.5855810000000  0.5706100000000 1.0
C      1  0.5818330000000  0.5307820000000  0.5742240000000 1.0
C      1  0.5677050000000  0.4419260000000  0.5733240000000 1.0
C      1  0.5146400000000  0.4145540000000  0.5708680000000 1.0
C      1  0.5810220000000  0.4698210000000  0.5713500000000 1.0
C      1  0.5668250000000  0.5573010000000  0.5741010000000 1.0
C      1  0.4853550000000  0.5858940000000  0.5709830000000 1.0
C      1  0.4193360000000  0.5305480000000  0.5713460000000 1.0
C      1  0.4327500000000  0.4427720000000  0.5739950000000 1.0
C      1  0.5369380000000  0.4539140000000  0.4067710000000 1.0
C      1  0.4856960000000  0.4398310000000  0.4092150000000 1.0
C      1  0.4555140000000  0.4813300000000  0.4037430000000 1.0
C      1  0.4630590000000  0.5460460000000  0.4067870000000 1.0
C      1  0.5142880000000  0.5601370000000  0.4092140000000 1.0
C      1  0.5444710000000  0.5186360000000  0.4037470000000 1.0
C      1  0.4614100000000  0.4532440000000  0.4010580000000 1.0
C      1  0.5137990000000  0.4371570000000  0.4020740000000 1.0
C      1  0.5449660000000  0.4811440000000  0.4025340000000 1.0
C      1  0.5385760000000  0.5467240000000  0.4010660000000 1.0
C      1  0.4861900000000  0.5628030000000  0.4020510000000 1.0
C      1  0.4550260000000  0.5188200000000  0.4025320000000 1.0
END
