TITL C-3578202-4305-247 3.30678746324156e-06 125000 -707.575136373985 0 0 115 (C1) n - 1
REM
REM in /home/bkarasulu/work/CARBON/AIRSS/Generating-Clusters/EDIP-Nigel-Params/with-SteepDescent/Higher-Symm/SD-CG/HFTN-CG
REM
REM
REM
REM
REM
REM ./C.cell (12c818d87b63d06a65506943cc24bca4)
REM
REM compiler GCC version 9.2.1 20190827 (Red Hat 9.2.1-1)
REM options -cpp -mtune=generic -march=x86-64 -g -O0 -fpre-include=/usr/include/finclude/math-vector-fortran.h
REM seed 1756412118 1474507630 1717698634 1248973503 -1503514867 1290994449 -1235381128 -986398796 2083623544 1363897698 475483428 -925734826 -1978921602 1143885804 -1310467033 -1018821349 18725868 -1938644697 -525464495 -1696848932 1237648392 -282948589 -1731982178 289664000 -469773573 -1075075800 -2131508775 -542289955 -1733719506 2104167778 946450764 608148313 -475013019
REM
CELL 1.54180   50.00000   50.00000   50.00000   90.00000   90.00000   90.00000
LATT -1
SFAC C  
C      1  0.5862880000000  0.5300320000000  0.4709720000000 1.0
C      1  0.5801280000000  0.4796550000000  0.4713650000000 1.0
C      1  0.5530340000000  0.4364470000000  0.4669930000000 1.0
C      1  0.5124280000000  0.4131390000000  0.4653990000000 1.0
C      1  0.4639090000000  0.4254190000000  0.4679230000000 1.0
C      1  0.4215960000000  0.4508060000000  0.4731940000000 1.0
C      1  0.4132380000000  0.4990220000000  0.4733740000000 1.0
C      1  0.4277950000000  0.5451240000000  0.4704060000000 1.0
C      1  0.4632860000000  0.5768110000000  0.4749100000000 1.0
C      1  0.5091040000000  0.5917730000000  0.4743660000000 1.0
C      1  0.5513360000000  0.5654790000000  0.4684800000000 1.0
C      1  0.5533180000000  0.4997150000000  0.4330610000000 1.0
C      1  0.5486210000000  0.4720190000000  0.4413190000000 1.0
C      1  0.5199410000000  0.4380540000000  0.4473130000000 1.0
C      1  0.4956290000000  0.4563840000000  0.4518970000000 1.0
C      1  0.4694300000000  0.4452720000000  0.4437720000000 1.0
C      1  0.4531880000000  0.4692900000000  0.4484740000000 1.0
C      1  0.4570800000000  0.5310380000000  0.4516900000000 1.0
C      1  0.4787120000000  0.5481770000000  0.4398260000000 1.0
C      1  0.5050480000000  0.5468400000000  0.4526750000000 1.0
C      1  0.5325060000000  0.5473290000000  0.4402990000000 1.0
C      1  0.5408510000000  0.5204910000000  0.4493750000000 1.0
C      1  0.5226990000000  0.4384610000000  0.4168330000000 1.0
C      1  0.4976940000000  0.4417450000000  0.4046250000000 1.0
C      1  0.4730030000000  0.4506240000000  0.4138070000000 1.0
C      1  0.4610950000000  0.4851280000000  0.4251630000000 1.0
C      1  0.4551690000000  0.5132650000000  0.4264520000000 1.0
C      1  0.4786540000000  0.5387670000000  0.4126690000000 1.0
C      1  0.5026490000000  0.5462470000000  0.4010570000000 1.0
C      1  0.5291230000000  0.5454850000000  0.4096560000000 1.0
C      1  0.5429690000000  0.5245020000000  0.3975280000000 1.0
C      1  0.5464470000000  0.4983270000000  0.4054980000000 1.0
C      1  0.5396210000000  0.4617490000000  0.4150480000000 1.0
C      1  0.5301270000000  0.5378630000000  0.5277490000000 1.0
C      1  0.5377510000000  0.5101200000000  0.5378100000000 1.0
C      1  0.5448490000000  0.4878460000000  0.5173620000000 1.0
C      1  0.5264150000000  0.4618560000000  0.5216080000000 1.0
C      1  0.5010140000000  0.4502380000000  0.5371050000000 1.0
C      1  0.4754740000000  0.4522970000000  0.5219840000000 1.0
C      1  0.4586130000000  0.4731240000000  0.5339540000000 1.0
C      1  0.4481730000000  0.4988750000000  0.5217940000000 1.0
C      1  0.4581300000000  0.5232730000000  0.5380220000000 1.0
C      1  0.4765450000000  0.5449000000000  0.5253270000000 1.0
C      1  0.5038450000000  0.5458590000000  0.5398890000000 1.0
C      1  0.5108750000000  0.4087190000000  0.5241980000000 1.0
C      1  0.4632210000000  0.4245280000000  0.5272930000000 1.0
C      1  0.4198880000000  0.4472520000000  0.5287440000000 1.0
C      1  0.4182380000000  0.4971270000000  0.5299900000000 1.0
C      1  0.4199230000000  0.5478730000000  0.5290100000000 1.0
C      1  0.4596840000000  0.5796440000000  0.5316420000000 1.0
C      1  0.5106550000000  0.5887020000000  0.5303350000000 1.0
C      1  0.5590010000000  0.5714920000000  0.5263910000000 1.0
C      1  0.5837570000000  0.5277760000000  0.5268850000000 1.0
C      1  0.5730900000000  0.4803480000000  0.5265300000000 1.0
C      1  0.5581390000000  0.4311630000000  0.5241310000000 1.0
C      1  0.4884360000000  0.4183760000000  0.4823960000000 1.0
C      1  0.4393630000000  0.4313160000000  0.4841040000000 1.0
C      1  0.4108840000000  0.4735530000000  0.4864940000000 1.0
C      1  0.4124920000000  0.5248840000000  0.4851260000000 1.0
C      1  0.4393960000000  0.5664250000000  0.4858650000000 1.0
C      1  0.4838800000000  0.5913930000000  0.4882600000000 1.0
C      1  0.5353190000000  0.5856720000000  0.4845770000000 1.0
C      1  0.5765220000000  0.5547230000000  0.4824830000000 1.0
C      1  0.5894810000000  0.5041480000000  0.4839130000000 1.0
C      1  0.5697310000000  0.4551340000000  0.4826510000000 1.0
C      1  0.5389230000000  0.4136370000000  0.4791280000000 1.0
C      1  0.4821690000000  0.4602910000000  0.4933130000000 1.0
C      1  0.4541530000000  0.4715610000000  0.4792300000000 1.0
C      1  0.4480280000000  0.4999240000000  0.4902360000000 1.0
C      1  0.4692790000000  0.5193900000000  0.4781020000000 1.0
C      1  0.4774290000000  0.5458250000000  0.4932730000000 1.0
C      1  0.5054290000000  0.5538210000000  0.4811290000000 1.0
C      1  0.5322970000000  0.5429790000000  0.4943720000000 1.0
C      1  0.5490470000000  0.5213530000000  0.4773140000000 1.0
C      1  0.5472760000000  0.4930670000000  0.4872260000000 1.0
C      1  0.5319340000000  0.4743340000000  0.4688940000000 1.0
C      1  0.5184240000000  0.4502190000000  0.4887470000000 1.0
C      1  0.5715940000000  0.5202030000000  0.5524640000000 1.0
C      1  0.5719690000000  0.4913540000000  0.5580170000000 1.0
C      1  0.5448590000000  0.4480100000000  0.5432900000000 1.0
C      1  0.5063720000000  0.4229080000000  0.5489350000000 1.0
C      1  0.4571220000000  0.4386640000000  0.5621450000000 1.0
C      1  0.4378830000000  0.4592140000000  0.5501930000000 1.0
C      1  0.4267630000000  0.4875730000000  0.5611910000000 1.0
C      1  0.4345850000000  0.5364010000000  0.5509810000000 1.0
C      1  0.4638160000000  0.5690100000000  0.5586450000000 1.0
C      1  0.5078720000000  0.5719440000000  0.5543460000000 1.0
C      1  0.5475510000000  0.5554040000000  0.5475080000000 1.0
C      1  0.4390940000000  0.5650190000000  0.5147590000000 1.0
C      1  0.4847130000000  0.5875290000000  0.5167330000000 1.0
C      1  0.5349380000000  0.5824050000000  0.5136540000000 1.0
C      1  0.5724920000000  0.5504450000000  0.5112140000000 1.0
C      1  0.5888110000000  0.5026770000000  0.5129450000000 1.0
C      1  0.5750770000000  0.4520990000000  0.5113140000000 1.0
C      1  0.5343290000000  0.4204270000000  0.5082250000000 1.0
C      1  0.4849720000000  0.4086690000000  0.5100700000000 1.0
C      1  0.4369070000000  0.4271290000000  0.5132580000000 1.0
C      1  0.4090440000000  0.4721410000000  0.5154100000000 1.0
C      1  0.4093640000000  0.5242230000000  0.5148500000000 1.0
C      1  0.5485820000000  0.4890490000000  0.5768470000000 1.0
C      1  0.5254910000000  0.4740690000000  0.5643340000000 1.0
C      1  0.5044190000000  0.4507280000000  0.5756830000000 1.0
C      1  0.4750180000000  0.4532400000000  0.5805320000000 1.0
C      1  0.4658940000000  0.4786510000000  0.5876350000000 1.0
C      1  0.4514330000000  0.4983030000000  0.5741620000000 1.0
C      1  0.4550330000000  0.5260350000000  0.5822350000000 1.0
C      1  0.4740490000000  0.5460620000000  0.5726060000000 1.0
C      1  0.5010830000000  0.5475860000000  0.5840080000000 1.0
C      1  0.5280940000000  0.5399870000000  0.5766850000000 1.0
C      1  0.5398050000000  0.5153590000000  0.5830580000000 1.0
C      1  0.4961120000000  0.4861400000000  0.4995770000000 1.0
C      1  0.5132270000000  0.4969300000000  0.5486610000000 1.0
C      1  0.4989840000000  0.4858860000000  0.4528380000000 1.0
C      1  0.4945470000000  0.5030170000000  0.4759800000000 1.0
C      1  0.4965590000000  0.4946290000000  0.5263590000000 1.0
END
