TITL C-3578207-9274-683 -9.26922252588766e-07 125000 -1051.01844681086 0 0 169 (C1) n - 1
REM
REM in /home/bkarasulu/work/CARBON/AIRSS/Generating-Clusters/EDIP-Nigel-Params/with-SteepDescent/Higher-Symm/SD-CG/HFTN-CG
REM
REM
REM
REM
REM
REM ./C.cell (12c818d87b63d06a65506943cc24bca4)
REM
REM compiler GCC version 9.2.1 20190827 (Red Hat 9.2.1-1)
REM options -cpp -mtune=generic -march=x86-64 -g -O0 -fpre-include=/usr/include/finclude/math-vector-fortran.h
REM seed 1494218196 503883730 -2041457064 1943677746 -366704993 494724593 -2103979194 -1759658529 -1456260456 571882786 368202881 -749426272 2015513434 -1540749282 -2095712123 -1167033440 -1401404810 -313856671 923514187 -77697044 468938960 2073781771 -1556496719 -348562574 122524990 1828194375 414367580 -71878268 -1760895323 -277167767 -461153716 -138456540 -1614705937
REM
CELL 1.54180   50.00000   50.00000   50.00000   90.00000   90.00000   90.00000
LATT -1
SFAC C  
C      1  0.5481850000000  0.5168380000000  0.5480370000000 1.0
C      1  0.4888410000000  0.5254390000000  0.5576270000000 1.0
C      1  0.4583050000000  0.5173560000000  0.5543240000000 1.0
C      1  0.4670650000000  0.4654790000000  0.5495440000000 1.0
C      1  0.5198470000000  0.4860160000000  0.5592210000000 1.0
C      1  0.6069880000000  0.4766570000000  0.5322950000000 1.0
C      1  0.5610120000000  0.6032500000000  0.5291530000000 1.0
C      1  0.4297860000000  0.5802880000000  0.5325700000000 1.0
C      1  0.3959520000000  0.4519380000000  0.5297350000000 1.0
C      1  0.5100660000000  0.3869180000000  0.5306670000000 1.0
C      1  0.4405010000000  0.4924310000000  0.5159020000000 1.0
C      1  0.4769660000000  0.4337150000000  0.5128900000000 1.0
C      1  0.5457750000000  0.4678420000000  0.5179900000000 1.0
C      1  0.5500400000000  0.5346070000000  0.5007440000000 1.0
C      1  0.4823090000000  0.5550440000000  0.5156430000000 1.0
C      1  0.5299850000000  0.5647810000000  0.4118060000000 1.0
C      1  0.4493350000000  0.5456970000000  0.4153890000000 1.0
C      1  0.4402390000000  0.4669410000000  0.4151900000000 1.0
C      1  0.5144510000000  0.4320950000000  0.4134910000000 1.0
C      1  0.5697720000000  0.4891460000000  0.4117930000000 1.0
C      1  0.4399190000000  0.5636390000000  0.4641460000000 1.0
C      1  0.4187450000000  0.4593990000000  0.4632200000000 1.0
C      1  0.5124300000000  0.4021920000000  0.4593550000000 1.0
C      1  0.5913350000000  0.4828690000000  0.4625460000000 1.0
C      1  0.5457920000000  0.5841210000000  0.4598750000000 1.0
C      1  0.5069690000000  0.5777240000000  0.4276380000000 1.0
C      1  0.4282270000000  0.5294270000000  0.4289160000000 1.0
C      1  0.4517010000000  0.4422600000000  0.4292840000000 1.0
C      1  0.5405760000000  0.4325930000000  0.4280060000000 1.0
C      1  0.5770560000000  0.5150570000000  0.4262400000000 1.0
C      1  0.5110340000000  0.4568300000000  0.3977240000000 1.0
C      1  0.5468930000000  0.4963400000000  0.3948210000000 1.0
C      1  0.5177770000000  0.5442080000000  0.3946640000000 1.0
C      1  0.4657670000000  0.5272470000000  0.3987700000000 1.0
C      1  0.4606650000000  0.4784940000000  0.3985330000000 1.0
C      1  0.4651240000000  0.4724030000000  0.4581480000000 1.0
C      1  0.5158370000000  0.4666730000000  0.4575400000000 1.0
C      1  0.5476070000000  0.5034770000000  0.4495930000000 1.0
C      1  0.5147520000000  0.5438380000000  0.4535240000000 1.0
C      1  0.4637880000000  0.5274060000000  0.4571080000000 1.0
C      1  0.4294050000000  0.4970020000000  0.4324550000000 1.0
C      1  0.4814400000000  0.4251660000000  0.4289670000000 1.0
C      1  0.5599840000000  0.4596020000000  0.4306160000000 1.0
C      1  0.5569980000000  0.5482090000000  0.4281740000000 1.0
C      1  0.4729740000000  0.5742820000000  0.4281990000000 1.0
C      1  0.4879110000000  0.5401350000000  0.4406850000000 1.0
C      1  0.4587420000000  0.4999980000000  0.4422020000000 1.0
C      1  0.4890130000000  0.4604750000000  0.4437730000000 1.0
C      1  0.5359870000000  0.4773480000000  0.4385120000000 1.0
C      1  0.5356740000000  0.5277900000000  0.4364810000000 1.0
C      1  0.5978300000000  0.5288370000000  0.4726650000000 1.0
C      1  0.5037960000000  0.6009690000000  0.4738210000000 1.0
C      1  0.4060300000000  0.5318530000000  0.4758260000000 1.0
C      1  0.4390580000000  0.4171940000000  0.4728670000000 1.0
C      1  0.5532430000000  0.4207070000000  0.4763540000000 1.0
C      1  0.4136010000000  0.4869280000000  0.4559160000000 1.0
C      1  0.4843210000000  0.4067270000000  0.4524260000000 1.0
C      1  0.5777910000000  0.4583500000000  0.4550000000000 1.0
C      1  0.5648690000000  0.5630600000000  0.4530930000000 1.0
C      1  0.4613630000000  0.5808480000000  0.4549710000000 1.0
C      1  0.5299460000000  0.5551890000000  0.4877570000000 1.0
C      1  0.4612320000000  0.5395090000000  0.4940750000000 1.0
C      1  0.4485800000000  0.4704390000000  0.4936700000000 1.0
C      1  0.4951110000000  0.4453580000000  0.4907870000000 1.0
C      1  0.5600150000000  0.4828670000000  0.4938630000000 1.0
C      1  0.4411220000000  0.4518280000000  0.5390460000000 1.0
C      1  0.5123050000000  0.4368790000000  0.5378020000000 1.0
C      1  0.5741610000000  0.5068040000000  0.5371590000000 1.0
C      1  0.5315380000000  0.5659560000000  0.5368770000000 1.0
C      1  0.4415630000000  0.5371750000000  0.5394840000000 1.0
C      1  0.4583380000000  0.5692170000000  0.5683420000000 1.0
C      1  0.4133750000000  0.4747020000000  0.5675090000000 1.0
C      1  0.4909920000000  0.4079560000000  0.5701100000000 1.0
C      1  0.5760710000000  0.4734940000000  0.5699040000000 1.0
C      1  0.5659530000000  0.5760330000000  0.5703110000000 1.0
C      1  0.4809340000000  0.5964650000000  0.5275970000000 1.0
C      1  0.3931460000000  0.5059710000000  0.5277410000000 1.0
C      1  0.4570430000000  0.3977260000000  0.5256010000000 1.0
C      1  0.5733000000000  0.4365220000000  0.5289080000000 1.0
C      1  0.5942120000000  0.5573010000000  0.5250940000000 1.0
C      1  0.4854280000000  0.5704860000000  0.5719110000000 1.0
C      1  0.4175140000000  0.5013850000000  0.5717750000000 1.0
C      1  0.4665710000000  0.4211260000000  0.5712320000000 1.0
C      1  0.5544390000000  0.4565410000000  0.5729830000000 1.0
C      1  0.5752170000000  0.5494180000000  0.5728510000000 1.0
C      1  0.4229510000000  0.4199370000000  0.5508910000000 1.0
C      1  0.5403600000000  0.4141990000000  0.5523320000000 1.0
C      1  0.6078700000000  0.5191270000000  0.5514020000000 1.0
C      1  0.5206210000000  0.6006020000000  0.5518060000000 1.0
C      1  0.4063440000000  0.5451450000000  0.5530530000000 1.0
C      1  0.5101550000000  0.5347820000000  0.4811480000000 1.0
C      1  0.4712340000000  0.5133460000000  0.4829560000000 1.0
C      1  0.4784210000000  0.4698520000000  0.4857880000000 1.0
C      1  0.5215360000000  0.4796920000000  0.4847930000000 1.0
C      1  0.5416890000000  0.5039610000000  0.4788600000000 1.0
C      1  0.4031350000000  0.5034600000000  0.4775660000000 1.0
C      1  0.4648150000000  0.4044750000000  0.4750130000000 1.0
C      1  0.5707010000000  0.4428380000000  0.4784350000000 1.0
C      1  0.5814150000000  0.5526470000000  0.4755160000000 1.0
C      1  0.4765920000000  0.5931000000000  0.4768310000000 1.0
C      1  0.5014180000000  0.5316110000000  0.5299150000000 1.0
C      1  0.4651180000000  0.4936750000000  0.5353510000000 1.0
C      1  0.4878380000000  0.4535240000000  0.5335440000000 1.0
C      1  0.5250670000000  0.4891450000000  0.5303890000000 1.0
C      1  0.5339000000000  0.5360190000000  0.5292980000000 1.0
C      1  0.5910610000000  0.5095470000000  0.4513600000000 1.0
C      1  0.5181200000000  0.5874140000000  0.4524420000000 1.0
C      1  0.4230390000000  0.5421690000000  0.4541270000000 1.0
C      1  0.4368430000000  0.4391520000000  0.4537290000000 1.0
C      1  0.5356100000000  0.4192830000000  0.4534180000000 1.0
C      1  0.4721350000000  0.5019420000000  0.4140100000000 1.0
C      1  0.4852260000000  0.4648300000000  0.4117790000000 1.0
C      1  0.5253730000000  0.4808980000000  0.4104220000000 1.0
C      1  0.5271180000000  0.5195230000000  0.4086130000000 1.0
C      1  0.4899170000000  0.5418500000000  0.4081590000000 1.0
C      1  0.4476770000000  0.4446100000000  0.5101910000000 1.0
C      1  0.5231910000000  0.4422040000000  0.5084220000000 1.0
C      1  0.5742560000000  0.5097090000000  0.5076690000000 1.0
C      1  0.5145130000000  0.5716250000000  0.5096780000000 1.0
C      1  0.4377990000000  0.5275380000000  0.5110120000000 1.0
C      1  0.5825630000000  0.4468800000000  0.5044370000000 1.0
C      1  0.5811350000000  0.5659650000000  0.5016110000000 1.0
C      1  0.4662530000000  0.5944080000000  0.5038360000000 1.0
C      1  0.3979040000000  0.4920910000000  0.5038700000000 1.0
C      1  0.4708480000000  0.3919850000000  0.5011820000000 1.0
C      1  0.4383360000000  0.5886180000000  0.5065950000000 1.0
C      1  0.3919110000000  0.4639600000000  0.5040010000000 1.0
C      1  0.4985100000000  0.3824490000000  0.5039810000000 1.0
C      1  0.6055760000000  0.4640020000000  0.5062080000000 1.0
C      1  0.5695880000000  0.5930400000000  0.5024420000000 1.0
C      1  0.4957010000000  0.5876300000000  0.5498620000000 1.0
C      1  0.4040390000000  0.5171260000000  0.5511480000000 1.0
C      1  0.4492450000000  0.4100410000000  0.5501970000000 1.0
C      1  0.5544220000000  0.4383170000000  0.5497670000000 1.0
C      1  0.5942780000000  0.5438550000000  0.5501940000000 1.0
C      1  0.5248750000000  0.5345660000000  0.5908990000000 1.0
C      1  0.4748960000000  0.5256230000000  0.6000160000000 1.0
C      1  0.4610140000000  0.4814560000000  0.5948730000000 1.0
C      1  0.5029410000000  0.4578050000000  0.5883890000000 1.0
C      1  0.5347450000000  0.5042700000000  0.5966810000000 1.0
C      1  0.5322430000000  0.6123710000000  0.5278980000000 1.0
C      1  0.4061150000000  0.5616980000000  0.5295020000000 1.0
C      1  0.4077250000000  0.4244360000000  0.5267580000000 1.0
C      1  0.5374390000000  0.3981630000000  0.5286950000000 1.0
C      1  0.6174350000000  0.5047170000000  0.5282940000000 1.0
C      1  0.6037540000000  0.5118940000000  0.4985520000000 1.0
C      1  0.5208270000000  0.6006210000000  0.5001380000000 1.0
C      1  0.4137780000000  0.5458720000000  0.5021710000000 1.0
C      1  0.4245920000000  0.4269690000000  0.4991240000000 1.0
C      1  0.5370950000000  0.4139150000000  0.5013240000000 1.0
C      1  0.6071930000000  0.4850630000000  0.4862750000000 1.0
C      1  0.5465360000000  0.5961980000000  0.4857760000000 1.0
C      1  0.4282540000000  0.5683840000000  0.4895130000000 1.0
C      1  0.4071280000000  0.4474320000000  0.4861050000000 1.0
C      1  0.5175320000000  0.3963210000000  0.4871720000000 1.0
C      1  0.5294510000000  0.4719880000000  0.5832970000000 1.0
C      1  0.5527810000000  0.5270210000000  0.5761530000000 1.0
C      1  0.4948370000000  0.5422630000000  0.5825640000000 1.0
C      1  0.4459350000000  0.5086110000000  0.5817600000000 1.0
C      1  0.4739230000000  0.4575570000000  0.5801470000000 1.0
C      1  0.5770660000000  0.4773290000000  0.5413860000000 1.0
C      1  0.5590680000000  0.5769820000000  0.5425510000000 1.0
C      1  0.4544850000000  0.5640340000000  0.5403760000000 1.0
C      1  0.4178870000000  0.4714120000000  0.5392230000000 1.0
C      1  0.4949480000000  0.4106120000000  0.5412210000000 1.0
C      1  0.4993250000000  0.5082990000000  0.4899170000000 1.0
C      1  0.4959460000000  0.4982140000000  0.5675890000000 1.0
C      1  0.4985180000000  0.5036200000000  0.5194020000000 1.0
C      1  0.4856890000000  0.4980240000000  0.5957130000000 1.0
END
