TITL C-3578194-7807-103 -5.63054880074408e-06 125000 -935.989741680963 0 0 151 (C1) n - 1
REM
REM in /home/bkarasulu/work/CARBON/AIRSS/Generating-Clusters/EDIP-Nigel-Params/with-SteepDescent/Higher-Symm/SD-CG/HFTN-CG
REM
REM
REM
REM
REM
REM ./C.cell (12c818d87b63d06a65506943cc24bca4)
REM
REM compiler GCC version 9.2.1 20190827 (Red Hat 9.2.1-1)
REM options -cpp -mtune=generic -march=x86-64 -g -O0 -fpre-include=/usr/include/finclude/math-vector-fortran.h
REM seed -1856357230 -503841122 668388506 -1520037513 1728688568 64310185 130601903 -383992958 -412171460 1969062309 -1982997225 -1479822001 1144717810 -106147888 -1806876554 -164586640 -1581497388 1905670296 -570578949 -1388687895 496255677 1693168124 -802384599 1935257754 1795680313 -1760580048 -1195974790 -1410311368 -1037599768 249005004 -668747643 613476448 -1149647671
REM
CELL 1.54180   50.00000   50.00000   50.00000   90.00000   90.00000   90.00000
LATT -1
SFAC C  
C      1  0.5401360000000  0.4264340000000  0.4455010000000 1.0
C      1  0.5440360000000  0.5729500000000  0.4451110000000 1.0
C      1  0.4153100000000  0.5022760000000  0.4459520000000 1.0
C      1  0.5674840000000  0.5001270000000  0.5828740000000 1.0
C      1  0.4658350000000  0.5589790000000  0.5831470000000 1.0
C      1  0.4662030000000  0.4410400000000  0.5845110000000 1.0
C      1  0.5585010000000  0.5427900000000  0.4852600000000 1.0
C      1  0.4365020000000  0.5278220000000  0.4835170000000 1.0
C      1  0.5066270000000  0.4288960000000  0.4849370000000 1.0
C      1  0.5122160000000  0.4103150000000  0.5365100000000 1.0
C      1  0.5720700000000  0.5562740000000  0.5362020000000 1.0
C      1  0.4188790000000  0.5309730000000  0.5341050000000 1.0
C      1  0.5052280000000  0.5294980000000  0.4767590000000 1.0
C      1  0.4727800000000  0.4902880000000  0.4768150000000 1.0
C      1  0.5226770000000  0.4819700000000  0.4758130000000 1.0
C      1  0.5173930000000  0.5157480000000  0.5806570000000 1.0
C      1  0.4770210000000  0.5072470000000  0.5817240000000 1.0
C      1  0.5047020000000  0.4767170000000  0.5800250000000 1.0
C      1  0.5388050000000  0.4469520000000  0.4242740000000 1.0
C      1  0.5267760000000  0.5611640000000  0.4239480000000 1.0
C      1  0.4334140000000  0.4927340000000  0.4250230000000 1.0
C      1  0.4690440000000  0.4883980000000  0.5069290000000 1.0
C      1  0.5238880000000  0.4756560000000  0.5067250000000 1.0
C      1  0.5097690000000  0.5351320000000  0.5064940000000 1.0
C      1  0.4016590000000  0.4766690000000  0.5280640000000 1.0
C      1  0.5690120000000  0.4270420000000  0.5279840000000 1.0
C      1  0.5284800000000  0.5976320000000  0.5283700000000 1.0
C      1  0.4594080000000  0.4001080000000  0.4903990000000 1.0
C      1  0.6065080000000  0.5152320000000  0.4900970000000 1.0
C      1  0.4341010000000  0.5840810000000  0.4903600000000 1.0
C      1  0.5602540000000  0.4240070000000  0.4657840000000 1.0
C      1  0.5358770000000  0.5913150000000  0.4657960000000 1.0
C      1  0.4022830000000  0.4849070000000  0.4648680000000 1.0
C      1  0.4299010000000  0.4364590000000  0.5391250000000 1.0
C      1  0.5893150000000  0.4709970000000  0.5383540000000 1.0
C      1  0.4807220000000  0.5921450000000  0.5386020000000 1.0
C      1  0.4390820000000  0.5407460000000  0.4345040000000 1.0
C      1  0.4949930000000  0.4287320000000  0.4366270000000 1.0
C      1  0.5643010000000  0.5322850000000  0.4366400000000 1.0
C      1  0.5015920000000  0.5920300000000  0.5158860000000 1.0
C      1  0.4193380000000  0.4550130000000  0.5164280000000 1.0
C      1  0.5778500000000  0.4531020000000  0.5157440000000 1.0
C      1  0.4277020000000  0.4559320000000  0.5611350000000 1.0
C      1  0.5737360000000  0.4592670000000  0.5606030000000 1.0
C      1  0.4985180000000  0.5849770000000  0.5612130000000 1.0
C      1  0.4449140000000  0.5661390000000  0.5644970000000 1.0
C      1  0.4707180000000  0.4193920000000  0.5659290000000 1.0
C      1  0.5844570000000  0.5150480000000  0.5649970000000 1.0
C      1  0.4459580000000  0.4770480000000  0.4646720000000 1.0
C      1  0.5480310000000  0.4663100000000  0.4627660000000 1.0
C      1  0.5059350000000  0.5591430000000  0.4625850000000 1.0
C      1  0.4969010000000  0.6091240000000  0.4920180000000 1.0
C      1  0.4069090000000  0.4431430000000  0.4922180000000 1.0
C      1  0.5951300000000  0.4482700000000  0.4921220000000 1.0
C      1  0.5403250000000  0.5360190000000  0.4150480000000 1.0
C      1  0.4473040000000  0.5167720000000  0.4137770000000 1.0
C      1  0.5103150000000  0.4473770000000  0.4150900000000 1.0
C      1  0.4794100000000  0.5785800000000  0.4307460000000 1.0
C      1  0.4421570000000  0.4439760000000  0.4321700000000 1.0
C      1  0.5780560000000  0.4782600000000  0.4309920000000 1.0
C      1  0.4740420000000  0.5119790000000  0.4064930000000 1.0
C      1  0.5014240000000  0.4726350000000  0.4068520000000 1.0
C      1  0.5222490000000  0.5159010000000  0.4074090000000 1.0
C      1  0.4779320000000  0.5189860000000  0.4710210000000 1.0
C      1  0.4962780000000  0.4740910000000  0.4653600000000 1.0
C      1  0.5250080000000  0.5107550000000  0.4662140000000 1.0
C      1  0.5945960000000  0.5213300000000  0.4417920000000 1.0
C      1  0.4334800000000  0.5720800000000  0.4416810000000 1.0
C      1  0.4706130000000  0.4075600000000  0.4419750000000 1.0
C      1  0.5548600000000  0.5984960000000  0.4857650000000 1.0
C      1  0.3881890000000  0.4967120000000  0.4857600000000 1.0
C      1  0.5563570000000  0.4042280000000  0.4857520000000 1.0
C      1  0.5134500000000  0.5468670000000  0.5854050000000 1.0
C      1  0.4526520000000  0.4886790000000  0.5840440000000 1.0
C      1  0.5330700000000  0.4652560000000  0.5829750000000 1.0
C      1  0.4550370000000  0.5430080000000  0.5030380000000 1.0
C      1  0.4841870000000  0.4374430000000  0.5046510000000 1.0
C      1  0.5618250000000  0.5186990000000  0.5049020000000 1.0
C      1  0.5278560000000  0.5835250000000  0.5553630000000 1.0
C      1  0.4155990000000  0.4821630000000  0.5540690000000 1.0
C      1  0.5575460000000  0.4347340000000  0.5547680000000 1.0
C      1  0.4382820000000  0.5662250000000  0.5150340000000 1.0
C      1  0.4724950000000  0.4112930000000  0.5161920000000 1.0
C      1  0.5904920000000  0.5210090000000  0.5158750000000 1.0
C      1  0.4558540000000  0.4205040000000  0.5404560000000 1.0
C      1  0.5909620000000  0.5015850000000  0.5397110000000 1.0
C      1  0.4541610000000  0.5771200000000  0.5390320000000 1.0
C      1  0.4946440000000  0.4452930000000  0.4623080000000 1.0
C      1  0.5502820000000  0.5242740000000  0.4625450000000 1.0
C      1  0.4606930000000  0.5345500000000  0.4544900000000 1.0
C      1  0.4178810000000  0.5720490000000  0.4681220000000 1.0
C      1  0.4779080000000  0.3923990000000  0.4677330000000 1.0
C      1  0.6041670000000  0.5352090000000  0.4675210000000 1.0
C      1  0.4277930000000  0.5006860000000  0.4970790000000 1.0
C      1  0.5346770000000  0.4333200000000  0.5003300000000 1.0
C      1  0.5411530000000  0.5653040000000  0.5007840000000 1.0
C      1  0.4756130000000  0.5614940000000  0.4858740000000 1.0
C      1  0.4582670000000  0.4479440000000  0.4868160000000 1.0
C      1  0.5653550000000  0.4909610000000  0.4867530000000 1.0
C      1  0.5166400000000  0.4090780000000  0.4455360000000 1.0
C      1  0.5707120000000  0.5608950000000  0.4453380000000 1.0
C      1  0.4127800000000  0.5309230000000  0.4461840000000 1.0
C      1  0.5481740000000  0.5200600000000  0.5899380000000 1.0
C      1  0.4582520000000  0.5321430000000  0.5894990000000 1.0
C      1  0.4933530000000  0.4479710000000  0.5915060000000 1.0
C      1  0.5509810000000  0.4723640000000  0.4338360000000 1.0
C      1  0.4987170000000  0.5585740000000  0.4337670000000 1.0
C      1  0.4497280000000  0.4705840000000  0.4356830000000 1.0
C      1  0.3927320000000  0.4990320000000  0.5128060000000 1.0
C      1  0.5578400000000  0.4052420000000  0.5135380000000 1.0
C      1  0.5528610000000  0.5997900000000  0.5136380000000 1.0
C      1  0.4155000000000  0.4175100000000  0.4873180000000 1.0
C      1  0.6130660000000  0.4685510000000  0.4874260000000 1.0
C      1  0.4703250000000  0.6140630000000  0.4871390000000 1.0
C      1  0.4916980000000  0.5599850000000  0.5724070000000 1.0
C      1  0.4526390000000  0.4626700000000  0.5725370000000 1.0
C      1  0.5553540000000  0.4778490000000  0.5709760000000 1.0
C      1  0.5163260000000  0.5156560000000  0.5493780000000 1.0
C      1  0.4873700000000  0.5045820000000  0.5494210000000 1.0
C      1  0.4950030000000  0.4747660000000  0.5492750000000 1.0
C      1  0.4130890000000  0.5557730000000  0.5248410000000 1.0
C      1  0.4937350000000  0.3940700000000  0.5255570000000 1.0
C      1  0.5953160000000  0.5478180000000  0.5255410000000 1.0
C      1  0.5373780000000  0.5604620000000  0.5749850000000 1.0
C      1  0.4297710000000  0.5025870000000  0.5727020000000 1.0
C      1  0.5330730000000  0.4375400000000  0.5745070000000 1.0
C      1  0.5258990000000  0.4346460000000  0.5312890000000 1.0
C      1  0.5440370000000  0.5567470000000  0.5315950000000 1.0
C      1  0.4335360000000  0.5069620000000  0.5289820000000 1.0
C      1  0.5538900000000  0.4698660000000  0.5055690000000 1.0
C      1  0.4993860000000  0.5633730000000  0.5053290000000 1.0
C      1  0.4462980000000  0.4675230000000  0.5071210000000 1.0
C      1  0.5069100000000  0.4254380000000  0.5778120000000 1.0
C      1  0.5607170000000  0.5432370000000  0.5766460000000 1.0
C      1  0.4322330000000  0.5313880000000  0.5756850000000 1.0
C      1  0.4428430000000  0.4215640000000  0.4776410000000 1.0
C      1  0.5960300000000  0.4901940000000  0.4775020000000 1.0
C      1  0.4605230000000  0.5883390000000  0.4771880000000 1.0
C      1  0.4578730000000  0.5875990000000  0.4465610000000 1.0
C      1  0.4448880000000  0.4203890000000  0.4470980000000 1.0
C      1  0.5963170000000  0.4925900000000  0.4468400000000 1.0
C      1  0.4647520000000  0.5124660000000  0.5244010000000 1.0
C      1  0.5058020000000  0.4584740000000  0.5247200000000 1.0
C      1  0.5321390000000  0.5281570000000  0.5255140000000 1.0
C      1  0.5833830000000  0.5562550000000  0.4726570000000 1.0
C      1  0.4117150000000  0.5432160000000  0.4732210000000 1.0
C      1  0.5063240000000  0.4004090000000  0.4727910000000 1.0
C      1  0.5792540000000  0.4445540000000  0.4689680000000 1.0
C      1  0.5084410000000  0.5970890000000  0.4690110000000 1.0
C      1  0.4122520000000  0.4588720000000  0.4692060000000 1.0
C      1  0.4992690000000  0.5002750000000  0.4059610000000 1.0
END
