TITL C-3577087-600-54 -1.23547321248995e-06 125000 -242.044774490135 0 0 40 (C1) n - 1
REM
REM in /home/bkarasulu/work/CARBON/AIRSS/Generating-Clusters/EDIP-Nigel-Params/with-SteepDescent/Higher-Symm/SD-CG/HFTN-CG
REM
REM
REM
REM
REM
REM ./C.cell (12c818d87b63d06a65506943cc24bca4)
REM
REM compiler GCC version 9.2.1 20190827 (Red Hat 9.2.1-1)
REM options -cpp -mtune=generic -march=x86-64 -g -O0 -fpre-include=/usr/include/finclude/math-vector-fortran.h
REM seed -1668426497 -388195784 -1440620016 -399844874 -1624562528 2020505776 -598496796 -1034966772 21012181 -1092756568 706148427 -625097858 -233635614 -1768116059 -1907107390 -598247857 -1243246211 -1994175518 2066170950 -59545430 378747298 -1331387046 1102233604 -583753445 884119800 1596523100 236189498 -565601923 1325220585 -694525458 -811794242 -291430449 1557721013
REM
CELL 1.54180   50.00000   50.00000   50.00000   90.00000   90.00000   90.00000
LATT -1
SFAC C  
C      1  0.5309590000000  0.4421320000000  0.5145560000000 1.0
C      1  0.5103530000000  0.4327830000000  0.4704800000000 1.0
C      1  0.4645000000000  0.4443490000000  0.4869510000000 1.0
C      1  0.4840380000000  0.4367550000000  0.5316420000000 1.0
C      1  0.5324980000000  0.5669910000000  0.4905520000000 1.0
C      1  0.5154610000000  0.5588780000000  0.5374850000000 1.0
C      1  0.4657390000000  0.5567110000000  0.5197160000000 1.0
C      1  0.4874920000000  0.5686790000000  0.4762360000000 1.0
C      1  0.4670890000000  0.4700750000000  0.5211480000000 1.0
C      1  0.5143440000000  0.4727040000000  0.5458980000000 1.0
C      1  0.5308450000000  0.4648100000000  0.4783660000000 1.0
C      1  0.4833760000000  0.4702990000000  0.4527660000000 1.0
C      1  0.4623070000000  0.5281950000000  0.4824400000000 1.0
C      1  0.5139400000000  0.5294930000000  0.4659510000000 1.0
C      1  0.5458560000000  0.5267490000000  0.5161840000000 1.0
C      1  0.4923550000000  0.5286150000000  0.5232520000000 1.0
C      1  0.5498960000000  0.5063990000000  0.4949110000000 1.0
C      1  0.4950540000000  0.5173620000000  0.4465330000000 1.0
C      1  0.4501940000000  0.5106530000000  0.5016820000000 1.0
C      1  0.5103380000000  0.5217370000000  0.5486570000000 1.0
C      1  0.5455770000000  0.4772500000000  0.5052210000000 1.0
C      1  0.4959470000000  0.4948410000000  0.5538660000000 1.0
C      1  0.4537750000000  0.4815280000000  0.4931270000000 1.0
C      1  0.5046160000000  0.4888540000000  0.4423140000000 1.0
C      1  0.5309390000000  0.4855490000000  0.4564710000000 1.0
C      1  0.4605140000000  0.4863800000000  0.4616690000000 1.0
C      1  0.4691660000000  0.4923440000000  0.5413310000000 1.0
C      1  0.5394940000000  0.4838950000000  0.5360720000000 1.0
C      1  0.5385490000000  0.5130800000000  0.5409040000000 1.0
C      1  0.4623690000000  0.5184280000000  0.5278350000000 1.0
C      1  0.4664510000000  0.5153580000000  0.4564090000000 1.0
C      1  0.5377650000000  0.5120510000000  0.4681710000000 1.0
C      1  0.4665810000000  0.5559030000000  0.4899630000000 1.0
C      1  0.4890050000000  0.5680220000000  0.5323570000000 1.0
C      1  0.5295720000000  0.5505410000000  0.5130810000000 1.0
C      1  0.5131200000000  0.5579260000000  0.4725200000000 1.0
C      1  0.4640270000000  0.4322630000000  0.5125470000000 1.0
C      1  0.4890280000000  0.4512330000000  0.4736430000000 1.0
C      1  0.5297080000000  0.4277160000000  0.4901590000000 1.0
C      1  0.5071640000000  0.4524700000000  0.5269340000000 1.0
END
