TITL C-3577086-586-383 -5.76912941901489e-06 125000 -1207.87920890038 0 0 195 (C1) n - 1
REM
REM in /home/bkarasulu/work/CARBON/AIRSS/Generating-Clusters/EDIP-Nigel-Params/with-SteepDescent/Higher-Symm/SD-CG/HFTN-CG
REM
REM
REM
REM
REM
REM ./C.cell (12c818d87b63d06a65506943cc24bca4)
REM
REM compiler GCC version 9.2.1 20190827 (Red Hat 9.2.1-1)
REM options -cpp -mtune=generic -march=x86-64 -g -O0 -fpre-include=/usr/include/finclude/math-vector-fortran.h
REM seed 1491979311 203273345 -931149381 -693254288 -858495324 -676179203 359818656 1932795919 1912479521 1067392178 478961645 -385081662 802709099 277084054 1042712775 -211862775 206606124 -1562379068 1003108902 496279431 2087091972 1484891381 576454099 225744698 -1632724478 -1177639488 1416269282 1629054196 -1787079916 -814838588 135919472 -1377256423 1450456856
REM
CELL 1.54180   50.00000   50.00000   50.00000   90.00000   90.00000   90.00000
LATT -1
SFAC C  
C      1  0.4987400000000  0.5087170000000  0.4268790000000 1.0
C      1  0.5059160000000  0.5864460000000  0.4796840000000 1.0
C      1  0.4974300000000  0.5375500000000  0.5671100000000 1.0
C      1  0.4990170000000  0.4431090000000  0.5546460000000 1.0
C      1  0.4935150000000  0.4384960000000  0.4733940000000 1.0
C      1  0.4951850000000  0.5052010000000  0.5691960000000 1.0
C      1  0.4962260000000  0.5870080000000  0.5173940000000 1.0
C      1  0.4963920000000  0.5407360000000  0.4367880000000 1.0
C      1  0.4982920000000  0.4444740000000  0.4438350000000 1.0
C      1  0.5050160000000  0.4199110000000  0.5318940000000 1.0
C      1  0.4804960000000  0.3961930000000  0.5658360000000 1.0
C      1  0.4993870000000  0.4125090000000  0.4230900000000 1.0
C      1  0.4967100000000  0.5444960000000  0.3981630000000 1.0
C      1  0.5016100000000  0.6168070000000  0.5108400000000 1.0
C      1  0.4858040000000  0.5246350000000  0.6077270000000 1.0
C      1  0.4831860000000  0.3935630000000  0.4383570000000 1.0
C      1  0.4988220000000  0.4129290000000  0.5798710000000 1.0
C      1  0.4968660000000  0.5508830000000  0.6032050000000 1.0
C      1  0.4837960000000  0.6266230000000  0.4893750000000 1.0
C      1  0.4785660000000  0.5264820000000  0.3858950000000 1.0
C      1  0.5473570000000  0.4731580000000  0.6075150000000 1.0
C      1  0.5632950000000  0.3752390000000  0.5163030000000 1.0
C      1  0.5491560000000  0.4438770000000  0.4008060000000 1.0
C      1  0.5452770000000  0.5784780000000  0.4169450000000 1.0
C      1  0.5471940000000  0.5986850000000  0.5477470000000 1.0
C      1  0.5553670000000  0.4695050000000  0.3950120000000 1.0
C      1  0.5585330000000  0.3825060000000  0.4911330000000 1.0
C      1  0.5470050000000  0.4478680000000  0.5982880000000 1.0
C      1  0.5444520000000  0.5815700000000  0.5692890000000 1.0
C      1  0.5512870000000  0.5978730000000  0.4343140000000 1.0
C      1  0.5719010000000  0.4318170000000  0.5599340000000 1.0
C      1  0.5634600000000  0.4290930000000  0.4724770000000 1.0
C      1  0.5702010000000  0.5100910000000  0.4197370000000 1.0
C      1  0.5672430000000  0.5814250000000  0.4781360000000 1.0
C      1  0.5640890000000  0.5382850000000  0.5771420000000 1.0
C      1  0.5679660000000  0.4355260000000  0.4439120000000 1.0
C      1  0.5681920000000  0.4233740000000  0.5312370000000 1.0
C      1  0.5607970000000  0.5089800000000  0.5774290000000 1.0
C      1  0.5726840000000  0.5935700000000  0.5051960000000 1.0
C      1  0.5618780000000  0.5350570000000  0.4339580000000 1.0
C      1  0.5189720000000  0.4664610000000  0.4436200000000 1.0
C      1  0.5115590000000  0.5381020000000  0.4642000000000 1.0
C      1  0.5196750000000  0.5703520000000  0.5282110000000 1.0
C      1  0.5153360000000  0.4924290000000  0.5504730000000 1.0
C      1  0.5216440000000  0.4350400000000  0.5134830000000 1.0
C      1  0.5208990000000  0.4639180000000  0.5568810000000 1.0
C      1  0.5148330000000  0.5414910000000  0.5379180000000 1.0
C      1  0.5221360000000  0.5628770000000  0.4736040000000 1.0
C      1  0.5092050000000  0.4938500000000  0.4524600000000 1.0
C      1  0.5125040000000  0.4525990000000  0.4916290000000 1.0
C      1  0.5267840000000  0.4120930000000  0.5694080000000 1.0
C      1  0.5259870000000  0.3985740000000  0.4585520000000 1.0
C      1  0.5262650000000  0.5076520000000  0.4007700000000 1.0
C      1  0.5265360000000  0.6104850000000  0.4745600000000 1.0
C      1  0.5244570000000  0.5449380000000  0.6011210000000 1.0
C      1  0.5259810000000  0.4123280000000  0.4332910000000 1.0
C      1  0.5298820000000  0.3958140000000  0.5457390000000 1.0
C      1  0.5236140000000  0.5165550000000  0.6077880000000 1.0
C      1  0.5300810000000  0.6191300000000  0.5031890000000 1.0
C      1  0.5234470000000  0.5359240000000  0.4022930000000 1.0
C      1  0.4033720000000  0.4421170000000  0.5569540000000 1.0
C      1  0.4043030000000  0.4311160000000  0.4699630000000 1.0
C      1  0.4021760000000  0.5032520000000  0.4320140000000 1.0
C      1  0.4103470000000  0.5736120000000  0.4827480000000 1.0
C      1  0.4067680000000  0.5382740000000  0.5606100000000 1.0
C      1  0.4032220000000  0.4378500000000  0.4416650000000 1.0
C      1  0.4046450000000  0.4325180000000  0.5300350000000 1.0
C      1  0.4027770000000  0.5008170000000  0.5674050000000 1.0
C      1  0.4044520000000  0.5732390000000  0.5199880000000 1.0
C      1  0.4158090000000  0.5381310000000  0.4399040000000 1.0
C      1  0.4859560000000  0.3752860000000  0.5143170000000 1.0
C      1  0.4801630000000  0.4473540000000  0.3968060000000 1.0
C      1  0.4946360000000  0.5871410000000  0.4100650000000 1.0
C      1  0.4841900000000  0.6102550000000  0.5625850000000 1.0
C      1  0.4845990000000  0.4811130000000  0.6137070000000 1.0
C      1  0.4971210000000  0.3908030000000  0.4653910000000 1.0
C      1  0.4862470000000  0.4355650000000  0.5959830000000 1.0
C      1  0.4815840000000  0.5888570000000  0.5863130000000 1.0
C      1  0.4892460000000  0.6186130000000  0.4523600000000 1.0
C      1  0.4787610000000  0.4775770000000  0.3870310000000 1.0
C      1  0.5490880000000  0.5587240000000  0.5162830000000 1.0
C      1  0.5453150000000  0.5025800000000  0.5513400000000 1.0
C      1  0.5489160000000  0.4448700000000  0.5204320000000 1.0
C      1  0.5474640000000  0.4721830000000  0.4581190000000 1.0
C      1  0.5483570000000  0.5292590000000  0.4616400000000 1.0
C      1  0.5486760000000  0.5576260000000  0.4846810000000 1.0
C      1  0.5365920000000  0.5017260000000  0.4641860000000 1.0
C      1  0.5469000000000  0.4540300000000  0.4827580000000 1.0
C      1  0.5491390000000  0.4644520000000  0.5441900000000 1.0
C      1  0.5466260000000  0.5311190000000  0.5375380000000 1.0
C      1  0.4222420000000  0.4862080000000  0.4199100000000 1.0
C      1  0.4325410000000  0.5779910000000  0.4651070000000 1.0
C      1  0.4237960000000  0.5612070000000  0.5631660000000 1.0
C      1  0.4253250000000  0.4612750000000  0.5601400000000 1.0
C      1  0.4269830000000  0.4151110000000  0.4836580000000 1.0
C      1  0.4233490000000  0.4845040000000  0.5800540000000 1.0
C      1  0.4271650000000  0.5750210000000  0.5377850000000 1.0
C      1  0.4334570000000  0.5608750000000  0.4420410000000 1.0
C      1  0.4225980000000  0.4599970000000  0.4382730000000 1.0
C      1  0.4280850000000  0.4160640000000  0.5144190000000 1.0
C      1  0.5465000000000  0.5002540000000  0.6017910000000 1.0
C      1  0.5558820000000  0.3959940000000  0.5332630000000 1.0
C      1  0.5474530000000  0.4298030000000  0.4248720000000 1.0
C      1  0.5435630000000  0.5509570000000  0.4167680000000 1.0
C      1  0.5486510000000  0.6025100000000  0.5193080000000 1.0
C      1  0.5518090000000  0.4958310000000  0.4031780000000 1.0
C      1  0.5487610000000  0.4030450000000  0.4756200000000 1.0
C      1  0.5467540000000  0.4326090000000  0.5748600000000 1.0
C      1  0.5417550000000  0.5554100000000  0.5803900000000 1.0
C      1  0.5527090000000  0.6023150000000  0.4617140000000 1.0
C      1  0.5880880000000  0.4995920000000  0.5740760000000 1.0
C      1  0.5941520000000  0.4271710000000  0.5156890000000 1.0
C      1  0.5800900000000  0.4610000000000  0.4407630000000 1.0
C      1  0.5883180000000  0.5478550000000  0.4434100000000 1.0
C      1  0.5844490000000  0.5735840000000  0.5214660000000 1.0
C      1  0.5954730000000  0.5000560000000  0.4264620000000 1.0
C      1  0.5910540000000  0.4291080000000  0.4852710000000 1.0
C      1  0.5833480000000  0.4580290000000  0.5609120000000 1.0
C      1  0.5788630000000  0.5450230000000  0.5544500000000 1.0
C      1  0.5929050000000  0.5692740000000  0.4664910000000 1.0
C      1  0.4741640000000  0.5635170000000  0.5678910000000 1.0
C      1  0.4753920000000  0.4537990000000  0.5746150000000 1.0
C      1  0.4814870000000  0.4120690000000  0.4821850000000 1.0
C      1  0.4743620000000  0.4899710000000  0.4157060000000 1.0
C      1  0.4825590000000  0.5907090000000  0.4589380000000 1.0
C      1  0.4822630000000  0.5716620000000  0.4324070000000 1.0
C      1  0.4744050000000  0.4559920000000  0.4256740000000 1.0
C      1  0.4816390000000  0.4048530000000  0.5140340000000 1.0
C      1  0.4766210000000  0.4842310000000  0.5851020000000 1.0
C      1  0.4746950000000  0.5890130000000  0.5426460000000 1.0
C      1  0.4664620000000  0.5385790000000  0.4869160000000 1.0
C      1  0.4450220000000  0.5291460000000  0.5301280000000 1.0
C      1  0.4528680000000  0.4855900000000  0.5273480000000 1.0
C      1  0.4567300000000  0.4536170000000  0.4931400000000 1.0
C      1  0.4612220000000  0.4961160000000  0.4685180000000 1.0
C      1  0.4571820000000  0.5466150000000  0.5118090000000 1.0
C      1  0.4475030000000  0.5208020000000  0.4741050000000 1.0
C      1  0.4454190000000  0.4742380000000  0.4769500000000 1.0
C      1  0.4705790000000  0.4680790000000  0.5128520000000 1.0
C      1  0.4614160000000  0.5086380000000  0.5404980000000 1.0
C      1  0.4556480000000  0.4022190000000  0.5551010000000 1.0
C      1  0.4438570000000  0.4183710000000  0.4229100000000 1.0
C      1  0.4502890000000  0.5507060000000  0.3983150000000 1.0
C      1  0.4441950000000  0.6137570000000  0.5140120000000 1.0
C      1  0.4569960000000  0.5205000000000  0.6044570000000 1.0
C      1  0.4551300000000  0.4019280000000  0.4426880000000 1.0
C      1  0.4406510000000  0.4178750000000  0.5724520000000 1.0
C      1  0.4426720000000  0.5442500000000  0.6036960000000 1.0
C      1  0.4567230000000  0.6158820000000  0.4894640000000 1.0
C      1  0.4507180000000  0.5218750000000  0.3938160000000 1.0
C      1  0.5911280000000  0.4746200000000  0.4633680000000 1.0
C      1  0.5925440000000  0.5252310000000  0.4650430000000 1.0
C      1  0.5916200000000  0.5473590000000  0.5122700000000 1.0
C      1  0.5965020000000  0.5005450000000  0.5468460000000 1.0
C      1  0.6042860000000  0.4570130000000  0.5167610000000 1.0
C      1  0.5914720000000  0.4731050000000  0.5378770000000 1.0
C      1  0.5904210000000  0.5272120000000  0.5347010000000 1.0
C      1  0.6020040000000  0.5454330000000  0.4852370000000 1.0
C      1  0.6019570000000  0.4999470000000  0.4539870000000 1.0
C      1  0.6025550000000  0.4575090000000  0.4846130000000 1.0
C      1  0.4177650000000  0.5258610000000  0.4670890000000 1.0
C      1  0.3981510000000  0.5447670000000  0.5142510000000 1.0
C      1  0.4056970000000  0.4985220000000  0.5377890000000 1.0
C      1  0.4168370000000  0.4535400000000  0.5120520000000 1.0
C      1  0.4184290000000  0.4732600000000  0.4662620000000 1.0
C      1  0.4144640000000  0.5273920000000  0.5336370000000 1.0
C      1  0.4028040000000  0.5455410000000  0.4853220000000 1.0
C      1  0.4040820000000  0.4997700000000  0.4611490000000 1.0
C      1  0.4026030000000  0.4562540000000  0.4854340000000 1.0
C      1  0.4255560000000  0.4757730000000  0.5327590000000 1.0
C      1  0.5116410000000  0.6111260000000  0.5729440000000 1.0
C      1  0.5071690000000  0.4718330000000  0.6267170000000 1.0
C      1  0.5075710000000  0.3613100000000  0.5039340000000 1.0
C      1  0.5069440000000  0.4499610000000  0.3850360000000 1.0
C      1  0.5122730000000  0.6088440000000  0.4101520000000 1.0
C      1  0.4924290000000  0.6220720000000  0.4243510000000 1.0
C      1  0.5062630000000  0.4769150000000  0.3761980000000 1.0
C      1  0.4948450000000  0.3648470000000  0.4795520000000 1.0
C      1  0.4997740000000  0.4462090000000  0.6190870000000 1.0
C      1  0.5097990000000  0.5925490000000  0.5945770000000 1.0
C      1  0.4496020000000  0.4979000000000  0.5865400000000 1.0
C      1  0.4550740000000  0.4104010000000  0.5274240000000 1.0
C      1  0.4478260000000  0.4445130000000  0.4324730000000 1.0
C      1  0.4544360000000  0.5644160000000  0.4230990000000 1.0
C      1  0.4466600000000  0.5961970000000  0.5351020000000 1.0
C      1  0.4472340000000  0.5025680000000  0.4159340000000 1.0
C      1  0.4532750000000  0.4110870000000  0.4703450000000 1.0
C      1  0.4482870000000  0.4443160000000  0.5669370000000 1.0
C      1  0.4472370000000  0.5551910000000  0.5784180000000 1.0
C      1  0.4563130000000  0.5926140000000  0.4726900000000 1.0
C      1  0.5087650000000  0.4964990000000  0.5216530000000 1.0
C      1  0.4962640000000  0.4780660000000  0.5018070000000 1.0
C      1  0.4896120000000  0.4966680000000  0.4771250000000 1.0
C      1  0.4935280000000  0.5257240000000  0.4867190000000 1.0
C      1  0.5046750000000  0.5238350000000  0.5151710000000 1.0
END
