TITL C-3578206-1180-286 8.95819425096207e-07 125000 -256.02956617239 0 0 43 (C1) n - 1
REM
REM in /home/bkarasulu/work/CARBON/AIRSS/Generating-Clusters/EDIP-Nigel-Params/with-SteepDescent/Higher-Symm/SD-CG/HFTN-CG
REM
REM
REM
REM
REM
REM ./C.cell (12c818d87b63d06a65506943cc24bca4)
REM
REM compiler GCC version 9.2.1 20190827 (Red Hat 9.2.1-1)
REM options -cpp -mtune=generic -march=x86-64 -g -O0 -fpre-include=/usr/include/finclude/math-vector-fortran.h
REM seed 1642343676 684595405 528062491 -1484266196 -1377359885 465555272 508039378 173677666 -792572579 -879913929 1476128902 -1501244185 1740170018 1843145798 -393432293 227867533 2123334989 -1730533816 1686174056 -1905265751 735866071 -826422412 -195040102 -897797862 1118308019 -1264866992 1192234968 -551438819 812024489 -1444831481 818817101 563371428 -159716023
REM
CELL 1.54180   50.00000   50.00000   50.00000   90.00000   90.00000   90.00000
LATT -1
SFAC C  
C      1  0.5312070000000  0.4604420000000  0.4958340000000 1.0
C      1  0.5375150000000  0.5238830000000  0.5396860000000 1.0
C      1  0.5315660000000  0.5256440000000  0.4674470000000 1.0
C      1  0.5211970000000  0.4369280000000  0.4830770000000 1.0
C      1  0.5266710000000  0.5313560000000  0.5640670000000 1.0
C      1  0.5264550000000  0.5468550000000  0.4488110000000 1.0
C      1  0.5142690000000  0.4540060000000  0.5402660000000 1.0
C      1  0.5136200000000  0.5604830000000  0.5131080000000 1.0
C      1  0.5141990000000  0.4861340000000  0.4425600000000 1.0
C      1  0.4432780000000  0.4723350000000  0.4939140000000 1.0
C      1  0.4578930000000  0.5089420000000  0.5234760000000 1.0
C      1  0.4424100000000  0.5172730000000  0.4776090000000 1.0
C      1  0.4994470000000  0.4882240000000  0.4832440000000 1.0
C      1  0.5046000000000  0.4916420000000  0.5186070000000 1.0
C      1  0.5012430000000  0.5215960000000  0.4992220000000 1.0
C      1  0.4907560000000  0.4836950000000  0.5691500000000 1.0
C      1  0.4974210000000  0.5634080000000  0.4684690000000 1.0
C      1  0.4966060000000  0.4441340000000  0.4543830000000 1.0
C      1  0.5352590000000  0.5428450000000  0.5171560000000 1.0
C      1  0.5339500000000  0.4981510000000  0.4581180000000 1.0
C      1  0.5360500000000  0.4618460000000  0.5250340000000 1.0
C      1  0.4779040000000  0.4385730000000  0.4756620000000 1.0
C      1  0.4876310000000  0.5103980000000  0.5625700000000 1.0
C      1  0.4839710000000  0.5418390000000  0.4536290000000 1.0
C      1  0.4501720000000  0.5283800000000  0.5030680000000 1.0
C      1  0.4468720000000  0.4894930000000  0.4710770000000 1.0
C      1  0.4498720000000  0.4806580000000  0.5206960000000 1.0
C      1  0.4965110000000  0.4281600000000  0.4952930000000 1.0
C      1  0.5031320000000  0.5288070000000  0.5766100000000 1.0
C      1  0.5038950000000  0.5391060000000  0.4325670000000 1.0
C      1  0.4914250000000  0.5643910000000  0.4964470000000 1.0
C      1  0.4914570000000  0.4702980000000  0.4437170000000 1.0
C      1  0.4902540000000  0.4636960000000  0.5500370000000 1.0
C      1  0.4683250000000  0.5497890000000  0.5024020000000 1.0
C      1  0.4677660000000  0.4824420000000  0.4530610000000 1.0
C      1  0.4672420000000  0.4630000000000  0.5342650000000 1.0
C      1  0.5444930000000  0.5283740000000  0.4933060000000 1.0
C      1  0.5433070000000  0.4825830000000  0.4813070000000 1.0
C      1  0.5372020000000  0.4947930000000  0.5270480000000 1.0
C      1  0.4856590000000  0.5140350000000  0.5326240000000 1.0
C      1  0.4805120000000  0.5180900000000  0.4730340000000 1.0
C      1  0.4807220000000  0.4636660000000  0.4945550000000 1.0
C      1  0.5518460000000  0.5014260000000  0.5017380000000 1.0
END
