TITL C-3577087-600-594 -2.70013353728108e-06 125000 -1250.13008185022 0 0 197 (C1) n - 1
REM
REM in /home/bkarasulu/work/CARBON/AIRSS/Generating-Clusters/EDIP-Nigel-Params/with-SteepDescent/Higher-Symm/SD-CG/HFTN-CG
REM
REM
REM
REM
REM
REM ./C.cell (12c818d87b63d06a65506943cc24bca4)
REM
REM compiler GCC version 9.2.1 20190827 (Red Hat 9.2.1-1)
REM options -cpp -mtune=generic -march=x86-64 -g -O0 -fpre-include=/usr/include/finclude/math-vector-fortran.h
REM seed 798088317 114959944 -1739874507 1343058267 -384387365 -2138116643 1818622475 -90765104 1099179636 -2040798457 -1868225881 1203047414 571989834 1053598317 -2112219013 -1434817005 -234391613 -2079066326 -1969245410 1541167930 -1462337340 1830143725 -146851430 711614198 2033017359 -1324747604 -2074222746 -274429207 1168662611 -1600739031 272030279 -616910034 -593162295
REM
CELL 1.54180   50.00000   50.00000   50.00000   90.00000   90.00000   90.00000
LATT -1
SFAC C  
C      1  0.5401320000000  0.3958410000000  0.5475370000000 1.0
C      1  0.5395030000000  0.4206120000000  0.4131580000000 1.0
C      1  0.5393250000000  0.5567490000000  0.3998600000000 1.0
C      1  0.5388430000000  0.6122300000000  0.5230210000000 1.0
C      1  0.5384850000000  0.5124860000000  0.6152480000000 1.0
C      1  0.4587340000000  0.4728900000000  0.4638980000000 1.0
C      1  0.4591610000000  0.5201550000000  0.4831490000000 1.0
C      1  0.4627880000000  0.5259800000000  0.5143290000000 1.0
C      1  0.4649620000000  0.4980310000000  0.5284760000000 1.0
C      1  0.4646180000000  0.4781900000000  0.5078800000000 1.0
C      1  0.5710920000000  0.5142340000000  0.4218520000000 1.0
C      1  0.5708860000000  0.5794280000000  0.4897280000000 1.0
C      1  0.5716930000000  0.5334230000000  0.5733180000000 1.0
C      1  0.5638220000000  0.4405910000000  0.5518750000000 1.0
C      1  0.5741410000000  0.4300830000000  0.4630480000000 1.0
C      1  0.5262870000000  0.3950750000000  0.4567410000000 1.0
C      1  0.5282410000000  0.5072510000000  0.3888710000000 1.0
C      1  0.5275650000000  0.6082070000000  0.4718160000000 1.0
C      1  0.5281260000000  0.5599630000000  0.5947780000000 1.0
C      1  0.5274380000000  0.4298500000000  0.5839070000000 1.0
C      1  0.4147020000000  0.4623080000000  0.5368450000000 1.0
C      1  0.4077570000000  0.4532870000000  0.4726420000000 1.0
C      1  0.4141740000000  0.5103670000000  0.4476320000000 1.0
C      1  0.4130160000000  0.5542370000000  0.4951370000000 1.0
C      1  0.4127990000000  0.5233590000000  0.5488400000000 1.0
C      1  0.4392820000000  0.5408940000000  0.4113220000000 1.0
C      1  0.4383240000000  0.5976210000000  0.5123580000000 1.0
C      1  0.4380420000000  0.5196200000000  0.5964110000000 1.0
C      1  0.4392760000000  0.4142720000000  0.5502880000000 1.0
C      1  0.4386780000000  0.4307580000000  0.4375620000000 1.0
C      1  0.5007350000000  0.4209270000000  0.5775070000000 1.0
C      1  0.4991800000000  0.4004910000000  0.4488070000000 1.0
C      1  0.5014300000000  0.5169460000000  0.3868460000000 1.0
C      1  0.5008570000000  0.6083330000000  0.4842670000000 1.0
C      1  0.5012920000000  0.5483150000000  0.5990410000000 1.0
C      1  0.5919740000000  0.5706750000000  0.5086860000000 1.0
C      1  0.5927180000000  0.5123650000000  0.5725840000000 1.0
C      1  0.5872110000000  0.4308270000000  0.5359080000000 1.0
C      1  0.5950600000000  0.4470980000000  0.4508040000000 1.0
C      1  0.5920560000000  0.5296180000000  0.4358570000000 1.0
C      1  0.4496670000000  0.4821920000000  0.4362060000000 1.0
C      1  0.4472000000000  0.5461120000000  0.4683300000000 1.0
C      1  0.4494940000000  0.5446320000000  0.5366410000000 1.0
C      1  0.4491040000000  0.4849900000000  0.5530200000000 1.0
C      1  0.4502470000000  0.4363760000000  0.5106570000000 1.0
C      1  0.4502850000000  0.5116620000000  0.3996190000000 1.0
C      1  0.4496810000000  0.5962710000000  0.4810730000000 1.0
C      1  0.4498690000000  0.5472610000000  0.5852370000000 1.0
C      1  0.4503420000000  0.4360640000000  0.5679040000000 1.0
C      1  0.4489070000000  0.4173430000000  0.4621870000000 1.0
C      1  0.5094430000000  0.5024220000000  0.6078590000000 1.0
C      1  0.5120710000000  0.4021380000000  0.5345720000000 1.0
C      1  0.5111210000000  0.4347950000000  0.4151590000000 1.0
C      1  0.5107100000000  0.5597780000000  0.4122520000000 1.0
C      1  0.5099420000000  0.6025430000000  0.5307220000000 1.0
C      1  0.5084060000000  0.5217950000000  0.5831600000000 1.0
C      1  0.5124510000000  0.4321070000000  0.5428890000000 1.0
C      1  0.5149740000000  0.4356400000000  0.4465880000000 1.0
C      1  0.5101950000000  0.5304630000000  0.4216250000000 1.0
C      1  0.5071660000000  0.5856320000000  0.5044720000000 1.0
C      1  0.5135240000000  0.5257190000000  0.5078710000000 1.0
C      1  0.5146060000000  0.5011990000000  0.5250970000000 1.0
C      1  0.5146380000000  0.4768480000000  0.5063300000000 1.0
C      1  0.5144400000000  0.4862660000000  0.4778070000000 1.0
C      1  0.5131260000000  0.5163970000000  0.4789780000000 1.0
C      1  0.4776970000000  0.6021530000000  0.4668200000000 1.0
C      1  0.4781390000000  0.5628920000000  0.5876010000000 1.0
C      1  0.4775320000000  0.4366690000000  0.5841070000000 1.0
C      1  0.4763610000000  0.4005670000000  0.4661240000000 1.0
C      1  0.4787750000000  0.5004580000000  0.3902890000000 1.0
C      1  0.4374430000000  0.5926360000000  0.4365550000000 1.0
C      1  0.4401510000000  0.5886820000000  0.5684680000000 1.0
C      1  0.4395710000000  0.4630590000000  0.6037150000000 1.0
C      1  0.4387470000000  0.3895010000000  0.4973070000000 1.0
C      1  0.4408010000000  0.4689660000000  0.3899890000000 1.0
C      1  0.5871700000000  0.5504710000000  0.4167980000000 1.0
C      1  0.5867760000000  0.5951750000000  0.5227030000000 1.0
C      1  0.5862170000000  0.5066740000000  0.5997630000000 1.0
C      1  0.5880990000000  0.4026220000000  0.5366620000000 1.0
C      1  0.5860790000000  0.4354570000000  0.4259020000000 1.0
C      1  0.5632350000000  0.4887330000000  0.4770420000000 1.0
C      1  0.5622000000000  0.5202010000000  0.4783180000000 1.0
C      1  0.5617050000000  0.5285840000000  0.5096470000000 1.0
C      1  0.5616680000000  0.5020650000000  0.5263140000000 1.0
C      1  0.5634200000000  0.4781120000000  0.5063510000000 1.0
C      1  0.4848070000000  0.4660670000000  0.5845800000000 1.0
C      1  0.4846060000000  0.4088950000000  0.4934850000000 1.0
C      1  0.4864920000000  0.4777900000000  0.4084750000000 1.0
C      1  0.4840000000000  0.5778520000000  0.4501870000000 1.0
C      1  0.4853320000000  0.5707420000000  0.5594500000000 1.0
C      1  0.5444990000000  0.5300680000000  0.3905290000000 1.0
C      1  0.5437880000000  0.6136750000000  0.4946430000000 1.0
C      1  0.5441790000000  0.5396570000000  0.6067610000000 1.0
C      1  0.5495540000000  0.4175970000000  0.5678920000000 1.0
C      1  0.5419420000000  0.4008810000000  0.4337210000000 1.0
C      1  0.4946730000000  0.4733780000000  0.5571600000000 1.0
C      1  0.4906940000000  0.4379380000000  0.4901820000000 1.0
C      1  0.4951700000000  0.4883140000000  0.4354280000000 1.0
C      1  0.4904770000000  0.5555650000000  0.4695230000000 1.0
C      1  0.4932130000000  0.5462660000000  0.5447980000000 1.0
C      1  0.4092470000000  0.5059870000000  0.4758930000000 1.0
C      1  0.4094750000000  0.5254700000000  0.4977990000000 1.0
C      1  0.4074010000000  0.5111360000000  0.5230590000000 1.0
C      1  0.4018090000000  0.4816820000000  0.5174570000000 1.0
C      1  0.4121550000000  0.4792110000000  0.4882920000000 1.0
C      1  0.4890740000000  0.4607040000000  0.5098410000000 1.0
C      1  0.4903350000000  0.4751990000000  0.4614790000000 1.0
C      1  0.4873790000000  0.5261730000000  0.4667780000000 1.0
C      1  0.4891170000000  0.5407580000000  0.5160540000000 1.0
C      1  0.4910700000000  0.4986940000000  0.5430020000000 1.0
C      1  0.5322250000000  0.3994760000000  0.4859020000000 1.0
C      1  0.5327250000000  0.4807350000000  0.4014310000000 1.0
C      1  0.5315500000000  0.5859980000000  0.4525930000000 1.0
C      1  0.5319070000000  0.5716160000000  0.5677300000000 1.0
C      1  0.5307610000000  0.4581360000000  0.5907200000000 1.0
C      1  0.5590780000000  0.5566990000000  0.4229720000000 1.0
C      1  0.5587850000000  0.5908130000000  0.5305460000000 1.0
C      1  0.5581850000000  0.4986550000000  0.5968610000000 1.0
C      1  0.5625460000000  0.3947940000000  0.5274910000000 1.0
C      1  0.5574070000000  0.4434330000000  0.4239480000000 1.0
C      1  0.6066120000000  0.4881550000000  0.4776210000000 1.0
C      1  0.6063380000000  0.5176600000000  0.4842080000000 1.0
C      1  0.6054600000000  0.5207350000000  0.5142700000000 1.0
C      1  0.6043430000000  0.4930520000000  0.5270280000000 1.0
C      1  0.6020820000000  0.4725620000000  0.5042920000000 1.0
C      1  0.4601500000000  0.5620970000000  0.4086830000000 1.0
C      1  0.4616830000000  0.6037590000000  0.5301200000000 1.0
C      1  0.4608790000000  0.5039590000000  0.6079100000000 1.0
C      1  0.4611730000000  0.3977160000000  0.5381070000000 1.0
C      1  0.4603880000000  0.4359490000000  0.4183340000000 1.0
C      1  0.4124260000000  0.4690960000000  0.5655050000000 1.0
C      1  0.4128260000000  0.4290230000000  0.4900620000000 1.0
C      1  0.4195430000000  0.4847090000000  0.4305460000000 1.0
C      1  0.4132830000000  0.5650100000000  0.4670240000000 1.0
C      1  0.4137100000000  0.5540940000000  0.5491160000000 1.0
C      1  0.5376090000000  0.5171340000000  0.5694730000000 1.0
C      1  0.5386110000000  0.4464910000000  0.5358820000000 1.0
C      1  0.5419830000000  0.4493660000000  0.4524600000000 1.0
C      1  0.5377330000000  0.5268190000000  0.4354110000000 1.0
C      1  0.5365170000000  0.5719460000000  0.5046340000000 1.0
C      1  0.4258210000000  0.5381800000000  0.4420610000000 1.0
C      1  0.4215540000000  0.5699310000000  0.5195210000000 1.0
C      1  0.4214350000000  0.5044750000000  0.5715120000000 1.0
C      1  0.4225910000000  0.4339320000000  0.5270550000000 1.0
C      1  0.4176590000000  0.4525980000000  0.4441160000000 1.0
C      1  0.5736370000000  0.4648920000000  0.5671440000000 1.0
C      1  0.5786810000000  0.4221620000000  0.4900380000000 1.0
C      1  0.5774350000000  0.4862780000000  0.4250200000000 1.0
C      1  0.5769640000000  0.5669180000000  0.4646400000000 1.0
C      1  0.5766600000000  0.5531410000000  0.5526390000000 1.0
C      1  0.4572120000000  0.4539870000000  0.5447980000000 1.0
C      1  0.4488150000000  0.4438000000000  0.4789310000000 1.0
C      1  0.4578220000000  0.5113740000000  0.4304810000000 1.0
C      1  0.4547560000000  0.5677530000000  0.4919790000000 1.0
C      1  0.4567440000000  0.5278240000000  0.5619150000000 1.0
C      1  0.4872030000000  0.5164870000000  0.4378440000000 1.0
C      1  0.4854790000000  0.5640690000000  0.4976900000000 1.0
C      1  0.4874030000000  0.5224400000000  0.5605760000000 1.0
C      1  0.4883040000000  0.4515550000000  0.5385210000000 1.0
C      1  0.4944710000000  0.4468050000000  0.4630720000000 1.0
C      1  0.5867800000000  0.5362360000000  0.4648450000000 1.0
C      1  0.5859690000000  0.5449450000000  0.5232380000000 1.0
C      1  0.5870100000000  0.4903560000000  0.5531220000000 1.0
C      1  0.5888300000000  0.4429200000000  0.5089730000000 1.0
C      1  0.5905920000000  0.4765970000000  0.4524260000000 1.0
C      1  0.5579520000000  0.5766410000000  0.4443490000000 1.0
C      1  0.5580390000000  0.5758080000000  0.5557020000000 1.0
C      1  0.5568070000000  0.4702220000000  0.5904180000000 1.0
C      1  0.5585280000000  0.4024630000000  0.4992680000000 1.0
C      1  0.5581370000000  0.4696490000000  0.4102900000000 1.0
C      1  0.4860790000000  0.5608140000000  0.3971920000000 1.0
C      1  0.4858580000000  0.6188160000000  0.5289850000000 1.0
C      1  0.4850130000000  0.5101120000000  0.6217390000000 1.0
C      1  0.4875930000000  0.3923350000000  0.5473610000000 1.0
C      1  0.4846950000000  0.4218750000000  0.4130060000000 1.0
C      1  0.4589540000000  0.5807280000000  0.5478200000000 1.0
C      1  0.4584950000000  0.4806460000000  0.5903470000000 1.0
C      1  0.4588320000000  0.4065270000000  0.5100450000000 1.0
C      1  0.4594470000000  0.4643680000000  0.4121660000000 1.0
C      1  0.4579850000000  0.5733290000000  0.4350470000000 1.0
C      1  0.5394320000000  0.4774450000000  0.4637700000000 1.0
C      1  0.5367710000000  0.5273780000000  0.4648150000000 1.0
C      1  0.5365850000000  0.5433970000000  0.5128740000000 1.0
C      1  0.5377080000000  0.5023070000000  0.5431380000000 1.0
C      1  0.5392730000000  0.4614220000000  0.5115290000000 1.0
C      1  0.5095740000000  0.5875980000000  0.5571280000000 1.0
C      1  0.5080910000000  0.4727840000000  0.6018130000000 1.0
C      1  0.5097180000000  0.3965840000000  0.5045080000000 1.0
C      1  0.5103400000000  0.4617050000000  0.4005840000000 1.0
C      1  0.5092630000000  0.5804440000000  0.4343780000000 1.0
C      1  0.4264520000000  0.4911830000000  0.3993800000000 1.0
C      1  0.4273930000000  0.5908270000000  0.4621130000000 1.0
C      1  0.4276470000000  0.5645860000000  0.5739980000000 1.0
C      1  0.4278360000000  0.4502090000000  0.5821800000000 1.0
C      1  0.4267520000000  0.4055790000000  0.4782080000000 1.0
C      1  0.4494980000000  0.4901910000000  0.4852210000000 1.0
C      1  0.3748810000000  0.4775260000000  0.5174480000000 1.0
END
