TITL C-3577091-527-281 -1.61789233880427e-06 125000 -1081.62747370436 0 0 170 (C1) n - 1
REM
REM in /home/bkarasulu/work/CARBON/AIRSS/Generating-Clusters/EDIP-Nigel-Params/with-SteepDescent/Higher-Symm/SD-CG/HFTN-CG
REM
REM
REM
REM
REM
REM ./C.cell (12c818d87b63d06a65506943cc24bca4)
REM
REM compiler GCC version 9.2.1 20190827 (Red Hat 9.2.1-1)
REM options -cpp -mtune=generic -march=x86-64 -g -O0 -fpre-include=/usr/include/finclude/math-vector-fortran.h
REM seed -1346174147 -1770414833 505464920 1150241188 7286634 2003320362 -2079748937 53031346 -815765438 -511979077 449681011 1017145976 1387675012 -1254707613 -1437612412 -1864999810 -1593817363 -729897952 774527878 131278550 932530703 -1984838862 729777843 -276810751 907258249 1011005876 2025955064 -1963922059 -1698499753 -939155286 57277009 -1425507794 -1152818817
REM
CELL 1.54180   50.00000   50.00000   50.00000   90.00000   90.00000   90.00000
LATT -1
SFAC C  
C      1  0.5041330000000  0.4092880000000  0.5486680000000 1.0
C      1  0.5025130000000  0.5847490000000  0.5596630000000 1.0
C      1  0.5003630000000  0.5014740000000  0.3869640000000 1.0
C      1  0.4428250000000  0.5701600000000  0.5164190000000 1.0
C      1  0.4439030000000  0.4714600000000  0.4287260000000 1.0
C      1  0.4391610000000  0.4457860000000  0.5620050000000 1.0
C      1  0.5625230000000  0.5243290000000  0.4508260000000 1.0
C      1  0.5571720000000  0.4534470000000  0.5082310000000 1.0
C      1  0.5555750000000  0.5342130000000  0.5385030000000 1.0
C      1  0.5730160000000  0.5662510000000  0.5682500000000 1.0
C      1  0.5691560000000  0.5246310000000  0.4048410000000 1.0
C      1  0.5671140000000  0.4101890000000  0.5190050000000 1.0
C      1  0.4806040000000  0.3999640000000  0.4423490000000 1.0
C      1  0.4831540000000  0.5021130000000  0.6085520000000 1.0
C      1  0.4921360000000  0.5946810000000  0.4489320000000 1.0
C      1  0.5220280000000  0.4820850000000  0.5910200000000 1.0
C      1  0.5290700000000  0.6033320000000  0.4792680000000 1.0
C      1  0.5198910000000  0.4286530000000  0.4309140000000 1.0
C      1  0.4775570000000  0.4451170000000  0.4541010000000 1.0
C      1  0.4804150000000  0.4831320000000  0.5629550000000 1.0
C      1  0.4763310000000  0.5599140000000  0.4791770000000 1.0
C      1  0.4825110000000  0.6124970000000  0.4687430000000 1.0
C      1  0.4759580000000  0.4066290000000  0.4147480000000 1.0
C      1  0.4773290000000  0.4758990000000  0.6179260000000 1.0
C      1  0.4527060000000  0.4233240000000  0.5153540000000 1.0
C      1  0.4520020000000  0.5544670000000  0.5631120000000 1.0
C      1  0.4581960000000  0.5236600000000  0.4234170000000 1.0
C      1  0.5791270000000  0.4866860000000  0.4277000000000 1.0
C      1  0.5830740000000  0.4438350000000  0.5500810000000 1.0
C      1  0.5842960000000  0.5743910000000  0.5203690000000 1.0
C      1  0.5586830000000  0.5770500000000  0.5049290000000 1.0
C      1  0.5497370000000  0.4846340000000  0.4354660000000 1.0
C      1  0.5603420000000  0.4612920000000  0.5604000000000 1.0
C      1  0.5418130000000  0.5248160000000  0.3986160000000 1.0
C      1  0.5396460000000  0.4153580000000  0.5227010000000 1.0
C      1  0.5449820000000  0.5634920000000  0.5701590000000 1.0
C      1  0.4797800000000  0.4815940000000  0.3933350000000 1.0
C      1  0.4844020000000  0.4283050000000  0.5571330000000 1.0
C      1  0.4822230000000  0.5883590000000  0.5394660000000 1.0
C      1  0.4701060000000  0.5436070000000  0.5841680000000 1.0
C      1  0.4785460000000  0.5457750000000  0.4276140000000 1.0
C      1  0.4680750000000  0.4068180000000  0.4940940000000 1.0
C      1  0.5195090000000  0.5211880000000  0.5410470000000 1.0
C      1  0.5335110000000  0.5181560000000  0.4411510000000 1.0
C      1  0.5264850000000  0.4503560000000  0.5191840000000 1.0
C      1  0.4311110000000  0.4796840000000  0.5960530000000 1.0
C      1  0.4358470000000  0.5905750000000  0.4722820000000 1.0
C      1  0.4299560000000  0.4251440000000  0.4337380000000 1.0
C      1  0.5262190000000  0.5435700000000  0.4143360000000 1.0
C      1  0.5147930000000  0.4151510000000  0.4777250000000 1.0
C      1  0.5316260000000  0.5406390000000  0.5859100000000 1.0
C      1  0.6097840000000  0.5086010000000  0.5405960000000 1.0
C      1  0.6132070000000  0.5327600000000  0.4751120000000 1.0
C      1  0.6074510000000  0.4628760000000  0.4860110000000 1.0
C      1  0.5967620000000  0.4802190000000  0.5095630000000 1.0
C      1  0.5982770000000  0.5211900000000  0.5148860000000 1.0
C      1  0.5987940000000  0.5052340000000  0.4768860000000 1.0
C      1  0.4050750000000  0.4731440000000  0.5830900000000 1.0
C      1  0.4093340000000  0.5797320000000  0.4830520000000 1.0
C      1  0.4052130000000  0.4428910000000  0.4352110000000 1.0
C      1  0.5988280000000  0.4691090000000  0.5576460000000 1.0
C      1  0.6061740000000  0.5677030000000  0.5017980000000 1.0
C      1  0.5982380000000  0.4705140000000  0.4431910000000 1.0
C      1  0.5498040000000  0.5161400000000  0.5842290000000 1.0
C      1  0.5559710000000  0.5782520000000  0.4545910000000 1.0
C      1  0.5440140000000  0.4215910000000  0.4691790000000 1.0
C      1  0.4567290000000  0.4265350000000  0.5462640000000 1.0
C      1  0.4565120000000  0.5746350000000  0.5419960000000 1.0
C      1  0.4597590000000  0.4934310000000  0.4126590000000 1.0
C      1  0.5462550000000  0.4711510000000  0.4636840000000 1.0
C      1  0.5529760000000  0.4855690000000  0.5430710000000 1.0
C      1  0.5544070000000  0.5495450000000  0.4918910000000 1.0
C      1  0.5367530000000  0.5855900000000  0.5235160000000 1.0
C      1  0.5336490000000  0.4743320000000  0.4131940000000 1.0
C      1  0.5355450000000  0.4449920000000  0.5621880000000 1.0
C      1  0.4713890000000  0.4551250000000  0.5994390000000 1.0
C      1  0.4714380000000  0.6063120000000  0.4941130000000 1.0
C      1  0.4693020000000  0.4332500000000  0.4061710000000 1.0
C      1  0.5881710000000  0.4465640000000  0.4705780000000 1.0
C      1  0.5914500000000  0.5068190000000  0.5625240000000 1.0
C      1  0.5970400000000  0.5561720000000  0.4673820000000 1.0
C      1  0.5660090000000  0.4811540000000  0.5150680000000 1.0
C      1  0.5660930000000  0.5276340000000  0.5104590000000 1.0
C      1  0.5681890000000  0.5023120000000  0.4715790000000 1.0
C      1  0.5171420000000  0.5946260000000  0.5048220000000 1.0
C      1  0.5113120000000  0.4563360000000  0.4216320000000 1.0
C      1  0.5186550000000  0.4538920000000  0.5833670000000 1.0
C      1  0.5088420000000  0.4557310000000  0.4941220000000 1.0
C      1  0.5086050000000  0.5259960000000  0.5701570000000 1.0
C      1  0.5151720000000  0.5233530000000  0.4653670000000 1.0
C      1  0.6133330000000  0.4803310000000  0.5344540000000 1.0
C      1  0.6176900000000  0.5409190000000  0.5031570000000 1.0
C      1  0.6137950000000  0.4822370000000  0.4647490000000 1.0
C      1  0.5310940000000  0.4189840000000  0.5497830000000 1.0
C      1  0.5288130000000  0.5779380000000  0.5506480000000 1.0
C      1  0.5254410000000  0.4998950000000  0.4014480000000 1.0
C      1  0.4134260000000  0.4706830000000  0.4270630000000 1.0
C      1  0.4095000000000  0.4510190000000  0.5630740000000 1.0
C      1  0.4133750000000  0.5719150000000  0.5120830000000 1.0
C      1  0.4620390000000  0.4593100000000  0.4765770000000 1.0
C      1  0.4645860000000  0.4988940000000  0.5426000000000 1.0
C      1  0.4644830000000  0.5332820000000  0.4778200000000 1.0
C      1  0.5230150000000  0.4897710000000  0.5371290000000 1.0
C      1  0.5251610000000  0.5424200000000  0.4851690000000 1.0
C      1  0.5175430000000  0.4702640000000  0.4701720000000 1.0
C      1  0.4168990000000  0.5013680000000  0.5356300000000 1.0
C      1  0.4223000000000  0.5106330000000  0.4885490000000 1.0
C      1  0.4107570000000  0.4825630000000  0.4961150000000 1.0
C      1  0.4963230000000  0.4016970000000  0.4980750000000 1.0
C      1  0.4959540000000  0.5553660000000  0.5921860000000 1.0
C      1  0.4983920000000  0.5463700000000  0.4064240000000 1.0
C      1  0.4975050000000  0.4685120000000  0.4475080000000 1.0
C      1  0.5020340000000  0.4663010000000  0.5442960000000 1.0
C      1  0.5030250000000  0.5527730000000  0.5010820000000 1.0
C      1  0.5679790000000  0.5521500000000  0.4644230000000 1.0
C      1  0.5593880000000  0.4472190000000  0.4778770000000 1.0
C      1  0.5628550000000  0.5109870000000  0.5575790000000 1.0
C      1  0.4915660000000  0.4442060000000  0.5810450000000 1.0
C      1  0.4910570000000  0.6020610000000  0.5148220000000 1.0
C      1  0.4904020000000  0.4537440000000  0.3995920000000 1.0
C      1  0.4282890000000  0.5034400000000  0.4586050000000 1.0
C      1  0.4191780000000  0.4614200000000  0.5168030000000 1.0
C      1  0.4226810000000  0.5304890000000  0.5292450000000 1.0
C      1  0.4968960000000  0.5333850000000  0.5238060000000 1.0
C      1  0.4788930000000  0.4940110000000  0.4479360000000 1.0
C      1  0.4727840000000  0.4584220000000  0.5269910000000 1.0
C      1  0.4170750000000  0.5196840000000  0.5757310000000 1.0
C      1  0.4307490000000  0.5502320000000  0.4547330000000 1.0
C      1  0.4208240000000  0.4309710000000  0.4778860000000 1.0
C      1  0.3999230000000  0.5320400000000  0.4888760000000 1.0
C      1  0.3955680000000  0.4732600000000  0.4722160000000 1.0
C      1  0.3893190000000  0.4890230000000  0.5397280000000 1.0
C      1  0.4746320000000  0.5693460000000  0.4483120000000 1.0
C      1  0.4605830000000  0.4055080000000  0.4653870000000 1.0
C      1  0.4620250000000  0.5196980000000  0.5985960000000 1.0
C      1  0.3962920000000  0.4980000000000  0.5685640000000 1.0
C      1  0.4056570000000  0.5537010000000  0.4690000000000 1.0
C      1  0.3987390000000  0.4446240000000  0.4647460000000 1.0
C      1  0.5457780000000  0.4936010000000  0.5999150000000 1.0
C      1  0.5569770000000  0.5946560000000  0.4795170000000 1.0
C      1  0.5452580000000  0.4230090000000  0.4409580000000 1.0
C      1  0.4741740000000  0.5140090000000  0.5184620000000 1.0
C      1  0.4866450000000  0.5122010000000  0.4712840000000 1.0
C      1  0.4814400000000  0.4668890000000  0.4985740000000 1.0
C      1  0.4550350000000  0.4431120000000  0.4301520000000 1.0
C      1  0.4526810000000  0.4657130000000  0.5799840000000 1.0
C      1  0.4564360000000  0.5813070000000  0.4920490000000 1.0
C      1  0.4494750000000  0.5281560000000  0.5046560000000 1.0
C      1  0.4516870000000  0.4825020000000  0.4564570000000 1.0
C      1  0.4461380000000  0.4771140000000  0.5324920000000 1.0
C      1  0.4914560000000  0.5280950000000  0.3858550000000 1.0
C      1  0.5007300000000  0.3955100000000  0.5248260000000 1.0
C      1  0.4962620000000  0.5827570000000  0.5866910000000 1.0
C      1  0.4330890000000  0.4120480000000  0.4596590000000 1.0
C      1  0.4351540000000  0.5087400000000  0.5954250000000 1.0
C      1  0.4445230000000  0.5751680000000  0.4480060000000 1.0
C      1  0.4005140000000  0.5451330000000  0.5156620000000 1.0
C      1  0.4039570000000  0.4891050000000  0.4483590000000 1.0
C      1  0.3968310000000  0.4598790000000  0.5371330000000 1.0
C      1  0.4274510000000  0.5397720000000  0.5570320000000 1.0
C      1  0.4346490000000  0.5260980000000  0.4404680000000 1.0
C      1  0.4270360000000  0.4342130000000  0.5059580000000 1.0
C      1  0.5790020000000  0.5552760000000  0.5432480000000 1.0
C      1  0.5810360000000  0.5161430000000  0.4282440000000 1.0
C      1  0.5782700000000  0.4359110000000  0.5219630000000 1.0
C      1  0.4988060000000  0.4992660000000  0.5833240000000 1.0
C      1  0.5205840000000  0.5912170000000  0.4540810000000 1.0
C      1  0.5000890000000  0.4207800000000  0.4519020000000 1.0
C      1  0.5556420000000  0.5029670000000  0.4983700000000 1.0
C      1  0.4850890000000  0.4964600000000  0.4972170000000 1.0
END
