TITL C-3578196-9646-119 -1.06148529377688e-06 125000 -1221.28277808747 0 0 193 (C1) n - 1
REM
REM in /home/bkarasulu/work/CARBON/AIRSS/Generating-Clusters/EDIP-Nigel-Params/with-SteepDescent/Higher-Symm/SD-CG/HFTN-CG
REM
REM
REM
REM
REM
REM ./C.cell (12c818d87b63d06a65506943cc24bca4)
REM
REM compiler GCC version 9.2.1 20190827 (Red Hat 9.2.1-1)
REM options -cpp -mtune=generic -march=x86-64 -g -O0 -fpre-include=/usr/include/finclude/math-vector-fortran.h
REM seed 1622703832 2105580351 1853752903 1316729453 458484179 377708835 1489233154 -1834219168 -1603808490 65924158 1068619658 -1789314725 897487944 814142981 315281215 1281703737 -512509121 -1018376852 -1698644803 2074643708 -1342284612 -2134645770 -1783961050 51601999 857059434 -1431753295 -1508008417 795663397 1204471799 -1785124888 890282619 416421641 1665512095
REM
CELL 1.54180   50.00000   50.00000   50.00000   90.00000   90.00000   90.00000
LATT -1
SFAC C  
C      1  0.4472440000000  0.4096140000000  0.5504100000000 1.0
C      1  0.5704690000000  0.4071240000000  0.5207420000000 1.0
C      1  0.4851670000000  0.4109010000000  0.4327200000000 1.0
C      1  0.4417750000000  0.5925710000000  0.5512210000000 1.0
C      1  0.5728690000000  0.5916070000000  0.5210520000000 1.0
C      1  0.4827090000000  0.5878700000000  0.4351390000000 1.0
C      1  0.5667380000000  0.4700120000000  0.4803970000000 1.0
C      1  0.4510580000000  0.4724150000000  0.4574270000000 1.0
C      1  0.4824940000000  0.4685570000000  0.5543770000000 1.0
C      1  0.5645310000000  0.5260410000000  0.4831120000000 1.0
C      1  0.4516030000000  0.5166360000000  0.4540430000000 1.0
C      1  0.4815430000000  0.5339790000000  0.5536200000000 1.0
C      1  0.4626320000000  0.4489340000000  0.5092010000000 1.0
C      1  0.5274060000000  0.4479230000000  0.5274250000000 1.0
C      1  0.4987670000000  0.4615030000000  0.4656060000000 1.0
C      1  0.4539820000000  0.5564640000000  0.5122910000000 1.0
C      1  0.5165700000000  0.5523530000000  0.5224170000000 1.0
C      1  0.5212890000000  0.5516520000000  0.4689880000000 1.0
C      1  0.5247960000000  0.6051040000000  0.5346830000000 1.0
C      1  0.5192610000000  0.6054920000000  0.4663270000000 1.0
C      1  0.4520340000000  0.6084930000000  0.5014290000000 1.0
C      1  0.5229020000000  0.3951780000000  0.5368220000000 1.0
C      1  0.5233610000000  0.4046210000000  0.4642270000000 1.0
C      1  0.4593300000000  0.3948420000000  0.5024930000000 1.0
C      1  0.6073500000000  0.4424220000000  0.5127210000000 1.0
C      1  0.4588270000000  0.4445800000000  0.4035710000000 1.0
C      1  0.4328880000000  0.4416690000000  0.5875030000000 1.0
C      1  0.6058490000000  0.5555390000000  0.5109050000000 1.0
C      1  0.4571530000000  0.5558680000000  0.4043000000000 1.0
C      1  0.4310030000000  0.5585690000000  0.5884250000000 1.0
C      1  0.5780150000000  0.4860830000000  0.5800720000000 1.0
C      1  0.5315470000000  0.4863170000000  0.3882000000000 1.0
C      1  0.3880380000000  0.4836310000000  0.5288260000000 1.0
C      1  0.5790880000000  0.5146060000000  0.5801360000000 1.0
C      1  0.5312330000000  0.5150150000000  0.3886880000000 1.0
C      1  0.3877700000000  0.5126550000000  0.5283590000000 1.0
C      1  0.4964670000000  0.4418350000000  0.5470480000000 1.0
C      1  0.5529620000000  0.4369210000000  0.4870290000000 1.0
C      1  0.4556240000000  0.4435310000000  0.4783930000000 1.0
C      1  0.4952810000000  0.5618040000000  0.5422400000000 1.0
C      1  0.5487760000000  0.5530730000000  0.4846170000000 1.0
C      1  0.4771800000000  0.5567810000000  0.4662070000000 1.0
C      1  0.4984950000000  0.5595710000000  0.5862160000000 1.0
C      1  0.5811690000000  0.5561360000000  0.4549270000000 1.0
C      1  0.4211180000000  0.5547210000000  0.4564940000000 1.0
C      1  0.4987360000000  0.4433240000000  0.5909100000000 1.0
C      1  0.5824970000000  0.4383350000000  0.4544040000000 1.0
C      1  0.4173910000000  0.4383440000000  0.4526330000000 1.0
C      1  0.5583430000000  0.4407690000000  0.4352130000000 1.0
C      1  0.4232850000000  0.4408960000000  0.4835940000000 1.0
C      1  0.5266570000000  0.4452400000000  0.5713370000000 1.0
C      1  0.5541900000000  0.5536030000000  0.4404370000000 1.0
C      1  0.4148170000000  0.5554310000000  0.4863150000000 1.0
C      1  0.5267740000000  0.5597130000000  0.5727710000000 1.0
C      1  0.4687170000000  0.4779910000000  0.5061030000000 1.0
C      1  0.5207900000000  0.4770530000000  0.5247870000000 1.0
C      1  0.5273560000000  0.4670150000000  0.4727780000000 1.0
C      1  0.4591700000000  0.5286070000000  0.5054950000000 1.0
C      1  0.5160720000000  0.5239170000000  0.5220680000000 1.0
C      1  0.5176540000000  0.5213280000000  0.4691880000000 1.0
C      1  0.5665160000000  0.5875990000000  0.4897370000000 1.0
C      1  0.4571940000000  0.5870770000000  0.4528670000000 1.0
C      1  0.4728840000000  0.5939660000000  0.5613570000000 1.0
C      1  0.5708000000000  0.4018150000000  0.4901400000000 1.0
C      1  0.4594690000000  0.4094430000000  0.4506370000000 1.0
C      1  0.4750800000000  0.4078270000000  0.5639020000000 1.0
C      1  0.5875820000000  0.4713800000000  0.5576450000000 1.0
C      1  0.5069400000000  0.4736670000000  0.3949780000000 1.0
C      1  0.4013520000000  0.4688670000000  0.5493800000000 1.0
C      1  0.5920220000000  0.5286290000000  0.5589540000000 1.0
C      1  0.5065600000000  0.5275610000000  0.3961940000000 1.0
C      1  0.3989210000000  0.5291390000000  0.5492310000000 1.0
C      1  0.4248680000000  0.5259740000000  0.4453800000000 1.0
C      1  0.4873130000000  0.5307710000000  0.5846120000000 1.0
C      1  0.5894850000000  0.5272820000000  0.4644250000000 1.0
C      1  0.4237570000000  0.4687890000000  0.4435690000000 1.0
C      1  0.4880040000000  0.4722510000000  0.5848510000000 1.0
C      1  0.5922780000000  0.4682430000000  0.4628170000000 1.0
C      1  0.5908040000000  0.4180710000000  0.4741580000000 1.0
C      1  0.4346380000000  0.4197360000000  0.4377200000000 1.0
C      1  0.4780150000000  0.4218780000000  0.5897140000000 1.0
C      1  0.5893050000000  0.5781420000000  0.4725870000000 1.0
C      1  0.4324480000000  0.5762000000000  0.4406350000000 1.0
C      1  0.4769700000000  0.5800920000000  0.5866750000000 1.0
C      1  0.4376000000000  0.4291070000000  0.4116130000000 1.0
C      1  0.4535650000000  0.4290610000000  0.6014110000000 1.0
C      1  0.6118350000000  0.4279170000000  0.4895670000000 1.0
C      1  0.4349600000000  0.5690780000000  0.4139050000000 1.0
C      1  0.4532130000000  0.5718230000000  0.5989070000000 1.0
C      1  0.6114060000000  0.5698500000000  0.4875840000000 1.0
C      1  0.4676010000000  0.5292780000000  0.4763380000000 1.0
C      1  0.4873580000000  0.5160020000000  0.5287200000000 1.0
C      1  0.5295190000000  0.5129040000000  0.4953940000000 1.0
C      1  0.4816470000000  0.4831510000000  0.4786890000000 1.0
C      1  0.4896700000000  0.4856180000000  0.5295460000000 1.0
C      1  0.5287930000000  0.4845150000000  0.4975520000000 1.0
C      1  0.4048520000000  0.5591080000000  0.5427960000000 1.0
C      1  0.5796450000000  0.5567720000000  0.5541200000000 1.0
C      1  0.5096130000000  0.5557370000000  0.4067310000000 1.0
C      1  0.4148670000000  0.4416920000000  0.5393790000000 1.0
C      1  0.5785140000000  0.4431660000000  0.5551500000000 1.0
C      1  0.5108080000000  0.4455310000000  0.4062470000000 1.0
C      1  0.6124000000000  0.4835090000000  0.4835240000000 1.0
C      1  0.4289840000000  0.4842380000000  0.4148960000000 1.0
C      1  0.4613160000000  0.4855170000000  0.5955000000000 1.0
C      1  0.6120010000000  0.5133780000000  0.4832020000000 1.0
C      1  0.4291970000000  0.5142950000000  0.4156650000000 1.0
C      1  0.4607740000000  0.5158770000000  0.5955350000000 1.0
C      1  0.4786570000000  0.6030580000000  0.5119360000000 1.0
C      1  0.5271220000000  0.5925710000000  0.5078570000000 1.0
C      1  0.5030330000000  0.5960880000000  0.4900040000000 1.0
C      1  0.4867120000000  0.4035390000000  0.5122750000000 1.0
C      1  0.5181670000000  0.3988380000000  0.5078450000000 1.0
C      1  0.4959780000000  0.4078040000000  0.4753680000000 1.0
C      1  0.4862430000000  0.4359830000000  0.4738580000000 1.0
C      1  0.4870930000000  0.4335320000000  0.5181650000000 1.0
C      1  0.5222810000000  0.4319890000000  0.4991000000000 1.0
C      1  0.4983410000000  0.5656330000000  0.4850300000000 1.0
C      1  0.4782930000000  0.5720440000000  0.5176400000000 1.0
C      1  0.5444810000000  0.5591590000000  0.5149350000000 1.0
C      1  0.5351040000000  0.4748890000000  0.5743150000000 1.0
C      1  0.5589490000000  0.4703130000000  0.4294620000000 1.0
C      1  0.4143670000000  0.4705420000000  0.4902720000000 1.0
C      1  0.5340390000000  0.5305120000000  0.5748870000000 1.0
C      1  0.5552630000000  0.5246980000000  0.4312590000000 1.0
C      1  0.4083460000000  0.5261560000000  0.4910660000000 1.0
C      1  0.5121020000000  0.4881620000000  0.5868080000000 1.0
C      1  0.5848630000000  0.4833540000000  0.4381110000000 1.0
C      1  0.4083770000000  0.4833070000000  0.4639110000000 1.0
C      1  0.5117780000000  0.5161860000000  0.5873090000000 1.0
C      1  0.5819660000000  0.5125290000000  0.4398130000000 1.0
C      1  0.4063290000000  0.5122030000000  0.4637820000000 1.0
C      1  0.4430730000000  0.5556280000000  0.5384280000000 1.0
C      1  0.5592020000000  0.5340260000000  0.5304260000000 1.0
C      1  0.4922370000000  0.5451210000000  0.4412640000000 1.0
C      1  0.4434790000000  0.4502270000000  0.5328030000000 1.0
C      1  0.5587730000000  0.4492510000000  0.5166630000000 1.0
C      1  0.4948870000000  0.4652640000000  0.4362600000000 1.0
C      1  0.4802800000000  0.4860860000000  0.3895380000000 1.0
C      1  0.4149740000000  0.4850540000000  0.5700380000000 1.0
C      1  0.6065530000000  0.4841580000000  0.5388270000000 1.0
C      1  0.4803140000000  0.5153370000000  0.3893030000000 1.0
C      1  0.4140920000000  0.5147310000000  0.5700420000000 1.0
C      1  0.6080960000000  0.5137150000000  0.5385790000000 1.0
C      1  0.4824880000000  0.5692050000000  0.4118260000000 1.0
C      1  0.4185740000000  0.5758630000000  0.5669000000000 1.0
C      1  0.5914770000000  0.5710130000000  0.5309880000000 1.0
C      1  0.4840110000000  0.4346080000000  0.4149360000000 1.0
C      1  0.4244600000000  0.4248120000000  0.5637100000000 1.0
C      1  0.5891580000000  0.4283160000000  0.5313640000000 1.0
C      1  0.4518690000000  0.6056470000000  0.4736120000000 1.0
C      1  0.5002070000000  0.5993200000000  0.5503750000000 1.0
C      1  0.5469750000000  0.6062620000000  0.4771410000000 1.0
C      1  0.4550830000000  0.3948380000000  0.4746000000000 1.0
C      1  0.4999070000000  0.3988550000000  0.5532200000000 1.0
C      1  0.5467800000000  0.3944760000000  0.4760720000000 1.0
C      1  0.3821820000000  0.5246970000000  0.5041280000000 1.0
C      1  0.5575810000000  0.5277230000000  0.5916450000000 1.0
C      1  0.5534090000000  0.5243420000000  0.4024370000000 1.0
C      1  0.3892550000000  0.4702950000000  0.5046840000000 1.0
C      1  0.5568690000000  0.4752020000000  0.5939200000000 1.0
C      1  0.5535090000000  0.4756480000000  0.4015910000000 1.0
C      1  0.4702290000000  0.4815520000000  0.4342560000000 1.0
C      1  0.4540190000000  0.4668360000000  0.5530910000000 1.0
C      1  0.5733780000000  0.4790820000000  0.5094280000000 1.0
C      1  0.4732390000000  0.5190270000000  0.4328190000000 1.0
C      1  0.4529420000000  0.5343400000000  0.5537750000000 1.0
C      1  0.5739220000000  0.5164590000000  0.5099870000000 1.0
C      1  0.4576210000000  0.4742180000000  0.4070620000000 1.0
C      1  0.4397200000000  0.4703490000000  0.5785670000000 1.0
C      1  0.6035610000000  0.4722440000000  0.5112050000000 1.0
C      1  0.4578040000000  0.5262230000000  0.4070720000000 1.0
C      1  0.4384980000000  0.5301680000000  0.5790150000000 1.0
C      1  0.6035980000000  0.5252020000000  0.5107560000000 1.0
C      1  0.5530540000000  0.5725250000000  0.5632630000000 1.0
C      1  0.5283690000000  0.5670450000000  0.4296770000000 1.0
C      1  0.4125930000000  0.5725290000000  0.5120890000000 1.0
C      1  0.5514090000000  0.4304200000000  0.5602550000000 1.0
C      1  0.5324450000000  0.4296880000000  0.4225850000000 1.0
C      1  0.4169890000000  0.4236140000000  0.5097410000000 1.0
C      1  0.5385010000000  0.4816330000000  0.4485500000000 1.0
C      1  0.4377890000000  0.4866110000000  0.5039120000000 1.0
C      1  0.5386250000000  0.4884530000000  0.5463970000000 1.0
C      1  0.5329530000000  0.5094300000000  0.4458850000000 1.0
C      1  0.4329880000000  0.5144490000000  0.5062130000000 1.0
C      1  0.5371570000000  0.5181080000000  0.5454560000000 1.0
C      1  0.5521930000000  0.5954900000000  0.5439350000000 1.0
C      1  0.5110230000000  0.5867270000000  0.4445550000000 1.0
C      1  0.4327610000000  0.5946170000000  0.5202810000000 1.0
C      1  0.5475520000000  0.4103010000000  0.5393760000000 1.0
C      1  0.5166040000000  0.4084690000000  0.4363900000000 1.0
C      1  0.4402420000000  0.4075750000000  0.5207000000000 1.0
C      1  0.4903600000000  0.5111640000000  0.4744390000000 1.0
END
