TITL C-3578194-7807-340 -1.42204875642663e-06 125000 -689.261876286765 0 0 107 (D3) n - 1
REM
REM in /home/bkarasulu/work/CARBON/AIRSS/Generating-Clusters/EDIP-Nigel-Params/with-SteepDescent/Higher-Symm/SD-CG/HFTN-CG
REM
REM
REM
REM
REM
REM ./C.cell (12c818d87b63d06a65506943cc24bca4)
REM
REM compiler GCC version 9.2.1 20190827 (Red Hat 9.2.1-1)
REM options -cpp -mtune=generic -march=x86-64 -g -O0 -fpre-include=/usr/include/finclude/math-vector-fortran.h
REM seed -645418584 -1743445264 -1959934302 -1959702468 1846174555 1257968804 -127967418 521326716 -1641429111 -607766235 371552507 -772349838 1305882605 -53658545 -15212885 2027026642 1820060340 2009208923 -105787187 1715784474 117857612 -309149777 -319350901 1507595135 2100203210 683017990 1486017185 1586076781 -506237824 286094073 -457692031 1217317070 312436614
REM
CELL 1.54180   50.00000   50.00000   50.00000   90.00000   90.00000   90.00000
LATT -1
SFAC C  
C      1  0.5654250000000  0.4410860000000  0.4643970000000 1.0
C      1  0.5660980000000  0.4979500000000  0.5683900000000 1.0
C      1  0.5663020000000  0.5595780000000  0.4671450000000 1.0
C      1  0.4324660000000  0.4421430000000  0.5360190000000 1.0
C      1  0.4326250000000  0.4987720000000  0.4318960000000 1.0
C      1  0.4333270000000  0.5606280000000  0.5329990000000 1.0
C      1  0.4665800000000  0.5346100000000  0.5587140000000 1.0
C      1  0.4662850000000  0.5337540000000  0.4412360000000 1.0
C      1  0.4656880000000  0.4324450000000  0.5007180000000 1.0
C      1  0.5326700000000  0.5339910000000  0.4414890000000 1.0
C      1  0.5329550000000  0.5334000000000  0.5589690000000 1.0
C      1  0.5320650000000  0.4319570000000  0.4997200000000 1.0
C      1  0.4736530000000  0.4786160000000  0.5166040000000 1.0
C      1  0.4739810000000  0.5252150000000  0.5107090000000 1.0
C      1  0.4736800000000  0.4968110000000  0.4733000000000 1.0
C      1  0.5247770000000  0.4782030000000  0.4837280000000 1.0
C      1  0.5251340000000  0.5248150000000  0.4895160000000 1.0
C      1  0.5250180000000  0.4964960000000  0.5269900000000 1.0
C      1  0.4967440000000  0.4976650000000  0.5736900000000 1.0
C      1  0.4969710000000  0.5649250000000  0.4654380000000 1.0
C      1  0.4960260000000  0.4375500000000  0.4613160000000 1.0
C      1  0.5019680000000  0.4974580000000  0.4265980000000 1.0
C      1  0.5027290000000  0.5649630000000  0.5346950000000 1.0
C      1  0.5018050000000  0.4375960000000  0.5391100000000 1.0
C      1  0.4185710000000  0.5554300000000  0.5095720000000 1.0
C      1  0.4178760000000  0.4812140000000  0.4482590000000 1.0
C      1  0.4179920000000  0.4652230000000  0.5431910000000 1.0
C      1  0.5809810000000  0.5542170000000  0.4905840000000 1.0
C      1  0.5805880000000  0.4801390000000  0.5520680000000 1.0
C      1  0.5802360000000  0.4639340000000  0.4571720000000 1.0
C      1  0.4433370000000  0.4966040000000  0.4799860000000 1.0
C      1  0.4433340000000  0.4847800000000  0.5137440000000 1.0
C      1  0.4435750000000  0.5199260000000  0.5071050000000 1.0
C      1  0.5553550000000  0.4958290000000  0.5203040000000 1.0
C      1  0.5551840000000  0.4839290000000  0.4865740000000 1.0
C      1  0.5554580000000  0.5190900000000  0.4931320000000 1.0
C      1  0.5348500000000  0.4605340000000  0.4310330000000 1.0
C      1  0.5351810000000  0.4596040000000  0.5685370000000 1.0
C      1  0.5358920000000  0.5791490000000  0.5005880000000 1.0
C      1  0.4633230000000  0.4612180000000  0.5693390000000 1.0
C      1  0.4629760000000  0.4599770000000  0.4318370000000 1.0
C      1  0.4640210000000  0.5796750000000  0.4995120000000 1.0
C      1  0.4683670000000  0.4309130000000  0.4711710000000 1.0
C      1  0.4692000000000  0.5097640000000  0.5747870000000 1.0
C      1  0.4692740000000  0.5600720000000  0.4546890000000 1.0
C      1  0.5293640000000  0.4305320000000  0.5292700000000 1.0
C      1  0.5296860000000  0.5091490000000  0.4254730000000 1.0
C      1  0.5303520000000  0.5597280000000  0.5454560000000 1.0
C      1  0.4234050000000  0.5135690000000  0.5388510000000 1.0
C      1  0.4233370000000  0.5274540000000  0.4698210000000 1.0
C      1  0.4229030000000  0.4607320000000  0.4923120000000 1.0
C      1  0.5755330000000  0.5123650000000  0.4614010000000 1.0
C      1  0.5758050000000  0.5264050000000  0.5303990000000 1.0
C      1  0.5752600000000  0.4596320000000  0.5080610000000 1.0
C      1  0.5730830000000  0.5513230000000  0.5171520000000 1.0
C      1  0.5724480000000  0.4884600000000  0.4464740000000 1.0
C      1  0.5724500000000  0.4586830000000  0.5362560000000 1.0
C      1  0.4264250000000  0.5523590000000  0.4830110000000 1.0
C      1  0.4261390000000  0.4896560000000  0.5538330000000 1.0
C      1  0.4256990000000  0.4596770000000  0.4641190000000 1.0
C      1  0.5611280000000  0.5229280000000  0.5551610000000 1.0
C      1  0.5609690000000  0.5356770000000  0.4521790000000 1.0
C      1  0.5603670000000  0.4401210000000  0.4926300000000 1.0
C      1  0.4379610000000  0.5237050000000  0.4450680000000 1.0
C      1  0.4383100000000  0.5366870000000  0.5480200000000 1.0
C      1  0.4375090000000  0.4410390000000  0.5077880000000 1.0
C      1  0.5234360000000  0.5351460000000  0.5875280000000 1.0
C      1  0.5232060000000  0.5579350000000  0.4257950000000 1.0
C      1  0.5222450000000  0.4064790000000  0.4869270000000 1.0
C      1  0.4758280000000  0.5352940000000  0.4126740000000 1.0
C      1  0.4763950000000  0.5584490000000  0.5743540000000 1.0
C      1  0.4751330000000  0.4068550000000  0.5135690000000 1.0
C      1  0.5414410000000  0.4867770000000  0.5804740000000 1.0
C      1  0.5418250000000  0.5758470000000  0.4710260000000 1.0
C      1  0.5407480000000  0.4365310000000  0.4486130000000 1.0
C      1  0.4571160000000  0.4872110000000  0.4198380000000 1.0
C      1  0.4580400000000  0.5765280000000  0.5290810000000 1.0
C      1  0.4570740000000  0.4372630000000  0.5518130000000 1.0
C      1  0.4880240000000  0.5337440000000  0.5357220000000 1.0
C      1  0.4876770000000  0.5140850000000  0.4532660000000 1.0
C      1  0.4873690000000  0.4525070000000  0.5115210000000 1.0
C      1  0.5112160000000  0.5334920000000  0.4644830000000 1.0
C      1  0.5112760000000  0.5140190000000  0.5469840000000 1.0
C      1  0.5106800000000  0.4523100000000  0.4888700000000 1.0
C      1  0.4907380000000  0.5825920000000  0.4896070000000 1.0
C      1  0.4896260000000  0.4497040000000  0.4339950000000 1.0
C      1  0.4901110000000  0.4679860000000  0.5768890000000 1.0
C      1  0.5092200000000  0.5824800000000  0.5104860000000 1.0
C      1  0.5083840000000  0.4497180000000  0.5664020000000 1.0
C      1  0.5081640000000  0.4676770000000  0.4234670000000 1.0
C      1  0.4512720000000  0.4875180000000  0.5673560000000 1.0
C      1  0.4516200000000  0.5649160000000  0.4778490000000 1.0
C      1  0.4507130000000  0.4487050000000  0.4555740000000 1.0
C      1  0.5472860000000  0.4866600000000  0.4329560000000 1.0
C      1  0.5480750000000  0.5642600000000  0.5222860000000 1.0
C      1  0.5472780000000  0.4480990000000  0.5448270000000 1.0
C      1  0.5192790000000  0.5057330000000  0.5924160000000 1.0
C      1  0.5194490000000  0.5769090000000  0.4488630000000 1.0
C      1  0.5183000000000  0.4170050000000  0.4590000000000 1.0
C      1  0.4795530000000  0.5058130000000  0.4078530000000 1.0
C      1  0.4804300000000  0.5773130000000  0.5512430000000 1.0
C      1  0.4792320000000  0.4173860000000  0.5414720000000 1.0
C      1  0.4999660000000  0.5511580000000  0.5884750000000 1.0
C      1  0.4995300000000  0.5509590000000  0.4116900000000 1.0
C      1  0.4986250000000  0.3979620000000  0.5002580000000 1.0
C      1  0.4846310000000  0.5001340000000  0.5001770000000 1.0
C      1  0.5141170000000  0.4999180000000  0.5001050000000 1.0
END
