TITL C-3578198-8939-349 -1.6237165852117e-06 125000 -780.453909322432 0 0 125 (C1) n - 1
REM
REM in /home/bkarasulu/work/CARBON/AIRSS/Generating-Clusters/EDIP-Nigel-Params/with-SteepDescent/Higher-Symm/SD-CG/HFTN-CG
REM
REM
REM
REM
REM
REM ./C.cell (12c818d87b63d06a65506943cc24bca4)
REM
REM compiler GCC version 9.2.1 20190827 (Red Hat 9.2.1-1)
REM options -cpp -mtune=generic -march=x86-64 -g -O0 -fpre-include=/usr/include/finclude/math-vector-fortran.h
REM seed 731207813 1303073018 441829335 -637625800 -802725284 -1933192292 -1974934946 790229054 -1711758826 -1293421812 1757319171 -1923877564 -819126843 -1459775073 -1437291935 -566071517 1666980329 84949190 -914601820 1744067023 1714580696 1996533876 408984845 597215802 1160478516 -1186160775 -1112633731 -1461208073 1178237252 790516979 985804676 -441707408 -605523980
REM
CELL 1.54180   50.00000   50.00000   50.00000   90.00000   90.00000   90.00000
LATT -1
SFAC C  
C      1  0.4525930000000  0.5728520000000  0.5161690000000 1.0
C      1  0.4724740000000  0.5783190000000  0.5494180000000 1.0
C      1  0.4991580000000  0.5726870000000  0.5613770000000 1.0
C      1  0.5254360000000  0.5838890000000  0.5515520000000 1.0
C      1  0.5412570000000  0.5700620000000  0.5289280000000 1.0
C      1  0.5510020000000  0.5797380000000  0.5012390000000 1.0
C      1  0.5398550000000  0.5670120000000  0.4758060000000 1.0
C      1  0.5204380000000  0.5775650000000  0.4550050000000 1.0
C      1  0.4927670000000  0.5651340000000  0.4541420000000 1.0
C      1  0.4661020000000  0.5756750000000  0.4637250000000 1.0
C      1  0.4540850000000  0.5632310000000  0.4881650000000 1.0
C      1  0.4776450000000  0.5208020000000  0.5262110000000 1.0
C      1  0.4946680000000  0.5086860000000  0.5446820000000 1.0
C      1  0.5107360000000  0.4857690000000  0.5465210000000 1.0
C      1  0.5286610000000  0.4816450000000  0.5259340000000 1.0
C      1  0.5385170000000  0.4657380000000  0.5053800000000 1.0
C      1  0.5289400000000  0.4770850000000  0.4808460000000 1.0
C      1  0.5173590000000  0.4627140000000  0.4582200000000 1.0
C      1  0.4951410000000  0.4788840000000  0.4515240000000 1.0
C      1  0.4925560000000  0.5034230000000  0.4658070000000 1.0
C      1  0.4684860000000  0.5117980000000  0.4778640000000 1.0
C      1  0.4638840000000  0.5061490000000  0.5052800000000 1.0
C      1  0.4877270000000  0.5369470000000  0.4128070000000 1.0
C      1  0.4442480000000  0.5345350000000  0.4383290000000 1.0
C      1  0.4191780000000  0.5280460000000  0.4812060000000 1.0
C      1  0.4234020000000  0.5332300000000  0.5324030000000 1.0
C      1  0.4528360000000  0.5406710000000  0.5729450000000 1.0
C      1  0.4971310000000  0.5462070000000  0.5970860000000 1.0
C      1  0.5444500000000  0.5484940000000  0.5849670000000 1.0
C      1  0.5756600000000  0.5418660000000  0.5483940000000 1.0
C      1  0.5856920000000  0.5409150000000  0.5008880000000 1.0
C      1  0.5738970000000  0.5382480000000  0.4536740000000 1.0
C      1  0.5360740000000  0.5396780000000  0.4220440000000 1.0
C      1  0.4378120000000  0.5226830000000  0.5557360000000 1.0
C      1  0.4756100000000  0.5295420000000  0.5874410000000 1.0
C      1  0.5235790000000  0.5328330000000  0.5999310000000 1.0
C      1  0.5606100000000  0.5303680000000  0.5695750000000 1.0
C      1  0.5818920000000  0.5263800000000  0.5254720000000 1.0
C      1  0.5838100000000  0.5244340000000  0.4770030000000 1.0
C      1  0.5566180000000  0.5242490000000  0.4356340000000 1.0
C      1  0.5137390000000  0.5237340000000  0.4119640000000 1.0
C      1  0.4645390000000  0.5217890000000  0.4213710000000 1.0
C      1  0.4297120000000  0.5156900000000  0.4566640000000 1.0
C      1  0.4206430000000  0.5147580000000  0.5084580000000 1.0
C      1  0.4892560000000  0.5611360000000  0.4263130000000 1.0
C      1  0.4471440000000  0.5629630000000  0.4442070000000 1.0
C      1  0.4284380000000  0.5541460000000  0.4816880000000 1.0
C      1  0.4289310000000  0.5603330000000  0.5271270000000 1.0
C      1  0.4523330000000  0.5683530000000  0.5677270000000 1.0
C      1  0.4973530000000  0.5729560000000  0.5894480000000 1.0
C      1  0.5413790000000  0.5759600000000  0.5756300000000 1.0
C      1  0.5664610000000  0.5672260000000  0.5422470000000 1.0
C      1  0.5789470000000  0.5690450000000  0.4999730000000 1.0
C      1  0.5635180000000  0.5630600000000  0.4604660000000 1.0
C      1  0.5316160000000  0.5672120000000  0.4294300000000 1.0
C      1  0.4288790000000  0.4742860000000  0.5427600000000 1.0
C      1  0.4637240000000  0.4827400000000  0.5741240000000 1.0
C      1  0.5089210000000  0.4970690000000  0.6005170000000 1.0
C      1  0.5565830000000  0.5020350000000  0.5722280000000 1.0
C      1  0.5836770000000  0.4978050000000  0.5283520000000 1.0
C      1  0.5821500000000  0.4953110000000  0.4780040000000 1.0
C      1  0.5607980000000  0.4958090000000  0.4320280000000 1.0
C      1  0.5147200000000  0.4943200000000  0.4115320000000 1.0
C      1  0.4642560000000  0.4932640000000  0.4161440000000 1.0
C      1  0.4297400000000  0.4861870000000  0.4535730000000 1.0
C      1  0.4035200000000  0.4833430000000  0.4957480000000 1.0
C      1  0.5851750000000  0.4811990000000  0.5038550000000 1.0
C      1  0.5749440000000  0.4805050000000  0.4534170000000 1.0
C      1  0.5397190000000  0.4796440000000  0.4186180000000 1.0
C      1  0.4893180000000  0.4790170000000  0.4076740000000 1.0
C      1  0.4466500000000  0.4756050000000  0.4317700000000 1.0
C      1  0.4174830000000  0.4696310000000  0.4747590000000 1.0
C      1  0.4081410000000  0.4811210000000  0.5238970000000 1.0
C      1  0.4407260000000  0.4941060000000  0.5600500000000 1.0
C      1  0.4829720000000  0.5016170000000  0.5869700000000 1.0
C      1  0.5371860000000  0.4969490000000  0.5938440000000 1.0
C      1  0.5698210000000  0.4844720000000  0.5511430000000 1.0
C      1  0.4187820000000  0.4410620000000  0.4797160000000 1.0
C      1  0.4063110000000  0.4299580000000  0.5019760000000 1.0
C      1  0.4434730000000  0.4495860000000  0.5477400000000 1.0
C      1  0.4653850000000  0.4543650000000  0.5657180000000 1.0
C      1  0.5099950000000  0.4673680000000  0.5686100000000 1.0
C      1  0.5653510000000  0.4561040000000  0.5409040000000 1.0
C      1  0.5669960000000  0.4573990000000  0.5105600000000 1.0
C      1  0.5610950000000  0.4543090000000  0.4544680000000 1.0
C      1  0.5368420000000  0.4551220000000  0.4368910000000 1.0
C      1  0.4856200000000  0.4512260000000  0.4183590000000 1.0
C      1  0.4587880000000  0.4491850000000  0.4288220000000 1.0
C      1  0.4682090000000  0.6058830000000  0.4671550000000 1.0
C      1  0.4618950000000  0.6148440000000  0.4927270000000 1.0
C      1  0.4546450000000  0.6029240000000  0.5169290000000 1.0
C      1  0.4707570000000  0.6072810000000  0.5411200000000 1.0
C      1  0.4954710000000  0.6203150000000  0.5397170000000 1.0
C      1  0.5220670000000  0.6130700000000  0.5437910000000 1.0
C      1  0.5393010000000  0.6207590000000  0.5233810000000 1.0
C      1  0.5481670000000  0.6096130000000  0.4995340000000 1.0
C      1  0.5355170000000  0.6180250000000  0.4762730000000 1.0
C      1  0.5184310000000  0.6074080000000  0.4571150000000 1.0
C      1  0.4920670000000  0.6161160000000  0.4572160000000 1.0
C      1  0.5462900000000  0.4089960000000  0.4684730000000 1.0
C      1  0.5310110000000  0.4060090000000  0.4442050000000 1.0
C      1  0.4947470000000  0.4031990000000  0.4345300000000 1.0
C      1  0.4692820000000  0.4025920000000  0.4476800000000 1.0
C      1  0.4430730000000  0.3960030000000  0.4749300000000 1.0
C      1  0.4416210000000  0.3937570000000  0.5034800000000 1.0
C      1  0.4636670000000  0.4053790000000  0.5327920000000 1.0
C      1  0.4880190000000  0.4127180000000  0.5463130000000 1.0
C      1  0.5125050000000  0.4028270000000  0.5372160000000 1.0
C      1  0.5370650000000  0.4145890000000  0.5313990000000 1.0
C      1  0.5511280000000  0.4105450000000  0.5062040000000 1.0
C      1  0.5019110000000  0.4261640000000  0.4172300000000 1.0
C      1  0.4541640000000  0.4270780000000  0.4458350000000 1.0
C      1  0.4330210000000  0.4216790000000  0.4640220000000 1.0
C      1  0.4229910000000  0.4126000000000  0.5167390000000 1.0
C      1  0.4414650000000  0.4232710000000  0.5362940000000 1.0
C      1  0.4884640000000  0.4350440000000  0.5663480000000 1.0
C      1  0.5257440000000  0.4438100000000  0.5702580000000 1.0
C      1  0.5434760000000  0.4373880000000  0.5485300000000 1.0
C      1  0.5717810000000  0.4299920000000  0.4982210000000 1.0
C      1  0.5670470000000  0.4292490000000  0.4692420000000 1.0
C      1  0.5302070000000  0.4280650000000  0.4246840000000 1.0
C      1  0.4801680000000  0.4599320000000  0.5037460000000 1.0
C      1  0.4839780000000  0.4358540000000  0.4957280000000 1.0
C      1  0.4885350000000  0.4869540000000  0.5086630000000 1.0
C      1  0.5092510000000  0.4971840000000  0.4889520000000 1.0
END
