TITL C-3578206-1180-3 5.72976575645591e-05 125000 -318.71317590084 0 0 54 (C1) n - 1
REM
REM in /home/bkarasulu/work/CARBON/AIRSS/Generating-Clusters/EDIP-Nigel-Params/with-SteepDescent/Higher-Symm/SD-CG/HFTN-CG
REM
REM
REM
REM
REM
REM ./C.cell (12c818d87b63d06a65506943cc24bca4)
REM
REM compiler GCC version 9.2.1 20190827 (Red Hat 9.2.1-1)
REM options -cpp -mtune=generic -march=x86-64 -g -O0 -fpre-include=/usr/include/finclude/math-vector-fortran.h
REM seed 1043958685 -418912138 1435016999 -189501372 540318811 1984431293 1110715140 -846117338 -2000602469 710827603 1531849218 -2126389636 -907843821 2090573950 580247377 -1250811183 254416405 1471935512 915417952 1212546458 -233384762 -811373926 963895865 1784365341 2007692249 1867699121 373552698 -289162676 -181032444 -198256404 170215098 -1391188642 216994678
REM
CELL 1.54180   50.00000   50.00000   50.00000   90.00000   90.00000   90.00000
LATT -1
SFAC C  
C      1  0.4587530000000  0.5321930000000  0.4857020000000 1.0
C      1  0.4495990000000  0.5285300000000  0.5485820000000 1.0
C      1  0.5185160000000  0.5328810000000  0.5490160000000 1.0
C      1  0.5567120000000  0.5340790000000  0.4782400000000 1.0
C      1  0.5150170000000  0.5326570000000  0.4309380000000 1.0
C      1  0.4546500000000  0.4764420000000  0.4863210000000 1.0
C      1  0.4679030000000  0.4691880000000  0.5460540000000 1.0
C      1  0.5295940000000  0.4727400000000  0.5464010000000 1.0
C      1  0.5512800000000  0.4737610000000  0.4808960000000 1.0
C      1  0.4976580000000  0.4723930000000  0.4423790000000 1.0
C      1  0.4940990000000  0.5231320000000  0.4479570000000 1.0
C      1  0.4806040000000  0.5193420000000  0.4975830000000 1.0
C      1  0.4769740000000  0.5189850000000  0.5499900000000 1.0
C      1  0.5236670000000  0.5177410000000  0.5242490000000 1.0
C      1  0.5327440000000  0.5196200000000  0.4689630000000 1.0
C      1  0.4488870000000  0.5109320000000  0.4444090000000 1.0
C      1  0.4195780000000  0.4952940000000  0.5356540000000 1.0
C      1  0.5082000000000  0.5010530000000  0.5825650000000 1.0
C      1  0.5715560000000  0.5021930000000  0.5085700000000 1.0
C      1  0.5327730000000  0.4909090000000  0.4230580000000 1.0
C      1  0.5667330000000  0.4907210000000  0.4621930000000 1.0
C      1  0.4937120000000  0.4909600000000  0.4178130000000 1.0
C      1  0.4307050000000  0.4933060000000  0.4846170000000 1.0
C      1  0.4581440000000  0.4875770000000  0.5675880000000 1.0
C      1  0.5481230000000  0.4953630000000  0.5541880000000 1.0
C      1  0.4811670000000  0.4925660000000  0.5323900000000 1.0
C      1  0.5112450000000  0.4897180000000  0.5284160000000 1.0
C      1  0.5278600000000  0.4917000000000  0.4869080000000 1.0
C      1  0.4980110000000  0.4950730000000  0.4618470000000 1.0
C      1  0.4813920000000  0.4914450000000  0.4876890000000 1.0
C      1  0.4906900000000  0.4463370000000  0.4498900000000 1.0
C      1  0.4518660000000  0.4497800000000  0.4950490000000 1.0
C      1  0.4810800000000  0.4446560000000  0.5487180000000 1.0
C      1  0.5406990000000  0.4491800000000  0.5357420000000 1.0
C      1  0.5467640000000  0.4467420000000  0.4741830000000 1.0
C      1  0.5168490000000  0.5111940000000  0.4119860000000 1.0
C      1  0.4397150000000  0.5178230000000  0.4702090000000 1.0
C      1  0.4355880000000  0.5051620000000  0.5561000000000 1.0
C      1  0.5288800000000  0.5141190000000  0.5684720000000 1.0
C      1  0.5741750000000  0.5118780000000  0.4822550000000 1.0
C      1  0.5541240000000  0.5115910000000  0.5285250000000 1.0
C      1  0.5471720000000  0.5049970000000  0.4440470000000 1.0
C      1  0.4728140000000  0.5133210000000  0.4300270000000 1.0
C      1  0.4171620000000  0.4967870000000  0.5089940000000 1.0
C      1  0.4812790000000  0.5073290000000  0.5777550000000 1.0
C      1  0.5212090000000  0.4399190000000  0.5176580000000 1.0
C      1  0.5234060000000  0.4402610000000  0.4884060000000 1.0
C      1  0.4970230000000  0.4414070000000  0.4766980000000 1.0
C      1  0.4781560000000  0.4408430000000  0.4983110000000 1.0
C      1  0.4926390000000  0.4401930000000  0.5234600000000 1.0
C      1  0.5123340000000  0.5837530000000  0.5000820000000 1.0
C      1  0.5037650000000  0.4763590000000  0.5025360000000 1.0
C      1  0.5088770000000  0.5583680000000  0.5000260000000 1.0
C      1  0.5091190000000  0.5302660000000  0.4985430000000 1.0
END
