TITL C-3578200-9634-162 -2.36042071157751e-06 125000 -1013.03161063138 0 0 160 (C1) n - 1
REM
REM in /home/bkarasulu/work/CARBON/AIRSS/Generating-Clusters/EDIP-Nigel-Params/with-SteepDescent/Higher-Symm/SD-CG/HFTN-CG
REM
REM
REM
REM
REM
REM ./C.cell (12c818d87b63d06a65506943cc24bca4)
REM
REM compiler GCC version 9.2.1 20190827 (Red Hat 9.2.1-1)
REM options -cpp -mtune=generic -march=x86-64 -g -O0 -fpre-include=/usr/include/finclude/math-vector-fortran.h
REM seed -1627922889 1759651950 -331994372 -136906152 -1224504371 1910878636 -1675435494 431742120 -517186809 408644358 -490746393 388807029 -587868659 247171059 864911394 154281715 667640058 -1225144249 1209862715 1637727641 -1374637184 1116690106 -284182973 1147712921 -673772335 -1288764673 1953986466 817153096 -1275388752 160119129 -328841826 -764395276 2121972675
REM
CELL 1.54180   50.00000   50.00000   50.00000   90.00000   90.00000   90.00000
LATT -1
SFAC C  
C      1  0.5772190000000  0.4611690000000  0.5562440000000 1.0
C      1  0.5791170000000  0.4588370000000  0.4413360000000 1.0
C      1  0.4714690000000  0.5550230000000  0.5310540000000 1.0
C      1  0.4708140000000  0.5532870000000  0.4698990000000 1.0
C      1  0.5551250000000  0.4451280000000  0.4343090000000 1.0
C      1  0.5571750000000  0.4438950000000  0.5665740000000 1.0
C      1  0.4680690000000  0.4926320000000  0.4699710000000 1.0
C      1  0.4660390000000  0.4938880000000  0.5316880000000 1.0
C      1  0.5164880000000  0.5346890000000  0.5535510000000 1.0
C      1  0.5158660000000  0.5331950000000  0.4496100000000 1.0
C      1  0.5937630000000  0.5233150000000  0.5378010000000 1.0
C      1  0.5926010000000  0.5220450000000  0.4623050000000 1.0
C      1  0.5663220000000  0.5505660000000  0.5170560000000 1.0
C      1  0.5683910000000  0.5513920000000  0.4844880000000 1.0
C      1  0.5796940000000  0.4291450000000  0.5143460000000 1.0
C      1  0.5824050000000  0.4279730000000  0.4849780000000 1.0
C      1  0.5584260000000  0.5537890000000  0.4390040000000 1.0
C      1  0.5598790000000  0.5553800000000  0.5608380000000 1.0
C      1  0.4448650000000  0.4718060000000  0.5279060000000 1.0
C      1  0.4606590000000  0.4629900000000  0.4716360000000 1.0
C      1  0.5194530000000  0.5811190000000  0.5563770000000 1.0
C      1  0.5190620000000  0.5800460000000  0.4447220000000 1.0
C      1  0.5195490000000  0.4160710000000  0.4445340000000 1.0
C      1  0.5143930000000  0.4191790000000  0.5581010000000 1.0
C      1  0.4827280000000  0.4967400000000  0.4375800000000 1.0
C      1  0.4863950000000  0.4944130000000  0.5615350000000 1.0
C      1  0.4185270000000  0.5761120000000  0.4818220000000 1.0
C      1  0.4172610000000  0.5772990000000  0.5118320000000 1.0
C      1  0.4638280000000  0.5987740000000  0.5133040000000 1.0
C      1  0.4627610000000  0.6033590000000  0.4844600000000 1.0
C      1  0.4211890000000  0.5347590000000  0.5562530000000 1.0
C      1  0.4201880000000  0.5353290000000  0.4433980000000 1.0
C      1  0.4085990000000  0.4445460000000  0.5116590000000 1.0
C      1  0.4121000000000  0.4519400000000  0.4813520000000 1.0
C      1  0.5248810000000  0.5654200000000  0.4865420000000 1.0
C      1  0.5244410000000  0.5654650000000  0.5149830000000 1.0
C      1  0.5957770000000  0.5447550000000  0.5186740000000 1.0
C      1  0.5968530000000  0.5441540000000  0.4804500000000 1.0
C      1  0.4002400000000  0.5007280000000  0.4712230000000 1.0
C      1  0.3997810000000  0.5004290000000  0.5304560000000 1.0
C      1  0.5654750000000  0.5080390000000  0.5762100000000 1.0
C      1  0.5629010000000  0.5059760000000  0.4247260000000 1.0
C      1  0.5052130000000  0.4768310000000  0.6087290000000 1.0
C      1  0.5018750000000  0.4753300000000  0.3906790000000 1.0
C      1  0.5432860000000  0.4935640000000  0.4785870000000 1.0
C      1  0.5376590000000  0.4904880000000  0.5303430000000 1.0
C      1  0.5279620000000  0.5543760000000  0.4330910000000 1.0
C      1  0.5296900000000  0.5561260000000  0.5684740000000 1.0
C      1  0.4160270000000  0.4849910000000  0.5737160000000 1.0
C      1  0.4164810000000  0.4846030000000  0.4274500000000 1.0
C      1  0.4867300000000  0.4672260000000  0.4354120000000 1.0
C      1  0.4842710000000  0.4622300000000  0.5646710000000 1.0
C      1  0.4676060000000  0.4046870000000  0.4705240000000 1.0
C      1  0.4683450000000  0.4062330000000  0.5269960000000 1.0
C      1  0.4871300000000  0.4539030000000  0.4091820000000 1.0
C      1  0.4914780000000  0.4530000000000  0.5935070000000 1.0
C      1  0.4939720000000  0.4382720000000  0.5432620000000 1.0
C      1  0.4835960000000  0.4491450000000  0.4586060000000 1.0
C      1  0.4127780000000  0.5062720000000  0.4450770000000 1.0
C      1  0.4122700000000  0.5064110000000  0.5561130000000 1.0
C      1  0.5098110000000  0.4328250000000  0.4193200000000 1.0
C      1  0.5136560000000  0.4335170000000  0.5857730000000 1.0
C      1  0.5413050000000  0.4434250000000  0.4846950000000 1.0
C      1  0.5368880000000  0.4410680000000  0.5158700000000 1.0
C      1  0.4160630000000  0.4788220000000  0.5164130000000 1.0
C      1  0.4152060000000  0.4805690000000  0.4863830000000 1.0
C      1  0.5413730000000  0.5206610000000  0.5178820000000 1.0
C      1  0.5439120000000  0.5219510000000  0.4882740000000 1.0
C      1  0.5904190000000  0.5004510000000  0.4815880000000 1.0
C      1  0.5931710000000  0.5005960000000  0.5199370000000 1.0
C      1  0.5293390000000  0.4749400000000  0.4017480000000 1.0
C      1  0.5325580000000  0.4768730000000  0.5981340000000 1.0
C      1  0.5139920000000  0.6085090000000  0.4865210000000 1.0
C      1  0.5138410000000  0.6086290000000  0.5166440000000 1.0
C      1  0.5158520000000  0.3997680000000  0.4698960000000 1.0
C      1  0.5157190000000  0.3935320000000  0.5300780000000 1.0
C      1  0.4381000000000  0.4421580000000  0.4683140000000 1.0
C      1  0.4368850000000  0.4417610000000  0.5291810000000 1.0
C      1  0.4718390000000  0.5088000000000  0.4095470000000 1.0
C      1  0.4745570000000  0.5092280000000  0.5880480000000 1.0
C      1  0.4666540000000  0.4140970000000  0.5540720000000 1.0
C      1  0.4716570000000  0.4217780000000  0.4469760000000 1.0
C      1  0.5398090000000  0.3993080000000  0.4861000000000 1.0
C      1  0.5401520000000  0.3968630000000  0.5148350000000 1.0
C      1  0.5627830000000  0.4092370000000  0.5292780000000 1.0
C      1  0.5610530000000  0.4121760000000  0.4713060000000 1.0
C      1  0.4860020000000  0.5591360000000  0.5918460000000 1.0
C      1  0.4834210000000  0.5583270000000  0.4082290000000 1.0
C      1  0.5355700000000  0.4524230000000  0.5832610000000 1.0
C      1  0.5341100000000  0.4494660000000  0.4150230000000 1.0
C      1  0.4446100000000  0.4325600000000  0.5582040000000 1.0
C      1  0.4448020000000  0.4316640000000  0.4365720000000 1.0
C      1  0.5172690000000  0.4849860000000  0.4685810000000 1.0
C      1  0.5104080000000  0.4769060000000  0.5280910000000 1.0
C      1  0.5189690000000  0.5381030000000  0.4775650000000 1.0
C      1  0.5179550000000  0.5387360000000  0.5256000000000 1.0
C      1  0.5363500000000  0.5037110000000  0.5852300000000 1.0
C      1  0.5333820000000  0.5012140000000  0.4164220000000 1.0
C      1  0.4871750000000  0.6042460000000  0.5301680000000 1.0
C      1  0.4885320000000  0.6055190000000  0.4706640000000 1.0
C      1  0.4945340000000  0.5049330000000  0.3901930000000 1.0
C      1  0.4961070000000  0.5058330000000  0.6088670000000 1.0
C      1  0.4903340000000  0.5822940000000  0.5515070000000 1.0
C      1  0.4906680000000  0.5816890000000  0.4521570000000 1.0
C      1  0.5449640000000  0.4236000000000  0.5499690000000 1.0
C      1  0.5480340000000  0.4213900000000  0.4469050000000 1.0
C      1  0.5800770000000  0.4849850000000  0.5703800000000 1.0
C      1  0.5793110000000  0.4838440000000  0.4292440000000 1.0
C      1  0.5081820000000  0.4503200000000  0.5164890000000 1.0
C      1  0.5114870000000  0.4536500000000  0.4774220000000 1.0
C      1  0.5904300000000  0.4529330000000  0.5301340000000 1.0
C      1  0.5895860000000  0.4531600000000  0.4697610000000 1.0
C      1  0.4920190000000  0.4008240000000  0.4855660000000 1.0
C      1  0.4917710000000  0.3955210000000  0.5142540000000 1.0
C      1  0.5597690000000  0.4705720000000  0.4878350000000 1.0
C      1  0.5555640000000  0.4663400000000  0.5182390000000 1.0
C      1  0.4154650000000  0.5464800000000  0.5289500000000 1.0
C      1  0.4149520000000  0.5467390000000  0.4709720000000 1.0
C      1  0.6044990000000  0.4745440000000  0.5148060000000 1.0
C      1  0.6033790000000  0.4749940000000  0.4849600000000 1.0
C      1  0.4487480000000  0.5753720000000  0.4391540000000 1.0
C      1  0.4465390000000  0.5749910000000  0.5534690000000 1.0
C      1  0.4518000000000  0.4501630000000  0.4145240000000 1.0
C      1  0.4560690000000  0.4535020000000  0.5767250000000 1.0
C      1  0.5618300000000  0.5737160000000  0.5369340000000 1.0
C      1  0.5616440000000  0.5718860000000  0.4627510000000 1.0
C      1  0.5154690000000  0.5510880000000  0.5951300000000 1.0
C      1  0.5137370000000  0.5494040000000  0.4065120000000 1.0
C      1  0.4902000000000  0.5355890000000  0.5163390000000 1.0
C      1  0.4908260000000  0.5369890000000  0.4866680000000 1.0
C      1  0.4454160000000  0.5466960000000  0.4340760000000 1.0
C      1  0.4452520000000  0.5483840000000  0.5656200000000 1.0
C      1  0.4523120000000  0.4953400000000  0.5984870000000 1.0
C      1  0.4500710000000  0.4940870000000  0.3986600000000 1.0
C      1  0.4904020000000  0.4913270000000  0.5146630000000 1.0
C      1  0.4933600000000  0.4929950000000  0.4853410000000 1.0
C      1  0.5131950000000  0.5042650000000  0.4417440000000 1.0
C      1  0.5182220000000  0.5056000000000  0.5599020000000 1.0
C      1  0.4451840000000  0.5434240000000  0.5166950000000 1.0
C      1  0.4444790000000  0.5402930000000  0.4804940000000 1.0
C      1  0.4410770000000  0.5865090000000  0.5269040000000 1.0
C      1  0.4455650000000  0.5833100000000  0.4693950000000 1.0
C      1  0.4351840000000  0.4740060000000  0.4098010000000 1.0
C      1  0.4380530000000  0.4751190000000  0.5871170000000 1.0
C      1  0.4538250000000  0.4250200000000  0.5118980000000 1.0
C      1  0.4467730000000  0.4190260000000  0.4849080000000 1.0
C      1  0.3978760000000  0.5265460000000  0.4857240000000 1.0
C      1  0.3983970000000  0.5260580000000  0.5153510000000 1.0
C      1  0.5691880000000  0.5267200000000  0.4440870000000 1.0
C      1  0.5706140000000  0.5281700000000  0.5560210000000 1.0
C      1  0.5340160000000  0.5871740000000  0.5318090000000 1.0
C      1  0.5350570000000  0.5860230000000  0.4685400000000 1.0
C      1  0.5191050000000  0.5210580000000  0.3970240000000 1.0
C      1  0.5207900000000  0.5227590000000  0.6045280000000 1.0
C      1  0.4751180000000  0.5817990000000  0.4268680000000 1.0
C      1  0.4810490000000  0.5844580000000  0.5791090000000 1.0
C      1  0.4482860000000  0.5099280000000  0.4856100000000 1.0
C      1  0.4515600000000  0.5138040000000  0.5150950000000 1.0
C      1  0.4670380000000  0.5384120000000  0.5834100000000 1.0
C      1  0.4632520000000  0.5373290000000  0.4128290000000 1.0
END
