TITL C-3578195-8548-188 -2.50699215771833e-06 125000 -852.767868907124 0 0 134 (C1) n - 1
REM
REM in /home/bkarasulu/work/CARBON/AIRSS/Generating-Clusters/EDIP-Nigel-Params/with-SteepDescent/Higher-Symm/SD-CG/HFTN-CG
REM
REM
REM
REM
REM
REM ./C.cell (12c818d87b63d06a65506943cc24bca4)
REM
REM compiler GCC version 9.2.1 20190827 (Red Hat 9.2.1-1)
REM options -cpp -mtune=generic -march=x86-64 -g -O0 -fpre-include=/usr/include/finclude/math-vector-fortran.h
REM seed 1702495220 -800015277 -733552383 -1240249653 -79361122 -1178104604 75125379 -141916325 46230635 -463449242 -1591104650 345656 -388199244 785953462 -884334498 -1767897771 -407485413 729787195 865934031 -659036168 -1672347669 -686430809 84333348 1693334934 407546789 -1088386767 1311202286 -442789321 -683270320 -38769640 -550515487 854388147 2051152318
REM
CELL 1.54180   50.00000   50.00000   50.00000   90.00000   90.00000   90.00000
LATT -1
SFAC C  
C      1  0.5209250000000  0.5767760000000  0.5656280000000 1.0
C      1  0.5726270000000  0.5261050000000  0.5664550000000 1.0
C      1  0.5545790000000  0.4471640000000  0.5686340000000 1.0
C      1  0.4815380000000  0.4241800000000  0.5680630000000 1.0
C      1  0.4286260000000  0.4757060000000  0.5657550000000 1.0
C      1  0.4467520000000  0.5488270000000  0.5667420000000 1.0
C      1  0.5180230000000  0.4244280000000  0.4355220000000 1.0
C      1  0.5733250000000  0.4765350000000  0.4321880000000 1.0
C      1  0.5487470000000  0.5476120000000  0.4317070000000 1.0
C      1  0.4789380000000  0.5815040000000  0.4344210000000 1.0
C      1  0.4312860000000  0.5266830000000  0.4303580000000 1.0
C      1  0.4474320000000  0.4481890000000  0.4312810000000 1.0
C      1  0.5777540000000  0.5150860000000  0.4565460000000 1.0
C      1  0.5501230000000  0.4419570000000  0.4630040000000 1.0
C      1  0.4739440000000  0.4259520000000  0.4613200000000 1.0
C      1  0.4247200000000  0.4870210000000  0.4560740000000 1.0
C      1  0.4458930000000  0.5636180000000  0.4600880000000 1.0
C      1  0.5236930000000  0.5729350000000  0.4604600000000 1.0
C      1  0.5721920000000  0.4867800000000  0.5395470000000 1.0
C      1  0.5542480000000  0.5617140000000  0.5380280000000 1.0
C      1  0.4763800000000  0.5712710000000  0.5381130000000 1.0
C      1  0.4253240000000  0.5125870000000  0.5383720000000 1.0
C      1  0.4480930000000  0.4383530000000  0.5395050000000 1.0
C      1  0.5260320000000  0.4233050000000  0.5419800000000 1.0
C      1  0.5150030000000  0.5921400000000  0.4819980000000 1.0
C      1  0.5873000000000  0.5345590000000  0.4773510000000 1.0
C      1  0.5718370000000  0.4416140000000  0.4838740000000 1.0
C      1  0.4843580000000  0.4075840000000  0.4831100000000 1.0
C      1  0.4132800000000  0.4682790000000  0.4774020000000 1.0
C      1  0.4255240000000  0.5601920000000  0.4823830000000 1.0
C      1  0.5148040000000  0.4058700000000  0.5198880000000 1.0
C      1  0.5851530000000  0.4678790000000  0.5201000000000 1.0
C      1  0.5742140000000  0.5596800000000  0.5152410000000 1.0
C      1  0.4860160000000  0.5915070000000  0.5182180000000 1.0
C      1  0.4133380000000  0.5317480000000  0.5187270000000 1.0
C      1  0.4274620000000  0.4399610000000  0.5166910000000 1.0
C      1  0.4848830000000  0.4151730000000  0.5182860000000 1.0
C      1  0.4212130000000  0.4703300000000  0.5153170000000 1.0
C      1  0.4362270000000  0.5514380000000  0.5151800000000 1.0
C      1  0.5164060000000  0.5826510000000  0.5148310000000 1.0
C      1  0.5787970000000  0.5286180000000  0.5145100000000 1.0
C      1  0.5632340000000  0.4460320000000  0.5167720000000 1.0
C      1  0.4840790000000  0.5829080000000  0.4845940000000 1.0
C      1  0.4198800000000  0.5291710000000  0.4807350000000 1.0
C      1  0.4353270000000  0.4476540000000  0.4808800000000 1.0
C      1  0.5140120000000  0.4182220000000  0.4855490000000 1.0
C      1  0.5792080000000  0.4725420000000  0.4849680000000 1.0
C      1  0.5639610000000  0.5534620000000  0.4812220000000 1.0
C      1  0.5686230000000  0.5248590000000  0.4289510000000 1.0
C      1  0.5591890000000  0.4501280000000  0.4352240000000 1.0
C      1  0.4880970000000  0.4230550000000  0.4348370000000 1.0
C      1  0.4344440000000  0.4750490000000  0.4291150000000 1.0
C      1  0.4366820000000  0.5558780000000  0.4324240000000 1.0
C      1  0.5093780000000  0.5768540000000  0.4339350000000 1.0
C      1  0.5650770000000  0.4756430000000  0.5668960000000 1.0
C      1  0.5648530000000  0.5544840000000  0.5654320000000 1.0
C      1  0.4909680000000  0.5704700000000  0.5650570000000 1.0
C      1  0.4306290000000  0.5237920000000  0.5660060000000 1.0
C      1  0.4393730000000  0.4478810000000  0.5667610000000 1.0
C      1  0.5124280000000  0.4219730000000  0.5690030000000 1.0
C      1  0.4738400000000  0.4423220000000  0.4176340000000 1.0
C      1  0.4527540000000  0.4980900000000  0.4192160000000 1.0
C      1  0.4607320000000  0.5646260000000  0.4170850000000 1.0
C      1  0.5220030000000  0.5552460000000  0.4170700000000 1.0
C      1  0.5610320000000  0.4990100000000  0.4153190000000 1.0
C      1  0.5349780000000  0.4434270000000  0.4191300000000 1.0
C      1  0.4743440000000  0.5482680000000  0.5802370000000 1.0
C      1  0.4379850000000  0.4992940000000  0.5824570000000 1.0
C      1  0.4637970000000  0.4439390000000  0.5836150000000 1.0
C      1  0.5286570000000  0.4420880000000  0.5843540000000 1.0
C      1  0.5554640000000  0.4980090000000  0.5852650000000 1.0
C      1  0.5396360000000  0.5587910000000  0.5815100000000 1.0
C      1  0.4861870000000  0.5526630000000  0.4821290000000 1.0
C      1  0.5413160000000  0.5320270000000  0.4843990000000 1.0
C      1  0.5517730000000  0.4852070000000  0.4826770000000 1.0
C      1  0.5062400000000  0.4490250000000  0.4887090000000 1.0
C      1  0.4585920000000  0.4688050000000  0.4842600000000 1.0
C      1  0.4501640000000  0.5210940000000  0.4818930000000 1.0
C      1  0.4919860000000  0.4459410000000  0.5171390000000 1.0
C      1  0.5378150000000  0.4623840000000  0.5169550000000 1.0
C      1  0.5486690000000  0.5205260000000  0.5121240000000 1.0
C      1  0.5139030000000  0.5525270000000  0.5150650000000 1.0
C      1  0.4593440000000  0.5306800000000  0.5096860000000 1.0
C      1  0.4520830000000  0.4783480000000  0.5132520000000 1.0
C      1  0.4835590000000  0.5202460000000  0.5929710000000 1.0
C      1  0.5318170000000  0.5291140000000  0.5795510000000 1.0
C      1  0.5282830000000  0.4907440000000  0.5993970000000 1.0
C      1  0.5134790000000  0.4678520000000  0.5859480000000 1.0
C      1  0.4776840000000  0.4705570000000  0.5852590000000 1.0
C      1  0.4650510000000  0.4965710000000  0.5957090000000 1.0
C      1  0.4910660000000  0.4651850000000  0.4072660000000 1.0
C      1  0.5212790000000  0.4656490000000  0.4056060000000 1.0
C      1  0.5300560000000  0.4947440000000  0.4100360000000 1.0
C      1  0.5010840000000  0.5364080000000  0.4055250000000 1.0
C      1  0.4730440000000  0.5409900000000  0.4075200000000 1.0
C      1  0.4790000000000  0.4916740000000  0.3996500000000 1.0
C      1  0.5495530000000  0.5094430000000  0.4662610000000 1.0
C      1  0.5316610000000  0.4648490000000  0.4732570000000 1.0
C      1  0.4825190000000  0.4541270000000  0.4700280000000 1.0
C      1  0.4518900000000  0.4933450000000  0.4679190000000 1.0
C      1  0.4653080000000  0.5407960000000  0.4654120000000 1.0
C      1  0.5137750000000  0.5456950000000  0.4711850000000 1.0
C      1  0.5451140000000  0.4907510000000  0.5260640000000 1.0
C      1  0.5345770000000  0.5395110000000  0.5304270000000 1.0
C      1  0.4865110000000  0.5456420000000  0.5258750000000 1.0
C      1  0.4531570000000  0.5068460000000  0.5264410000000 1.0
C      1  0.4681050000000  0.4601040000000  0.5313400000000 1.0
C      1  0.5163880000000  0.4508880000000  0.5337890000000 1.0
C      1  0.4138120000000  0.4845200000000  0.5411390000000 1.0
C      1  0.4465450000000  0.5653100000000  0.5412590000000 1.0
C      1  0.5348830000000  0.5858670000000  0.5396090000000 1.0
C      1  0.5840650000000  0.5146240000000  0.5418120000000 1.0
C      1  0.5564200000000  0.4296440000000  0.5432950000000 1.0
C      1  0.4672630000000  0.4147280000000  0.5430970000000 1.0
C      1  0.4148120000000  0.5159490000000  0.4526640000000 1.0
C      1  0.4441120000000  0.4316060000000  0.4566280000000 1.0
C      1  0.5318250000000  0.4176670000000  0.4611170000000 1.0
C      1  0.5882810000000  0.4860540000000  0.4571760000000 1.0
C      1  0.5532420000000  0.5664050000000  0.4552280000000 1.0
C      1  0.4651410000000  0.5883120000000  0.4607260000000 1.0
C      1  0.4806350000000  0.4774770000000  0.5540690000000 1.0
C      1  0.4743120000000  0.5050380000000  0.5464310000000 1.0
C      1  0.4906960000000  0.5289930000000  0.5506690000000 1.0
C      1  0.5203130000000  0.5237500000000  0.5524190000000 1.0
C      1  0.5251850000000  0.4961400000000  0.5461100000000 1.0
C      1  0.5102620000000  0.4729350000000  0.5548730000000 1.0
C      1  0.4794270000000  0.5257520000000  0.4423230000000 1.0
C      1  0.4703820000000  0.4966790000000  0.4445110000000 1.0
C      1  0.4898140000000  0.4721980000000  0.4454780000000 1.0
C      1  0.5162910000000  0.4801540000000  0.4533910000000 1.0
C      1  0.5276330000000  0.5046700000000  0.4438180000000 1.0
C      1  0.5082410000000  0.5272670000000  0.4483630000000 1.0
C      1  0.5049100000000  0.5086540000000  0.3983560000000 1.0
C      1  0.5124510000000  0.5171680000000  0.6002330000000 1.0
END
