TITL C-3577083-591-448 -2.29609312811437e-06 125000 -404.658897541209 0 0 66 (C1) n - 1
REM
REM in /home/bkarasulu/work/CARBON/AIRSS/Generating-Clusters/EDIP-Nigel-Params/with-SteepDescent/Higher-Symm/SD-CG/HFTN-CG
REM
REM
REM
REM
REM
REM ./C.cell (12c818d87b63d06a65506943cc24bca4)
REM
REM compiler GCC version 9.2.1 20190827 (Red Hat 9.2.1-1)
REM options -cpp -mtune=generic -march=x86-64 -g -O0 -fpre-include=/usr/include/finclude/math-vector-fortran.h
REM seed -824790217 -302527433 199325633 244713541 -1346434714 -1043849912 1087829426 1477060190 -1548441155 708417377 1811526928 1791212052 797547269 1299756173 658949575 -397292247 -1159941788 955410 -603720628 1196551133 -1740774929 -2069534727 2141418162 -1795844109 1416229487 1404961253 -1019588180 -1642794474 354974074 1647283791 557781693 679201646 -408238020
REM
CELL 1.54180   50.00000   50.00000   50.00000   90.00000   90.00000   90.00000
LATT -1
SFAC C  
C      1  0.4314510000000  0.4972890000000  0.5136150000000 1.0
C      1  0.4873050000000  0.5301750000000  0.4406050000000 1.0
C      1  0.4752970000000  0.4290700000000  0.5159510000000 1.0
C      1  0.5347250000000  0.5217850000000  0.5516560000000 1.0
C      1  0.5498170000000  0.5549060000000  0.5141380000000 1.0
C      1  0.5267720000000  0.5719610000000  0.5159420000000 1.0
C      1  0.5297060000000  0.4473970000000  0.5390610000000 1.0
C      1  0.5081250000000  0.5346370000000  0.5464870000000 1.0
C      1  0.5715700000000  0.4904210000000  0.4609310000000 1.0
C      1  0.5691960000000  0.5279760000000  0.4935790000000 1.0
C      1  0.4947450000000  0.5281250000000  0.4963940000000 1.0
C      1  0.5057790000000  0.5610040000000  0.5340550000000 1.0
C      1  0.5451460000000  0.4725240000000  0.4832350000000 1.0
C      1  0.4483910000000  0.4627900000000  0.5073720000000 1.0
C      1  0.5461280000000  0.5302160000000  0.4484740000000 1.0
C      1  0.5320580000000  0.5071220000000  0.4375420000000 1.0
C      1  0.4622720000000  0.5434920000000  0.5416590000000 1.0
C      1  0.4457710000000  0.4966740000000  0.5615640000000 1.0
C      1  0.5685680000000  0.5039520000000  0.5121990000000 1.0
C      1  0.4657040000000  0.4400550000000  0.5410060000000 1.0
C      1  0.5397080000000  0.4745610000000  0.5471420000000 1.0
C      1  0.4662840000000  0.4563830000000  0.4457990000000 1.0
C      1  0.5046860000000  0.5093210000000  0.4282460000000 1.0
C      1  0.5207340000000  0.5161540000000  0.4980120000000 1.0
C      1  0.5232140000000  0.4430620000000  0.5110820000000 1.0
C      1  0.4344370000000  0.4584660000000  0.5346260000000 1.0
C      1  0.4934370000000  0.5569910000000  0.4832820000000 1.0
C      1  0.5303950000000  0.5545680000000  0.4582090000000 1.0
C      1  0.4681220000000  0.5728300000000  0.4892330000000 1.0
C      1  0.4294120000000  0.4861350000000  0.5414160000000 1.0
C      1  0.4868770000000  0.4880070000000  0.5269110000000 1.0
C      1  0.5311920000000  0.4343890000000  0.4644670000000 1.0
C      1  0.4439360000000  0.4591880000000  0.4624120000000 1.0
C      1  0.4913010000000  0.4808510000000  0.5562730000000 1.0
C      1  0.5721190000000  0.4821210000000  0.4930460000000 1.0
C      1  0.5098510000000  0.4377870000000  0.5568720000000 1.0
C      1  0.4681670000000  0.5863640000000  0.5135970000000 1.0
C      1  0.5698660000000  0.5204460000000  0.4636990000000 1.0
C      1  0.4924200000000  0.4778950000000  0.4805300000000 1.0
C      1  0.4816260000000  0.5287900000000  0.5603030000000 1.0
C      1  0.5464810000000  0.4815220000000  0.4414280000000 1.0
C      1  0.4785000000000  0.5169540000000  0.5188000000000 1.0
C      1  0.4772870000000  0.5678680000000  0.5324520000000 1.0
C      1  0.5403390000000  0.5377200000000  0.4915250000000 1.0
C      1  0.4460690000000  0.5346160000000  0.4845260000000 1.0
C      1  0.4921770000000  0.4864230000000  0.4173640000000 1.0
C      1  0.5168400000000  0.5743850000000  0.4891570000000 1.0
C      1  0.5427000000000  0.4442170000000  0.4898970000000 1.0
C      1  0.4750060000000  0.4980530000000  0.4590360000000 1.0
C      1  0.4726070000000  0.5012120000000  0.5684330000000 1.0
C      1  0.5451370000000  0.5004250000000  0.5316030000000 1.0
C      1  0.4561380000000  0.5208190000000  0.4615010000000 1.0
C      1  0.4435430000000  0.5621860000000  0.4817570000000 1.0
C      1  0.4333720000000  0.4726300000000  0.4842470000000 1.0
C      1  0.5005510000000  0.4278320000000  0.5025470000000 1.0
C      1  0.5016970000000  0.4273410000000  0.4729030000000 1.0
C      1  0.5002220000000  0.5531490000000  0.4539630000000 1.0
C      1  0.5289390000000  0.4573560000000  0.4451340000000 1.0
C      1  0.5200480000000  0.4893650000000  0.4864190000000 1.0
C      1  0.5202840000000  0.4832420000000  0.5676400000000 1.0
C      1  0.5288650000000  0.5086650000000  0.5762820000000 1.0
C      1  0.4851440000000  0.4511860000000  0.5596340000000 1.0
C      1  0.4482950000000  0.5224710000000  0.5120900000000 1.0
C      1  0.4699260000000  0.4825520000000  0.4339160000000 1.0
C      1  0.4936910000000  0.4553390000000  0.4598870000000 1.0
C      1  0.4798300000000  0.4665930000000  0.5072360000000 1.0
END
