TITL C-3578200-9634-401 -8.97247802744607e-07 125000 -395.695798158792 0 0 64 (C1) n - 1
REM
REM in /home/bkarasulu/work/CARBON/AIRSS/Generating-Clusters/EDIP-Nigel-Params/with-SteepDescent/Higher-Symm/SD-CG/HFTN-CG
REM
REM
REM
REM
REM
REM ./C.cell (12c818d87b63d06a65506943cc24bca4)
REM
REM compiler GCC version 9.2.1 20190827 (Red Hat 9.2.1-1)
REM options -cpp -mtune=generic -march=x86-64 -g -O0 -fpre-include=/usr/include/finclude/math-vector-fortran.h
REM seed 602916220 89645139 -621728988 -1157549873 -1079287917 1046700242 13962959 1817351687 -1087692320 -161657141 -2062201385 -786678990 -1669878638 1284000009 -871405949 1241804466 -1298943748 950170112 1677019993 -1112275576 -444794534 1855542296 2081588086 754464046 1781911158 56588391 84339176 2145110588 -807371645 -1167404506 386164687 -1769948276 1357281776
REM
CELL 1.54180   50.00000   50.00000   50.00000   90.00000   90.00000   90.00000
LATT -1
SFAC C  
C      1  0.5673800000000  0.5206990000000  0.4777270000000 1.0
C      1  0.5242390000000  0.5352680000000  0.4560560000000 1.0
C      1  0.4798900000000  0.4665640000000  0.5268870000000 1.0
C      1  0.5328300000000  0.4749640000000  0.5368360000000 1.0
C      1  0.5087600000000  0.4794380000000  0.4918600000000 1.0
C      1  0.4735430000000  0.4846060000000  0.4356910000000 1.0
C      1  0.5242090000000  0.5612670000000  0.4707460000000 1.0
C      1  0.4867540000000  0.5240970000000  0.5684360000000 1.0
C      1  0.4382210000000  0.4902090000000  0.5283220000000 1.0
C      1  0.4700340000000  0.4601800000000  0.4497460000000 1.0
C      1  0.4800250000000  0.5153610000000  0.4842900000000 1.0
C      1  0.5297750000000  0.4984170000000  0.4860790000000 1.0
C      1  0.4740990000000  0.5635960000000  0.4845540000000 1.0
C      1  0.4729700000000  0.5387940000000  0.4419420000000 1.0
C      1  0.4984430000000  0.5723560000000  0.4737470000000 1.0
C      1  0.4670380000000  0.4620480000000  0.4986170000000 1.0
C      1  0.5140320000000  0.5614990000000  0.5139530000000 1.0
C      1  0.5004890000000  0.5266070000000  0.4387310000000 1.0
C      1  0.4306080000000  0.5186550000000  0.5249630000000 1.0
C      1  0.4638760000000  0.5389200000000  0.4710850000000 1.0
C      1  0.4310080000000  0.4974140000000  0.4825770000000 1.0
C      1  0.5113340000000  0.5239720000000  0.4906040000000 1.0
C      1  0.4796850000000  0.5647100000000  0.5440050000000 1.0
C      1  0.4991600000000  0.4976090000000  0.4363830000000 1.0
C      1  0.5484220000000  0.4903290000000  0.5109350000000 1.0
C      1  0.4437930000000  0.5334640000000  0.5450510000000 1.0
C      1  0.5587000000000  0.4503780000000  0.4875960000000 1.0
C      1  0.5183600000000  0.4528870000000  0.4372250000000 1.0
C      1  0.5502350000000  0.5197640000000  0.4536540000000 1.0
C      1  0.5003590000000  0.4785900000000  0.5733220000000 1.0
C      1  0.4859490000000  0.4411080000000  0.5427450000000 1.0
C      1  0.5106430000000  0.5289460000000  0.5481070000000 1.0
C      1  0.4380410000000  0.4757270000000  0.5016330000000 1.0
C      1  0.5113870000000  0.4364070000000  0.5003020000000 1.0
C      1  0.5399870000000  0.4932420000000  0.5606470000000 1.0
C      1  0.5355020000000  0.4346260000000  0.4825960000000 1.0
C      1  0.4723730000000  0.5229180000000  0.5136650000000 1.0
C      1  0.5293850000000  0.4454470000000  0.5473660000000 1.0
C      1  0.5527960000000  0.5329270000000  0.5008510000000 1.0
C      1  0.4651180000000  0.4881440000000  0.5400230000000 1.0
C      1  0.5089310000000  0.5580390000000  0.5417240000000 1.0
C      1  0.5404840000000  0.5207150000000  0.5510970000000 1.0
C      1  0.4769910000000  0.4956620000000  0.5662870000000 1.0
C      1  0.5110320000000  0.4291760000000  0.5285370000000 1.0
C      1  0.4535190000000  0.5272930000000  0.4251380000000 1.0
C      1  0.5004460000000  0.5130240000000  0.5238510000000 1.0
C      1  0.4846940000000  0.4366640000000  0.4873620000000 1.0
C      1  0.4377630000000  0.5229810000000  0.4953750000000 1.0
C      1  0.4316280000000  0.4946160000000  0.4547080000000 1.0
C      1  0.5054450000000  0.4823400000000  0.5216880000000 1.0
C      1  0.5226590000000  0.4810990000000  0.4381340000000 1.0
C      1  0.4500760000000  0.5012400000000  0.4348390000000 1.0
C      1  0.5803090000000  0.4951190000000  0.4813950000000 1.0
C      1  0.4762980000000  0.5538060000000  0.5134010000000 1.0
C      1  0.4885640000000  0.4394610000000  0.4581620000000 1.0
C      1  0.5585090000000  0.5229830000000  0.5277280000000 1.0
C      1  0.5239090000000  0.4903030000000  0.5838270000000 1.0
C      1  0.5371760000000  0.5580590000000  0.4972570000000 1.0
C      1  0.4816280000000  0.4826480000000  0.4788640000000 1.0
C      1  0.5270140000000  0.4328860000000  0.4550600000000 1.0
C      1  0.4655450000000  0.5439410000000  0.5599950000000 1.0
C      1  0.5453160000000  0.4914980000000  0.4517740000000 1.0
C      1  0.5029340000000  0.4500550000000  0.5664630000000 1.0
C      1  0.5696820000000  0.4742360000000  0.4977790000000 1.0
END
