TITL C-3578195-8548-467 -5.52606013388638e-06 125000 -323.344710528944 0 0 54 (C1) n - 1
REM
REM in /home/bkarasulu/work/CARBON/AIRSS/Generating-Clusters/EDIP-Nigel-Params/with-SteepDescent/Higher-Symm/SD-CG/HFTN-CG
REM
REM
REM
REM
REM
REM ./C.cell (12c818d87b63d06a65506943cc24bca4)
REM
REM compiler GCC version 9.2.1 20190827 (Red Hat 9.2.1-1)
REM options -cpp -mtune=generic -march=x86-64 -g -O0 -fpre-include=/usr/include/finclude/math-vector-fortran.h
REM seed 204347797 -971098173 405020672 -1207922074 -467758973 -33667369 798284803 1778354581 872436219 -179526500 -1511731724 1369078611 684390101 442773669 1442472227 -187349607 -95548198 -831717123 1353782073 -16825736 -2075682178 -930758823 689951483 -1039572444 1850370274 -1792823 -1554634856 1058618616 -2036924589 928939185 432135564 -1639490388 1917359725
REM
CELL 1.54180   50.00000   50.00000   50.00000   90.00000   90.00000   90.00000
LATT -1
SFAC C  
C      1  0.5560080000000  0.5308000000000  0.5049710000000 1.0
C      1  0.4674590000000  0.5334440000000  0.5521650000000 1.0
C      1  0.4706400000000  0.5326910000000  0.4479880000000 1.0
C      1  0.4444000000000  0.4871030000000  0.5223230000000 1.0
C      1  0.5088500000000  0.4839140000000  0.4400810000000 1.0
C      1  0.5475620000000  0.4816150000000  0.5379110000000 1.0
C      1  0.5167640000000  0.4859110000000  0.4882750000000 1.0
C      1  0.5088250000000  0.4863320000000  0.5177770000000 1.0
C      1  0.4845490000000  0.4849690000000  0.4826370000000 1.0
C      1  0.4511020000000  0.4651330000000  0.4790950000000 1.0
C      1  0.5431060000000  0.4647740000000  0.4676160000000 1.0
C      1  0.5046720000000  0.4645750000000  0.5557780000000 1.0
C      1  0.4774570000000  0.5436570000000  0.5270730000000 1.0
C      1  0.4874310000000  0.5398750000000  0.4708150000000 1.0
C      1  0.5360000000000  0.5514000000000  0.5093240000000 1.0
C      1  0.5170580000000  0.4592120000000  0.4537340000000 1.0
C      1  0.5284990000000  0.4582470000000  0.5375000000000 1.0
C      1  0.4564120000000  0.4646660000000  0.5083980000000 1.0
C      1  0.4845060000000  0.4574060000000  0.5164950000000 1.0
C      1  0.4981120000000  0.4490950000000  0.4754050000000 1.0
C      1  0.5207810000000  0.4462570000000  0.5072270000000 1.0
C      1  0.4793940000000  0.5647500000000  0.4880250000000 1.0
C      1  0.5183710000000  0.5670350000000  0.4906040000000 1.0
C      1  0.4969010000000  0.5670830000000  0.5233270000000 1.0
C      1  0.4989270000000  0.4941480000000  0.5597770000000 1.0
C      1  0.4442580000000  0.4929200000000  0.4675480000000 1.0
C      1  0.5549130000000  0.4937770000000  0.4684390000000 1.0
C      1  0.4436480000000  0.5342810000000  0.4912830000000 1.0
C      1  0.5373950000000  0.5382560000000  0.4554280000000 1.0
C      1  0.5208320000000  0.5383780000000  0.5541510000000 1.0
C      1  0.5147700000000  0.5531940000000  0.4640690000000 1.0
C      1  0.5227200000000  0.5576140000000  0.5340290000000 1.0
C      1  0.4593070000000  0.5518630000000  0.5053550000000 1.0
C      1  0.4500100000000  0.4870070000000  0.5513750000000 1.0
C      1  0.4802050000000  0.4847540000000  0.4337840000000 1.0
C      1  0.5672070000000  0.4825970000000  0.5162350000000 1.0
C      1  0.5688680000000  0.4567840000000  0.5051920000000 1.0
C      1  0.4586840000000  0.4607930000000  0.5577140000000 1.0
C      1  0.4700270000000  0.4585340000000  0.4373370000000 1.0
C      1  0.4715260000000  0.5061680000000  0.5589900000000 1.0
C      1  0.4644400000000  0.5048920000000  0.4490120000000 1.0
C      1  0.5628830000000  0.5041370000000  0.4958150000000 1.0
C      1  0.5224220000000  0.5112720000000  0.5593730000000 1.0
C      1  0.4307710000000  0.5103050000000  0.4870920000000 1.0
C      1  0.5426980000000  0.5114890000000  0.4481930000000 1.0
C      1  0.4816630000000  0.4500850000000  0.5456660000000 1.0
C      1  0.4703480000000  0.4482770000000  0.4634280000000 1.0
C      1  0.5464010000000  0.4477440000000  0.4914960000000 1.0
C      1  0.4841900000000  0.5169450000000  0.4927720000000 1.0
C      1  0.5219910000000  0.5167300000000  0.4866240000000 1.0
C      1  0.5070590000000  0.5193550000000  0.5184020000000 1.0
C      1  0.5478170000000  0.4998710000000  0.5590830000000 1.0
C      1  0.4211460000000  0.4979800000000  0.5106790000000 1.0
C      1  0.5280160000000  0.4999070000000  0.4271170000000 1.0
END
