TITL C-3577076-40-472 -2.4007302440882e-06 125000 -821.460399616583 0 0 130 (C1) n - 1
REM
REM in /home/bkarasulu/work/CARBON/AIRSS/Generating-Clusters/EDIP-Nigel-Params/with-SteepDescent/Higher-Symm/SD-CG/HFTN-CG
REM
REM
REM
REM
REM
REM ./C.cell (12c818d87b63d06a65506943cc24bca4)
REM
REM compiler GCC version 9.2.1 20190827 (Red Hat 9.2.1-1)
REM options -cpp -mtune=generic -march=x86-64 -g -O0 -fpre-include=/usr/include/finclude/math-vector-fortran.h
REM seed 811089446 969038318 2011879745 -209695265 1079290279 -1713597333 1283225617 1199697158 1375917166 1891641099 970070106 460827677 -490116871 -2134025359 -922058567 1369904200 -620720904 1707031501 1963086701 1041786892 -1187945885 2017985499 -187924308 1370382336 1878087177 2054837561 302316717 -1886972685 1680287668 1285833889 734425388 -1649946750 -1998851937
REM
CELL 1.54180   50.00000   50.00000   50.00000   90.00000   90.00000   90.00000
LATT -1
SFAC C  
C      1  0.4775590000000  0.4739280000000  0.4675910000000 1.0
C      1  0.4843210000000  0.4731370000000  0.5200710000000 1.0
C      1  0.4986750000000  0.5001200000000  0.4865220000000 1.0
C      1  0.4975010000000  0.4991510000000  0.5157850000000 1.0
C      1  0.5632600000000  0.4536230000000  0.4308990000000 1.0
C      1  0.5610400000000  0.4524550000000  0.5702670000000 1.0
C      1  0.4723710000000  0.5216590000000  0.4571880000000 1.0
C      1  0.4877460000000  0.5325290000000  0.5562660000000 1.0
C      1  0.4616090000000  0.4497980000000  0.5673740000000 1.0
C      1  0.4589500000000  0.4460950000000  0.4307900000000 1.0
C      1  0.4974050000000  0.4497360000000  0.4650350000000 1.0
C      1  0.4944410000000  0.4506550000000  0.5378280000000 1.0
C      1  0.4449450000000  0.5586070000000  0.5283530000000 1.0
C      1  0.4419300000000  0.5616770000000  0.4711360000000 1.0
C      1  0.5517640000000  0.5687400000000  0.4425210000000 1.0
C      1  0.5525560000000  0.5690590000000  0.5590040000000 1.0
C      1  0.4485770000000  0.4298440000000  0.5121670000000 1.0
C      1  0.4416440000000  0.4248770000000  0.4838260000000 1.0
C      1  0.5011710000000  0.4604470000000  0.4116830000000 1.0
C      1  0.5015460000000  0.4605130000000  0.5896330000000 1.0
C      1  0.4215670000000  0.4756780000000  0.4320130000000 1.0
C      1  0.4246490000000  0.4784900000000  0.5675410000000 1.0
C      1  0.5146190000000  0.4581150000000  0.4396210000000 1.0
C      1  0.5127260000000  0.4603420000000  0.5608030000000 1.0
C      1  0.5722360000000  0.4779770000000  0.4443630000000 1.0
C      1  0.5716110000000  0.4764340000000  0.5573960000000 1.0
C      1  0.5592400000000  0.5581810000000  0.5148020000000 1.0
C      1  0.5581280000000  0.5569160000000  0.4864400000000 1.0
C      1  0.4616790000000  0.4946500000000  0.4126730000000 1.0
C      1  0.4663910000000  0.4967550000000  0.5825560000000 1.0
C      1  0.4511300000000  0.4810040000000  0.4840930000000 1.0
C      1  0.4567940000000  0.4786160000000  0.5144860000000 1.0
C      1  0.4885920000000  0.5807520000000  0.5310810000000 1.0
C      1  0.4881630000000  0.5809380000000  0.4692890000000 1.0
C      1  0.5580770000000  0.5257660000000  0.4229210000000 1.0
C      1  0.5586590000000  0.5247460000000  0.5784010000000 1.0
C      1  0.5093770000000  0.5460580000000  0.5150200000000 1.0
C      1  0.5088860000000  0.5464140000000  0.4839930000000 1.0
C      1  0.5242630000000  0.4568100000000  0.5140920000000 1.0
C      1  0.5211690000000  0.4533090000000  0.4843850000000 1.0
C      1  0.4740080000000  0.5433420000000  0.5946900000000 1.0
C      1  0.4723390000000  0.5419770000000  0.4051310000000 1.0
C      1  0.4969390000000  0.4149730000000  0.5537130000000 1.0
C      1  0.4973790000000  0.4172530000000  0.4445110000000 1.0
C      1  0.4662220000000  0.5719590000000  0.5147230000000 1.0
C      1  0.4653170000000  0.5724140000000  0.4854960000000 1.0
C      1  0.4655330000000  0.5611070000000  0.5739810000000 1.0
C      1  0.4688190000000  0.5554490000000  0.4290650000000 1.0
C      1  0.4365920000000  0.4566260000000  0.5551470000000 1.0
C      1  0.4319550000000  0.4509700000000  0.4402710000000 1.0
C      1  0.4769880000000  0.4201220000000  0.5105470000000 1.0
C      1  0.4763240000000  0.4083600000000  0.4849630000000 1.0
C      1  0.5924960000000  0.5208400000000  0.5168810000000 1.0
C      1  0.5940950000000  0.5216680000000  0.4853600000000 1.0
C      1  0.4730100000000  0.4248380000000  0.5628040000000 1.0
C      1  0.4720700000000  0.4220090000000  0.4348250000000 1.0
C      1  0.5280240000000  0.4095890000000  0.4845130000000 1.0
C      1  0.5270980000000  0.4096480000000  0.5150440000000 1.0
C      1  0.5100470000000  0.5817250000000  0.5761440000000 1.0
C      1  0.5095020000000  0.5811500000000  0.4250160000000 1.0
C      1  0.5176040000000  0.4825140000000  0.3998360000000 1.0
C      1  0.5182920000000  0.4824920000000  0.6015380000000 1.0
C      1  0.5234700000000  0.5005140000000  0.5303560000000 1.0
C      1  0.5248960000000  0.5013310000000  0.4718080000000 1.0
C      1  0.5715380000000  0.4757610000000  0.4750630000000 1.0
C      1  0.5708360000000  0.4738370000000  0.5273320000000 1.0
C      1  0.5690960000000  0.5351360000000  0.5301580000000 1.0
C      1  0.5717030000000  0.5359440000000  0.4717560000000 1.0
C      1  0.5152100000000  0.4904860000000  0.4432190000000 1.0
C      1  0.5129610000000  0.4913200000000  0.5583380000000 1.0
C      1  0.4129590000000  0.4651180000000  0.5118230000000 1.0
C      1  0.4219100000000  0.4693780000000  0.4823150000000 1.0
C      1  0.4797960000000  0.5315100000000  0.5254240000000 1.0
C      1  0.4871580000000  0.5266860000000  0.4824300000000 1.0
C      1  0.5405530000000  0.5732040000000  0.5307800000000 1.0
C      1  0.5408150000000  0.5735850000000  0.4703720000000 1.0
C      1  0.4878420000000  0.5740900000000  0.4405800000000 1.0
C      1  0.4874870000000  0.5767060000000  0.5604710000000 1.0
C      1  0.4810250000000  0.5166350000000  0.5994990000000 1.0
C      1  0.4786380000000  0.5155490000000  0.3995740000000 1.0
C      1  0.5312070000000  0.5376890000000  0.4156520000000 1.0
C      1  0.5316370000000  0.5367210000000  0.5844250000000 1.0
C      1  0.4231810000000  0.5440950000000  0.4853540000000 1.0
C      1  0.4270520000000  0.5413170000000  0.5140820000000 1.0
C      1  0.5426370000000  0.4357240000000  0.4734750000000 1.0
C      1  0.5418020000000  0.4354100000000  0.5263710000000 1.0
C      1  0.4030260000000  0.4971540000000  0.4829990000000 1.0
C      1  0.4050190000000  0.4949020000000  0.5144240000000 1.0
C      1  0.4480470000000  0.5087720000000  0.4743020000000 1.0
C      1  0.4552960000000  0.5055340000000  0.5283810000000 1.0
C      1  0.4457380000000  0.5476750000000  0.4448220000000 1.0
C      1  0.4468060000000  0.5483190000000  0.5551710000000 1.0
C      1  0.4834750000000  0.4947560000000  0.4449310000000 1.0
C      1  0.4817430000000  0.5023410000000  0.5572270000000 1.0
C      1  0.5150300000000  0.5852730000000  0.4839360000000 1.0
C      1  0.5151610000000  0.5846960000000  0.5166710000000 1.0
C      1  0.5423260000000  0.4816990000000  0.5155470000000 1.0
C      1  0.5473220000000  0.4893070000000  0.4872130000000 1.0
C      1  0.5693990000000  0.4447640000000  0.5158170000000 1.0
C      1  0.5690930000000  0.4463390000000  0.4856460000000 1.0
C      1  0.5338100000000  0.5682120000000  0.5825590000000 1.0
C      1  0.5331420000000  0.5677360000000  0.4195510000000 1.0
C      1  0.5699640000000  0.5442420000000  0.4431090000000 1.0
C      1  0.5705910000000  0.5440500000000  0.5588070000000 1.0
C      1  0.5305180000000  0.5296150000000  0.5313390000000 1.0
C      1  0.5281470000000  0.5312600000000  0.4663700000000 1.0
C      1  0.5403360000000  0.4412580000000  0.4431200000000 1.0
C      1  0.5378220000000  0.4423730000000  0.5564040000000 1.0
C      1  0.5961140000000  0.4897480000000  0.4858190000000 1.0
C      1  0.5941830000000  0.4899980000000  0.5161470000000 1.0
C      1  0.4990280000000  0.4084970000000  0.5263600000000 1.0
C      1  0.5009370000000  0.4060710000000  0.4704790000000 1.0
C      1  0.5070500000000  0.5102210000000  0.4047070000000 1.0
C      1  0.5093280000000  0.5100200000000  0.5921580000000 1.0
C      1  0.5173050000000  0.5357620000000  0.5574420000000 1.0
C      1  0.5109750000000  0.5280420000000  0.4392260000000 1.0
C      1  0.4724980000000  0.4672350000000  0.5880790000000 1.0
C      1  0.4718990000000  0.4658240000000  0.4136430000000 1.0
C      1  0.4382280000000  0.4561950000000  0.5250290000000 1.0
C      1  0.4249600000000  0.4431090000000  0.4680660000000 1.0
C      1  0.5562390000000  0.4972430000000  0.4290170000000 1.0
C      1  0.5548730000000  0.4962280000000  0.5715190000000 1.0
C      1  0.4365830000000  0.5019370000000  0.5768730000000 1.0
C      1  0.4332160000000  0.4995720000000  0.4230600000000 1.0
C      1  0.4254840000000  0.5153380000000  0.5288820000000 1.0
C      1  0.4207720000000  0.5185050000000  0.4701150000000 1.0
C      1  0.4291590000000  0.5243670000000  0.5587410000000 1.0
C      1  0.4254460000000  0.5239190000000  0.4392990000000 1.0
C      1  0.5457280000000  0.4789330000000  0.5931450000000 1.0
C      1  0.5451470000000  0.4795830000000  0.4090800000000 1.0
END
