TITL C-3577079-311-144 -6.63400394349866e-06 125000 -739.839761318949 0 0 119 (C1) n - 1
REM
REM in /home/bkarasulu/work/CARBON/AIRSS/Generating-Clusters/EDIP-Nigel-Params/with-SteepDescent/Higher-Symm/SD-CG/HFTN-CG
REM
REM
REM
REM
REM
REM ./C.cell (12c818d87b63d06a65506943cc24bca4)
REM
REM compiler GCC version 9.2.1 20190827 (Red Hat 9.2.1-1)
REM options -cpp -mtune=generic -march=x86-64 -g -O0 -fpre-include=/usr/include/finclude/math-vector-fortran.h
REM seed 1788127466 237218734 297986797 1668290505 -515545284 1279293568 -1442207220 1824161957 -1405703880 1809733537 718916463 561786189 1886415073 1619149617 -1660205837 1253050042 -87870109 -619414284 1660009196 878779840 435502194 -1071346330 -1110211066 1032417175 -1559922204 -1660932811 -1714542820 1795587555 563047266 -1612496637 1747406314 152672833 1768848087
REM
CELL 1.54180   50.00000   50.00000   50.00000   90.00000   90.00000   90.00000
LATT -1
SFAC C  
C      1  0.4009790000000  0.4844860000000  0.5125680000000 1.0
C      1  0.3940450000000  0.5193690000000  0.4863820000000 1.0
C      1  0.6032390000000  0.4814480000000  0.5059180000000 1.0
C      1  0.5884830000000  0.5208780000000  0.4828080000000 1.0
C      1  0.4009860000000  0.4820500000000  0.4815350000000 1.0
C      1  0.3913780000000  0.5118580000000  0.5148180000000 1.0
C      1  0.5948780000000  0.4705710000000  0.4797640000000 1.0
C      1  0.5994980000000  0.5096350000000  0.5067840000000 1.0
C      1  0.5144610000000  0.4839040000000  0.4073400000000 1.0
C      1  0.5144120000000  0.5166340000000  0.5941670000000 1.0
C      1  0.4844780000000  0.4839010000000  0.4069160000000 1.0
C      1  0.4840290000000  0.5165770000000  0.5935400000000 1.0
C      1  0.5144090000000  0.4845080000000  0.5920210000000 1.0
C      1  0.5142490000000  0.5166690000000  0.4072560000000 1.0
C      1  0.4838040000000  0.4849720000000  0.5920400000000 1.0
C      1  0.4837670000000  0.5158200000000  0.4066560000000 1.0
C      1  0.5631750000000  0.5078330000000  0.4715160000000 1.0
C      1  0.5606620000000  0.4865320000000  0.5157240000000 1.0
C      1  0.4477500000000  0.5207980000000  0.4828400000000 1.0
C      1  0.4445830000000  0.4921310000000  0.5150920000000 1.0
C      1  0.5608690000000  0.5184040000000  0.5254770000000 1.0
C      1  0.5650460000000  0.4796890000000  0.4832210000000 1.0
C      1  0.4477940000000  0.5262560000000  0.5152110000000 1.0
C      1  0.4440620000000  0.4882500000000  0.4821640000000 1.0
C      1  0.5558330000000  0.5347620000000  0.4318520000000 1.0
C      1  0.5553520000000  0.4660580000000  0.5672380000000 1.0
C      1  0.4425270000000  0.5325900000000  0.4341990000000 1.0
C      1  0.4431980000000  0.4690220000000  0.5648920000000 1.0
C      1  0.5553500000000  0.5363190000000  0.5717330000000 1.0
C      1  0.5556940000000  0.4622730000000  0.4284770000000 1.0
C      1  0.4433430000000  0.5336710000000  0.5675600000000 1.0
C      1  0.4444060000000  0.4652900000000  0.4331840000000 1.0
C      1  0.4842590000000  0.4445880000000  0.5586260000000 1.0
C      1  0.4825720000000  0.5600430000000  0.4375900000000 1.0
C      1  0.5129990000000  0.4410800000000  0.5614380000000 1.0
C      1  0.5117420000000  0.5616480000000  0.4412730000000 1.0
C      1  0.4866250000000  0.4386130000000  0.4406710000000 1.0
C      1  0.4832310000000  0.5619560000000  0.5647940000000 1.0
C      1  0.5154790000000  0.4362250000000  0.4357850000000 1.0
C      1  0.5128950000000  0.5616390000000  0.5649360000000 1.0
C      1  0.5180720000000  0.4753450000000  0.4564420000000 1.0
C      1  0.5177130000000  0.5186870000000  0.5464250000000 1.0
C      1  0.4870430000000  0.4839930000000  0.4539000000000 1.0
C      1  0.4864570000000  0.5199780000000  0.5451420000000 1.0
C      1  0.5173370000000  0.4855640000000  0.5437340000000 1.0
C      1  0.5155420000000  0.5193490000000  0.4542290000000 1.0
C      1  0.4843400000000  0.4889490000000  0.5442340000000 1.0
C      1  0.4869310000000  0.5146690000000  0.4532610000000 1.0
C      1  0.5336830000000  0.5295290000000  0.5242520000000 1.0
C      1  0.5386070000000  0.4591980000000  0.4746850000000 1.0
C      1  0.4767250000000  0.5335120000000  0.5210330000000 1.0
C      1  0.4712370000000  0.4768000000000  0.4764560000000 1.0
C      1  0.5301990000000  0.5138790000000  0.4791420000000 1.0
C      1  0.5309870000000  0.4783830000000  0.5168770000000 1.0
C      1  0.4766470000000  0.5255220000000  0.4774870000000 1.0
C      1  0.4713230000000  0.4813730000000  0.5206150000000 1.0
C      1  0.5258390000000  0.4687910000000  0.5674240000000 1.0
C      1  0.5257060000000  0.5340400000000  0.4313790000000 1.0
C      1  0.4731110000000  0.4719770000000  0.5665320000000 1.0
C      1  0.4728780000000  0.5312990000000  0.4312890000000 1.0
C      1  0.5262170000000  0.4644780000000  0.4298530000000 1.0
C      1  0.5255690000000  0.5336390000000  0.5712400000000 1.0
C      1  0.4746820000000  0.4676230000000  0.4314520000000 1.0
C      1  0.4734460000000  0.5330510000000  0.5694630000000 1.0
C      1  0.4588030000000  0.4293550000000  0.4840080000000 1.0
C      1  0.4530690000000  0.5703810000000  0.5183420000000 1.0
C      1  0.5470680000000  0.4175220000000  0.4818060000000 1.0
C      1  0.5404370000000  0.5732740000000  0.5198080000000 1.0
C      1  0.4583640000000  0.4274910000000  0.5138510000000 1.0
C      1  0.4490410000000  0.5728210000000  0.4878710000000 1.0
C      1  0.5408800000000  0.4264600000000  0.5169570000000 1.0
C      1  0.5379840000000  0.5633810000000  0.4895820000000 1.0
C      1  0.4296620000000  0.5125780000000  0.4498640000000 1.0
C      1  0.4282780000000  0.4882960000000  0.5501000000000 1.0
C      1  0.5672470000000  0.5095880000000  0.4417260000000 1.0
C      1  0.5688970000000  0.4868720000000  0.5532580000000 1.0
C      1  0.4315600000000  0.5163090000000  0.5483510000000 1.0
C      1  0.4283100000000  0.4846000000000  0.4468090000000 1.0
C      1  0.5707650000000  0.5136910000000  0.5628830000000 1.0
C      1  0.5673560000000  0.4869320000000  0.4257640000000 1.0
C      1  0.5153640000000  0.5729510000000  0.5368680000000 1.0
C      1  0.5274820000000  0.4245450000000  0.4608130000000 1.0
C      1  0.4783140000000  0.5744570000000  0.5366260000000 1.0
C      1  0.4840020000000  0.4292010000000  0.4692320000000 1.0
C      1  0.5174670000000  0.5745590000000  0.4696280000000 1.0
C      1  0.5190570000000  0.4215470000000  0.5383210000000 1.0
C      1  0.4710680000000  0.5766670000000  0.4687690000000 1.0
C      1  0.4861790000000  0.4309280000000  0.5277160000000 1.0
C      1  0.4361290000000  0.4402050000000  0.4688490000000 1.0
C      1  0.4291470000000  0.5621970000000  0.5328550000000 1.0
C      1  0.5709480000000  0.4297570000000  0.4701960000000 1.0
C      1  0.5662930000000  0.5655190000000  0.5335420000000 1.0
C      1  0.4349990000000  0.4383430000000  0.5282140000000 1.0
C      1  0.4280150000000  0.5591250000000  0.4737550000000 1.0
C      1  0.5659350000000  0.4340330000000  0.5312370000000 1.0
C      1  0.5638520000000  0.5608160000000  0.4752310000000 1.0
C      1  0.5632440000000  0.4410720000000  0.5580070000000 1.0
C      1  0.5643610000000  0.5559180000000  0.4477820000000 1.0
C      1  0.4368320000000  0.4431650000000  0.5559850000000 1.0
C      1  0.4319410000000  0.5562800000000  0.4457240000000 1.0
C      1  0.5672830000000  0.4435320000000  0.4457600000000 1.0
C      1  0.5639500000000  0.5608940000000  0.5612450000000 1.0
C      1  0.4359730000000  0.4395430000000  0.4404650000000 1.0
C      1  0.4326360000000  0.5588170000000  0.5607970000000 1.0
C      1  0.5848390000000  0.4495320000000  0.5169220000000 1.0
C      1  0.5850780000000  0.5484140000000  0.4903960000000 1.0
C      1  0.4181670000000  0.4568680000000  0.5130550000000 1.0
C      1  0.4103160000000  0.5431510000000  0.4902900000000 1.0
C      1  0.5900990000000  0.4429630000000  0.4884870000000 1.0
C      1  0.5816130000000  0.5419850000000  0.5202300000000 1.0
C      1  0.4154880000000  0.4546690000000  0.4835830000000 1.0
C      1  0.4096640000000  0.5457250000000  0.5189410000000 1.0
C      1  0.5270080000000  0.4507940000000  0.5031820000000 1.0
C      1  0.5241320000000  0.5368620000000  0.4973350000000 1.0
C      1  0.4884270000000  0.4751280000000  0.4987570000000 1.0
C      1  0.4931720000000  0.5425220000000  0.4963520000000 1.0
C      1  0.4966070000000  0.4459840000000  0.5008510000000 1.0
C      1  0.4932630000000  0.5719120000000  0.4860750000000 1.0
C      1  0.5148970000000  0.4931070000000  0.4965970000000 1.0
END
