TITL C-3578196-9646-623 -9.84866617621521e-08 125000 -279.398793898705 0 0 47 (C1) n - 1
REM
REM in /home/bkarasulu/work/CARBON/AIRSS/Generating-Clusters/EDIP-Nigel-Params/with-SteepDescent/Higher-Symm/SD-CG/HFTN-CG
REM
REM
REM
REM
REM
REM ./C.cell (12c818d87b63d06a65506943cc24bca4)
REM
REM compiler GCC version 9.2.1 20190827 (Red Hat 9.2.1-1)
REM options -cpp -mtune=generic -march=x86-64 -g -O0 -fpre-include=/usr/include/finclude/math-vector-fortran.h
REM seed -1683294430 1663629344 -527810155 -1249894555 1886484936 1367511029 570756828 -1249749775 -849360288 -51368537 1130610474 -944814660 -1393556119 -2127610872 2043295343 1741662677 -508056856 2062478917 436787572 1757665519 -528174605 -503585317 -1613024996 675332180 -1270536747 -1786732383 1100894347 682825170 1245285042 -1964200545 327994318 -1903856318 -2028497072
REM
CELL 1.54180   50.00000   50.00000   50.00000   90.00000   90.00000   90.00000
LATT -1
SFAC C  
C      1  0.5451300000000  0.4447510000000  0.4939270000000 1.0
C      1  0.4964160000000  0.4441740000000  0.4766350000000 1.0
C      1  0.4705780000000  0.4441560000000  0.4892380000000 1.0
C      1  0.4740270000000  0.4447720000000  0.5182530000000 1.0
C      1  0.5028510000000  0.4405940000000  0.5239420000000 1.0
C      1  0.5455320000000  0.5564420000000  0.4889400000000 1.0
C      1  0.4947040000000  0.5595050000000  0.4775970000000 1.0
C      1  0.4720380000000  0.5527270000000  0.4964220000000 1.0
C      1  0.4825400000000  0.5524110000000  0.5237790000000 1.0
C      1  0.5097970000000  0.5636530000000  0.5241740000000 1.0
C      1  0.5097870000000  0.4721060000000  0.4331240000000 1.0
C      1  0.4381820000000  0.4735400000000  0.4640690000000 1.0
C      1  0.4530820000000  0.4842470000000  0.5496050000000 1.0
C      1  0.5153730000000  0.4818880000000  0.5554900000000 1.0
C      1  0.5766250000000  0.4868130000000  0.4854630000000 1.0
C      1  0.4964630000000  0.5206470000000  0.4405810000000 1.0
C      1  0.4460720000000  0.5213210000000  0.4674140000000 1.0
C      1  0.4538610000000  0.5235520000000  0.5568310000000 1.0
C      1  0.5221190000000  0.5314490000000  0.5611160000000 1.0
C      1  0.5718240000000  0.5111730000000  0.4993470000000 1.0
C      1  0.4994050000000  0.4539990000000  0.4505470000000 1.0
C      1  0.4472380000000  0.4509540000000  0.4759850000000 1.0
C      1  0.4594910000000  0.4620850000000  0.5346940000000 1.0
C      1  0.5121580000000  0.4562020000000  0.5459650000000 1.0
C      1  0.5661350000000  0.4613150000000  0.4863610000000 1.0
C      1  0.4977890000000  0.5466070000000  0.4518110000000 1.0
C      1  0.4504760000000  0.5322590000000  0.4929030000000 1.0
C      1  0.4676600000000  0.5450630000000  0.5464490000000 1.0
C      1  0.5291950000000  0.5500520000000  0.5413870000000 1.0
C      1  0.5641250000000  0.5363070000000  0.4885870000000 1.0
C      1  0.5265920000000  0.5250250000000  0.5126670000000 1.0
C      1  0.5182900000000  0.5226040000000  0.4827980000000 1.0
C      1  0.4881310000000  0.5158100000000  0.4782220000000 1.0
C      1  0.4641280000000  0.5132000000000  0.5141400000000 1.0
C      1  0.5014340000000  0.5124680000000  0.5255120000000 1.0
C      1  0.5330860000000  0.4835270000000  0.4975370000000 1.0
C      1  0.5280600000000  0.4980850000000  0.4707090000000 1.0
C      1  0.4769380000000  0.4833870000000  0.4698550000000 1.0
C      1  0.4771390000000  0.4857330000000  0.5021810000000 1.0
C      1  0.5062320000000  0.4833120000000  0.5153230000000 1.0
C      1  0.5485260000000  0.5038730000000  0.5150510000000 1.0
C      1  0.5118170000000  0.4964920000000  0.4465490000000 1.0
C      1  0.4525010000000  0.4964010000000  0.4567050000000 1.0
C      1  0.5071340000000  0.5089230000000  0.5537350000000 1.0
C      1  0.4461680000000  0.5071920000000  0.5364540000000 1.0
C      1  0.5188880000000  0.5650820000000  0.4954000000000 1.0
C      1  0.5167040000000  0.4427610000000  0.4976280000000 1.0
END
