TITL C-3578198-8939-420 -2.20546258151076e-06 125000 -1074.05834533197 0 0 170 (C1) n - 1
REM
REM in /home/bkarasulu/work/CARBON/AIRSS/Generating-Clusters/EDIP-Nigel-Params/with-SteepDescent/Higher-Symm/SD-CG/HFTN-CG
REM
REM
REM
REM
REM
REM ./C.cell (12c818d87b63d06a65506943cc24bca4)
REM
REM compiler GCC version 9.2.1 20190827 (Red Hat 9.2.1-1)
REM options -cpp -mtune=generic -march=x86-64 -g -O0 -fpre-include=/usr/include/finclude/math-vector-fortran.h
REM seed -1733734660 1823190954 599836821 362278720 -2111944271 -1179092376 -1374618888 1885718363 582563772 -243274974 -598073118 524818701 -1560087492 1632084981 1096472812 -340431957 -623502342 -2053386168 -817973473 -1542407139 395346314 -801687416 -421480724 1734605557 -151346038 897204794 1442857731 144301264 1075589662 726227124 -723229989 2056652235 971649687
REM
CELL 1.54180   50.00000   50.00000   50.00000   90.00000   90.00000   90.00000
LATT -1
SFAC C  
C      1  0.4343590000000  0.5677740000000  0.5173230000000 1.0
C      1  0.4249630000000  0.5436260000000  0.4393720000000 1.0
C      1  0.4316660000000  0.4584080000000  0.4437970000000 1.0
C      1  0.4333600000000  0.4208870000000  0.5299470000000 1.0
C      1  0.4288850000000  0.5034280000000  0.5761150000000 1.0
C      1  0.4420070000000  0.4446330000000  0.5722170000000 1.0
C      1  0.4379250000000  0.5503350000000  0.5832170000000 1.0
C      1  0.4402240000000  0.5965970000000  0.4775240000000 1.0
C      1  0.4495010000000  0.5120980000000  0.4151840000000 1.0
C      1  0.4492070000000  0.4190120000000  0.4621140000000 1.0
C      1  0.5363610000000  0.5921360000000  0.4714960000000 1.0
C      1  0.5401490000000  0.5023390000000  0.3951270000000 1.0
C      1  0.5430850000000  0.4011460000000  0.4587860000000 1.0
C      1  0.5344410000000  0.4415350000000  0.5711270000000 1.0
C      1  0.5373460000000  0.5544040000000  0.5865450000000 1.0
C      1  0.5234730000000  0.5476570000000  0.4066160000000 1.0
C      1  0.5265440000000  0.4240550000000  0.4188170000000 1.0
C      1  0.5267130000000  0.4008010000000  0.5470290000000 1.0
C      1  0.5318920000000  0.5135890000000  0.6122560000000 1.0
C      1  0.5246820000000  0.6046570000000  0.5138100000000 1.0
C      1  0.4801010000000  0.3853270000000  0.4912030000000 1.0
C      1  0.4794970000000  0.4619650000000  0.6052820000000 1.0
C      1  0.4745370000000  0.5809320000000  0.5637920000000 1.0
C      1  0.4755650000000  0.5876740000000  0.4405310000000 1.0
C      1  0.4767970000000  0.4694640000000  0.3993230000000 1.0
C      1  0.5376160000000  0.5061390000000  0.4765640000000 1.0
C      1  0.5356980000000  0.4777690000000  0.4855840000000 1.0
C      1  0.5371640000000  0.4760060000000  0.5172020000000 1.0
C      1  0.5439390000000  0.5050950000000  0.5253860000000 1.0
C      1  0.5432170000000  0.5209010000000  0.5008430000000 1.0
C      1  0.5123050000000  0.5004100000000  0.3854410000000 1.0
C      1  0.5155400000000  0.3894500000000  0.4559180000000 1.0
C      1  0.5122670000000  0.4317350000000  0.5883100000000 1.0
C      1  0.5094480000000  0.5615390000000  0.5952390000000 1.0
C      1  0.5113920000000  0.6060140000000  0.4666330000000 1.0
C      1  0.5858650000000  0.5541390000000  0.4673980000000 1.0
C      1  0.5844430000000  0.4870860000000  0.4372720000000 1.0
C      1  0.5855280000000  0.4378780000000  0.4919110000000 1.0
C      1  0.5845590000000  0.4758750000000  0.5542310000000 1.0
C      1  0.5872910000000  0.5480830000000  0.5411290000000 1.0
C      1  0.4946430000000  0.5146070000000  0.4032650000000 1.0
C      1  0.4950340000000  0.4098830000000  0.4523730000000 1.0
C      1  0.4872880000000  0.4269320000000  0.5739890000000 1.0
C      1  0.4850320000000  0.5455050000000  0.5955810000000 1.0
C      1  0.4891050000000  0.6028120000000  0.4851500000000 1.0
C      1  0.4112390000000  0.4659960000000  0.5433900000000 1.0
C      1  0.4143560000000  0.5387610000000  0.5443260000000 1.0
C      1  0.4242190000000  0.5738890000000  0.4715760000000 1.0
C      1  0.4276730000000  0.4996110000000  0.4285060000000 1.0
C      1  0.4306650000000  0.4314500000000  0.4807760000000 1.0
C      1  0.3750750000000  0.5095690000000  0.4767490000000 1.0
C      1  0.3659700000000  0.4850280000000  0.4879120000000 1.0
C      1  0.3752610000000  0.4871650000000  0.5148450000000 1.0
C      1  0.3782660000000  0.5163690000000  0.5200460000000 1.0
C      1  0.3686840000000  0.5292290000000  0.4963150000000 1.0
C      1  0.5243800000000  0.5508460000000  0.5337310000000 1.0
C      1  0.5205340000000  0.5512010000000  0.4687580000000 1.0
C      1  0.5172750000000  0.4689850000000  0.4412980000000 1.0
C      1  0.5123970000000  0.4328760000000  0.5156030000000 1.0
C      1  0.5125040000000  0.5126390000000  0.5669560000000 1.0
C      1  0.5661790000000  0.4204510000000  0.5044340000000 1.0
C      1  0.5636140000000  0.4850410000000  0.5718170000000 1.0
C      1  0.5649610000000  0.5670960000000  0.5399000000000 1.0
C      1  0.5655830000000  0.5578730000000  0.4468010000000 1.0
C      1  0.5620920000000  0.4703390000000  0.4282310000000 1.0
C      1  0.4198720000000  0.5570210000000  0.4940430000000 1.0
C      1  0.4123880000000  0.5176720000000  0.4446110000000 1.0
C      1  0.4182680000000  0.4547660000000  0.4693850000000 1.0
C      1  0.4306470000000  0.4448240000000  0.5467410000000 1.0
C      1  0.4233620000000  0.5308560000000  0.5700800000000 1.0
C      1  0.4531620000000  0.5004960000000  0.5273090000000 1.0
C      1  0.4606330000000  0.5218220000000  0.5091880000000 1.0
C      1  0.4558130000000  0.5151640000000  0.4804230000000 1.0
C      1  0.4580430000000  0.4836240000000  0.4809670000000 1.0
C      1  0.4478590000000  0.4750490000000  0.5102180000000 1.0
C      1  0.4523550000000  0.4380780000000  0.4383330000000 1.0
C      1  0.4604980000000  0.4109470000000  0.5298570000000 1.0
C      1  0.4528930000000  0.4988110000000  0.5914230000000 1.0
C      1  0.4569520000000  0.5902560000000  0.5115010000000 1.0
C      1  0.4515700000000  0.5398580000000  0.4264770000000 1.0
C      1  0.4668130000000  0.5003070000000  0.5552400000000 1.0
C      1  0.4685900000000  0.5488800000000  0.5182880000000 1.0
C      1  0.4732760000000  0.5304160000000  0.4573310000000 1.0
C      1  0.4730860000000  0.4638090000000  0.4586640000000 1.0
C      1  0.4657080000000  0.4480660000000  0.5199360000000 1.0
C      1  0.4051210000000  0.4812580000000  0.5176320000000 1.0
C      1  0.4085620000000  0.5181120000000  0.5221290000000 1.0
C      1  0.4203240000000  0.5269040000000  0.4938200000000 1.0
C      1  0.4049550000000  0.5085790000000  0.4728790000000 1.0
C      1  0.4156700000000  0.4789850000000  0.4872130000000 1.0
C      1  0.4953760000000  0.4763110000000  0.5033450000000 1.0
C      1  0.5026090000000  0.4907630000000  0.5281530000000 1.0
C      1  0.5032610000000  0.5213560000000  0.5210350000000 1.0
C      1  0.5001960000000  0.5247980000000  0.4910100000000 1.0
C      1  0.4953750000000  0.4951850000000  0.4807550000000 1.0
C      1  0.5828240000000  0.4481070000000  0.4649530000000 1.0
C      1  0.5842420000000  0.4517530000000  0.5371750000000 1.0
C      1  0.5873270000000  0.5243810000000  0.5583830000000 1.0
C      1  0.5854480000000  0.5625260000000  0.4956840000000 1.0
C      1  0.5862830000000  0.5165110000000  0.4375780000000 1.0
C      1  0.4881350000000  0.4795340000000  0.5515030000000 1.0
C      1  0.4901700000000  0.5466460000000  0.5407930000000 1.0
C      1  0.4887650000000  0.5561040000000  0.4682380000000 1.0
C      1  0.4934410000000  0.4844800000000  0.4471430000000 1.0
C      1  0.4912090000000  0.4467340000000  0.5003870000000 1.0
C      1  0.4178330000000  0.5664070000000  0.5404620000000 1.0
C      1  0.4134400000000  0.5682490000000  0.4463870000000 1.0
C      1  0.4197150000000  0.4733750000000  0.4235470000000 1.0
C      1  0.4216080000000  0.4208600000000  0.5047640000000 1.0
C      1  0.4130870000000  0.4833510000000  0.5649470000000 1.0
C      1  0.5462340000000  0.4659330000000  0.5839540000000 1.0
C      1  0.5465560000000  0.5719960000000  0.5633770000000 1.0
C      1  0.5462170000000  0.5794590000000  0.4472900000000 1.0
C      1  0.5476580000000  0.4745370000000  0.4030020000000 1.0
C      1  0.5465850000000  0.4060680000000  0.4880340000000 1.0
C      1  0.4776020000000  0.4460280000000  0.4184190000000 1.0
C      1  0.4820380000000  0.3936060000000  0.5202640000000 1.0
C      1  0.4784730000000  0.4913250000000  0.6033700000000 1.0
C      1  0.4790380000000  0.5893050000000  0.5348260000000 1.0
C      1  0.4763390000000  0.5613480000000  0.4262600000000 1.0
C      1  0.4735580000000  0.4061610000000  0.4708500000000 1.0
C      1  0.4669810000000  0.4440110000000  0.5848000000000 1.0
C      1  0.4641020000000  0.5591580000000  0.5813670000000 1.0
C      1  0.4671540000000  0.5944600000000  0.4684850000000 1.0
C      1  0.4731470000000  0.4970780000000  0.4096980000000 1.0
C      1  0.5222490000000  0.5879920000000  0.5574640000000 1.0
C      1  0.5243900000000  0.5807360000000  0.4269840000000 1.0
C      1  0.5254300000000  0.4550890000000  0.3956670000000 1.0
C      1  0.5273070000000  0.3894060000000  0.5018700000000 1.0
C      1  0.5275170000000  0.4758410000000  0.6041750000000 1.0
C      1  0.5074980000000  0.4533350000000  0.6083100000000 1.0
C      1  0.5014160000000  0.5827800000000  0.5766030000000 1.0
C      1  0.5031880000000  0.5988970000000  0.4392100000000 1.0
C      1  0.5030710000000  0.4718070000000  0.3841810000000 1.0
C      1  0.5083430000000  0.3770950000000  0.4827120000000 1.0
C      1  0.6180370000000  0.4998440000000  0.5238580000000 1.0
C      1  0.6182390000000  0.5242470000000  0.5068640000000 1.0
C      1  0.6176950000000  0.5152530000000  0.4783530000000 1.0
C      1  0.6166460000000  0.4854940000000  0.4774270000000 1.0
C      1  0.6168590000000  0.4761790000000  0.5055900000000 1.0
C      1  0.4957850000000  0.4436810000000  0.4698180000000 1.0
C      1  0.4859500000000  0.4510670000000  0.5456840000000 1.0
C      1  0.4856730000000  0.5256150000000  0.5628160000000 1.0
C      1  0.4839460000000  0.5661950000000  0.4973830000000 1.0
C      1  0.4972160000000  0.5150110000000  0.4416670000000 1.0
C      1  0.5318370000000  0.5478320000000  0.5012670000000 1.0
C      1  0.5244250000000  0.5239550000000  0.4544730000000 1.0
C      1  0.5294060000000  0.4564660000000  0.4652470000000 1.0
C      1  0.5196410000000  0.4521440000000  0.5366440000000 1.0
C      1  0.5371570000000  0.5219200000000  0.5504540000000 1.0
C      1  0.5454730000000  0.5944390000000  0.4986010000000 1.0
C      1  0.5435810000000  0.5274200000000  0.4109170000000 1.0
C      1  0.5489100000000  0.4210210000000  0.4370750000000 1.0
C      1  0.5458090000000  0.4207940000000  0.5530660000000 1.0
C      1  0.5507920000000  0.5298090000000  0.5968820000000 1.0
C      1  0.5101970000000  0.5014080000000  0.5955190000000 1.0
C      1  0.5086380000000  0.5922340000000  0.5325660000000 1.0
C      1  0.5063860000000  0.5557160000000  0.4291280000000 1.0
C      1  0.5093570000000  0.4482850000000  0.4214860000000 1.0
C      1  0.5116400000000  0.4037220000000  0.5225310000000 1.0
C      1  0.5984420000000  0.5288320000000  0.4610220000000 1.0
C      1  0.5954260000000  0.4738910000000  0.4604890000000 1.0
C      1  0.5970510000000  0.4555120000000  0.5116850000000 1.0
C      1  0.5980340000000  0.5000060000000  0.5454410000000 1.0
C      1  0.5984000000000  0.5446880000000  0.5144100000000 1.0
C      1  0.5642730000000  0.4302540000000  0.5325500000000 1.0
C      1  0.5609840000000  0.5158480000000  0.5713030000000 1.0
C      1  0.5640680000000  0.5758560000000  0.5110440000000 1.0
C      1  0.5666800000000  0.5356750000000  0.4270120000000 1.0
C      1  0.5569180000000  0.4474880000000  0.4486850000000 1.0
END
