TITL C-3577086-586-660 -5.96686574835213e-07 125000 -1097.85897699483 0 0 176 (C1) n - 1
REM
REM in /home/bkarasulu/work/CARBON/AIRSS/Generating-Clusters/EDIP-Nigel-Params/with-SteepDescent/Higher-Symm/SD-CG/HFTN-CG
REM
REM
REM
REM
REM
REM ./C.cell (12c818d87b63d06a65506943cc24bca4)
REM
REM compiler GCC version 9.2.1 20190827 (Red Hat 9.2.1-1)
REM options -cpp -mtune=generic -march=x86-64 -g -O0 -fpre-include=/usr/include/finclude/math-vector-fortran.h
REM seed 1337493000 1756439351 -662884290 -1044768718 312475000 99000017 -1506433038 1678043770 318271177 -310957866 -1594753659 -8172102 586434585 1914954129 -489062237 1599923674 -1864411445 1801177996 -226430449 1775402671 833411517 -165738057 -438272124 1211831061 101144030 -545358692 -1449259769 1438760475 2029717875 474395934 1258013890 -844584498 -2068764510
REM
CELL 1.54180   50.00000   50.00000   50.00000   90.00000   90.00000   90.00000
LATT -1
SFAC C  
C      1  0.4430010000000  0.5005860000000  0.4732400000000 1.0
C      1  0.5299580000000  0.5162860000000  0.6022720000000 1.0
C      1  0.4983780000000  0.5326010000000  0.3932340000000 1.0
C      1  0.5059910000000  0.4727060000000  0.4669090000000 1.0
C      1  0.4933050000000  0.3939920000000  0.5052830000000 1.0
C      1  0.4755410000000  0.4341000000000  0.5014510000000 1.0
C      1  0.4841190000000  0.4086750000000  0.4629540000000 1.0
C      1  0.5810680000000  0.4503190000000  0.5627850000000 1.0
C      1  0.4824560000000  0.5378180000000  0.5004270000000 1.0
C      1  0.4993910000000  0.4993600000000  0.5751550000000 1.0
C      1  0.5142010000000  0.4122400000000  0.4284140000000 1.0
C      1  0.5514010000000  0.5946620000000  0.5404120000000 1.0
C      1  0.5480010000000  0.5367930000000  0.5936910000000 1.0
C      1  0.5516080000000  0.3953080000000  0.4793500000000 1.0
C      1  0.4409860000000  0.5784290000000  0.4593460000000 1.0
C      1  0.5081350000000  0.5997270000000  0.4346470000000 1.0
C      1  0.4874640000000  0.4141770000000  0.4357510000000 1.0
C      1  0.4285670000000  0.5505660000000  0.5631490000000 1.0
C      1  0.4296790000000  0.5944640000000  0.5361150000000 1.0
C      1  0.4795920000000  0.5660720000000  0.4286100000000 1.0
C      1  0.6139120000000  0.5180910000000  0.4804030000000 1.0
C      1  0.4943140000000  0.5531390000000  0.5958620000000 1.0
C      1  0.3901230000000  0.4988570000000  0.5189840000000 1.0
C      1  0.4654040000000  0.3974340000000  0.5026240000000 1.0
C      1  0.4673210000000  0.5828800000000  0.4716820000000 1.0
C      1  0.5727120000000  0.4416990000000  0.4649730000000 1.0
C      1  0.5247070000000  0.5323440000000  0.4060570000000 1.0
C      1  0.5295450000000  0.6060900000000  0.5541790000000 1.0
C      1  0.5280580000000  0.4892590000000  0.3813980000000 1.0
C      1  0.5472120000000  0.4531740000000  0.4793170000000 1.0
C      1  0.5618830000000  0.5681690000000  0.4635830000000 1.0
C      1  0.5273490000000  0.3821360000000  0.4719860000000 1.0
C      1  0.4330430000000  0.4165570000000  0.4743850000000 1.0
C      1  0.4840530000000  0.4085400000000  0.5515990000000 1.0
C      1  0.5317230000000  0.4657140000000  0.5263720000000 1.0
C      1  0.5158970000000  0.4662040000000  0.4243580000000 1.0
C      1  0.4669080000000  0.4288370000000  0.4240480000000 1.0
C      1  0.3880820000000  0.4703670000000  0.5115720000000 1.0
C      1  0.5518330000000  0.5465320000000  0.4444960000000 1.0
C      1  0.5409660000000  0.5489130000000  0.5017070000000 1.0
C      1  0.4973880000000  0.4733300000000  0.5884020000000 1.0
C      1  0.5357200000000  0.5231180000000  0.5596940000000 1.0
C      1  0.5760410000000  0.5466000000000  0.5433990000000 1.0
C      1  0.4625570000000  0.5948120000000  0.4999620000000 1.0
C      1  0.5420020000000  0.4943380000000  0.4233550000000 1.0
C      1  0.5075830000000  0.5809990000000  0.5144900000000 1.0
C      1  0.4293560000000  0.4844880000000  0.5799020000000 1.0
C      1  0.4654250000000  0.5212100000000  0.4570260000000 1.0
C      1  0.5209850000000  0.6063360000000  0.5067330000000 1.0
C      1  0.3876570000000  0.4647280000000  0.4830060000000 1.0
C      1  0.4741310000000  0.4765130000000  0.4334640000000 1.0
C      1  0.5264480000000  0.5324710000000  0.4566670000000 1.0
C      1  0.5046320000000  0.4727000000000  0.4961020000000 1.0
C      1  0.4530430000000  0.5342230000000  0.3957120000000 1.0
C      1  0.5693170000000  0.5055150000000  0.4812640000000 1.0
C      1  0.3969950000000  0.5238950000000  0.4731280000000 1.0
C      1  0.4075480000000  0.4278570000000  0.5202570000000 1.0
C      1  0.4336500000000  0.5583770000000  0.5057050000000 1.0
C      1  0.4305390000000  0.4393920000000  0.4558620000000 1.0
C      1  0.4140910000000  0.5056050000000  0.4558930000000 1.0
C      1  0.6017420000000  0.4562780000000  0.5415080000000 1.0
C      1  0.4058950000000  0.5195120000000  0.5011490000000 1.0
C      1  0.4501930000000  0.5651360000000  0.4340380000000 1.0
C      1  0.4877540000000  0.4560280000000  0.4500140000000 1.0
C      1  0.4648040000000  0.4469110000000  0.4726540000000 1.0
C      1  0.5076050000000  0.4022700000000  0.4804760000000 1.0
C      1  0.4271560000000  0.5562050000000  0.4749070000000 1.0
C      1  0.4090700000000  0.4771930000000  0.5603300000000 1.0
C      1  0.4224560000000  0.5215980000000  0.4313960000000 1.0
C      1  0.5819530000000  0.4983700000000  0.5586340000000 1.0
C      1  0.4762560000000  0.4709960000000  0.5315490000000 1.0
C      1  0.5208740000000  0.5778550000000  0.4216790000000 1.0
C      1  0.5633710000000  0.5191500000000  0.5467310000000 1.0
C      1  0.5139400000000  0.5391020000000  0.5428710000000 1.0
C      1  0.5969290000000  0.4387260000000  0.5146060000000 1.0
C      1  0.4593610000000  0.4878410000000  0.5475390000000 1.0
C      1  0.5027000000000  0.4060080000000  0.5289570000000 1.0
C      1  0.4601640000000  0.4463600000000  0.5258140000000 1.0
C      1  0.5679430000000  0.4347830000000  0.5177260000000 1.0
C      1  0.4728110000000  0.4770470000000  0.6032470000000 1.0
C      1  0.4787790000000  0.5816560000000  0.5222750000000 1.0
C      1  0.4005110000000  0.4805470000000  0.4498350000000 1.0
C      1  0.4585240000000  0.4030230000000  0.4757360000000 1.0
C      1  0.5411510000000  0.4183850000000  0.5547630000000 1.0
C      1  0.4431530000000  0.5378700000000  0.4447620000000 1.0
C      1  0.5055640000000  0.4439670000000  0.5063980000000 1.0
C      1  0.5969250000000  0.5348380000000  0.4628640000000 1.0
C      1  0.5312280000000  0.4040580000000  0.5314620000000 1.0
C      1  0.4352760000000  0.5879230000000  0.5097400000000 1.0
C      1  0.5392290000000  0.5033960000000  0.4781280000000 1.0
C      1  0.5718800000000  0.5015490000000  0.4274200000000 1.0
C      1  0.5091150000000  0.4740750000000  0.3952930000000 1.0
C      1  0.5116080000000  0.4973210000000  0.5287490000000 1.0
C      1  0.4424090000000  0.4425520000000  0.4278080000000 1.0
C      1  0.5397210000000  0.5083350000000  0.3979980000000 1.0
C      1  0.6029680000000  0.4862060000000  0.5397900000000 1.0
C      1  0.5885800000000  0.4899680000000  0.4620330000000 1.0
C      1  0.4552350000000  0.4733980000000  0.4855280000000 1.0
C      1  0.4526760000000  0.5120820000000  0.5844340000000 1.0
C      1  0.4344630000000  0.5104430000000  0.5004510000000 1.0
C      1  0.4129410000000  0.5329530000000  0.5457240000000 1.0
C      1  0.5424370000000  0.5734590000000  0.4853910000000 1.0
C      1  0.5625000000000  0.4354700000000  0.5462510000000 1.0
C      1  0.4827980000000  0.5977870000000  0.4499940000000 1.0
C      1  0.4838670000000  0.4838990000000  0.3881520000000 1.0
C      1  0.4693120000000  0.5568220000000  0.5802320000000 1.0
C      1  0.4685940000000  0.5522360000000  0.5220900000000 1.0
C      1  0.4810370000000  0.5971000000000  0.5557730000000 1.0
C      1  0.5492000000000  0.5996630000000  0.5112400000000 1.0
C      1  0.5035910000000  0.5547220000000  0.4571420000000 1.0
C      1  0.4173770000000  0.4164070000000  0.4977710000000 1.0
C      1  0.5367070000000  0.4245680000000  0.4393440000000 1.0
C      1  0.5379730000000  0.5557310000000  0.4186090000000 1.0
C      1  0.5218910000000  0.4679200000000  0.6033420000000 1.0
C      1  0.6178860000000  0.4918260000000  0.4690340000000 1.0
C      1  0.4811500000000  0.5087650000000  0.4031390000000 1.0
C      1  0.4850310000000  0.5044600000000  0.4341860000000 1.0
C      1  0.5417880000000  0.4504020000000  0.4275370000000 1.0
C      1  0.5307270000000  0.5061490000000  0.5083160000000 1.0
C      1  0.4079610000000  0.4553460000000  0.5288460000000 1.0
C      1  0.4997150000000  0.5245130000000  0.6049020000000 1.0
C      1  0.5873230000000  0.5503380000000  0.5176530000000 1.0
C      1  0.4778100000000  0.4828140000000  0.5039330000000 1.0
C      1  0.5469750000000  0.4126300000000  0.5063390000000 1.0
C      1  0.5566500000000  0.4614410000000  0.5073380000000 1.0
C      1  0.4100330000000  0.4591160000000  0.4655100000000 1.0
C      1  0.4771510000000  0.5523820000000  0.4009410000000 1.0
C      1  0.4099100000000  0.5441480000000  0.5184560000000 1.0
C      1  0.4738310000000  0.5105700000000  0.5614000000000 1.0
C      1  0.4540600000000  0.4675920000000  0.5808620000000 1.0
C      1  0.4610660000000  0.5839620000000  0.5717230000000 1.0
C      1  0.5339390000000  0.4767080000000  0.4622360000000 1.0
C      1  0.5673090000000  0.4587170000000  0.4399190000000 1.0
C      1  0.5583260000000  0.4153460000000  0.4580590000000 1.0
C      1  0.4344100000000  0.4638100000000  0.5173360000000 1.0
C      1  0.4826920000000  0.5392990000000  0.5479490000000 1.0
C      1  0.5410960000000  0.4889850000000  0.5981570000000 1.0
C      1  0.5222140000000  0.4288380000000  0.5735280000000 1.0
C      1  0.4965620000000  0.4155090000000  0.5770280000000 1.0
C      1  0.5691530000000  0.5380770000000  0.4985780000000 1.0
C      1  0.3992730000000  0.5514880000000  0.4684370000000 1.0
C      1  0.5847860000000  0.5563330000000  0.4788110000000 1.0
C      1  0.6039500000000  0.4951190000000  0.5105130000000 1.0
C      1  0.4363900000000  0.4933230000000  0.5263460000000 1.0
C      1  0.6173220000000  0.4737980000000  0.4918940000000 1.0
C      1  0.4558950000000  0.4375570000000  0.5773450000000 1.0
C      1  0.4712140000000  0.5068850000000  0.6082540000000 1.0
C      1  0.4347840000000  0.4851550000000  0.4014860000000 1.0
C      1  0.4785090000000  0.5110290000000  0.5039860000000 1.0
C      1  0.6010740000000  0.4498750000000  0.4878870000000 1.0
C      1  0.5678800000000  0.4760300000000  0.5734630000000 1.0
C      1  0.5754910000000  0.5272820000000  0.4431680000000 1.0
C      1  0.5327730000000  0.4438300000000  0.5944310000000 1.0
C      1  0.4761320000000  0.4259230000000  0.5937930000000 1.0
C      1  0.5248540000000  0.6114620000000  0.4551490000000 1.0
C      1  0.5554040000000  0.5037300000000  0.5232770000000 1.0
C      1  0.5867920000000  0.4758330000000  0.4267210000000 1.0
C      1  0.5246060000000  0.4290800000000  0.4887350000000 1.0
C      1  0.4786470000000  0.5456250000000  0.4725460000000 1.0
C      1  0.5740590000000  0.4895320000000  0.5060310000000 1.0
C      1  0.4473270000000  0.4710920000000  0.4229850000000 1.0
C      1  0.5381820000000  0.4686190000000  0.5624370000000 1.0
C      1  0.5219950000000  0.4965820000000  0.5569450000000 1.0
C      1  0.4380570000000  0.5122790000000  0.4090340000000 1.0
C      1  0.5134580000000  0.6172450000000  0.4806950000000 1.0
C      1  0.4355500000000  0.5789830000000  0.5585560000000 1.0
C      1  0.5145080000000  0.5698080000000  0.5820240000000 1.0
C      1  0.5552880000000  0.5668240000000  0.5524070000000 1.0
C      1  0.4106310000000  0.5008560000000  0.5418820000000 1.0
C      1  0.4448160000000  0.5402820000000  0.5850050000000 1.0
C      1  0.5273830000000  0.5603490000000  0.5264390000000 1.0
C      1  0.5424660000000  0.5616380000000  0.5801710000000 1.0
C      1  0.5077090000000  0.5945690000000  0.5676090000000 1.0
C      1  0.5172630000000  0.5065010000000  0.4410750000000 1.0
C      1  0.4597630000000  0.4266630000000  0.5498700000000 1.0
C      1  0.5158090000000  0.5790530000000  0.4725410000000 1.0
END
