TITL C-3577090-796-10 -2.04719250504624e-06 125000 -185.925516591167 0 0 32 (C1) n - 1
REM
REM in /home/bkarasulu/work/CARBON/AIRSS/Generating-Clusters/EDIP-Nigel-Params/with-SteepDescent/Higher-Symm/SD-CG/HFTN-CG
REM
REM
REM
REM
REM
REM ./C.cell (12c818d87b63d06a65506943cc24bca4)
REM
REM compiler GCC version 9.2.1 20190827 (Red Hat 9.2.1-1)
REM options -cpp -mtune=generic -march=x86-64 -g -O0 -fpre-include=/usr/include/finclude/math-vector-fortran.h
REM seed -210514531 -1105258148 -210850099 -439278496 -1086933953 1747933354 2029947273 102159264 1678583296 1761557516 1147178201 -360425679 7678839 -466824003 -990578252 -1871542040 -1943273577 305857268 -73842355 -1952322273 -389997776 1923910126 1167819922 -1335278179 1667425003 1948854024 -1489115794 -873171777 1260829400 -2027129393 33781825 1203591821 -1438768104
REM
CELL 1.54180   50.00000   50.00000   50.00000   90.00000   90.00000   90.00000
LATT -1
SFAC C  
C      1  0.4567320000000  0.5044590000000  0.5458010000000 1.0
C      1  0.5302040000000  0.4173490000000  0.5298830000000 1.0
C      1  0.4545120000000  0.5085850000000  0.4419650000000 1.0
C      1  0.5036280000000  0.5128330000000  0.4456900000000 1.0
C      1  0.4679860000000  0.4905710000000  0.5248970000000 1.0
C      1  0.5049010000000  0.4850520000000  0.4416670000000 1.0
C      1  0.5146660000000  0.5713230000000  0.5138390000000 1.0
C      1  0.4485950000000  0.4993850000000  0.4689160000000 1.0
C      1  0.5040450000000  0.4318440000000  0.5053930000000 1.0
C      1  0.4843450000000  0.5042970000000  0.5038800000000 1.0
C      1  0.4764750000000  0.5427360000000  0.5697080000000 1.0
C      1  0.5600720000000  0.4548190000000  0.5187880000000 1.0
C      1  0.5008450000000  0.5245850000000  0.5157110000000 1.0
C      1  0.5224910000000  0.5681050000000  0.4877770000000 1.0
C      1  0.5401400000000  0.5063000000000  0.4755480000000 1.0
C      1  0.4737030000000  0.4634810000000  0.5277900000000 1.0
C      1  0.4623530000000  0.4752330000000  0.4606270000000 1.0
C      1  0.4944940000000  0.4581830000000  0.5100850000000 1.0
C      1  0.4667930000000  0.5169250000000  0.4834130000000 1.0
C      1  0.5495400000000  0.4298000000000  0.5133820000000 1.0
C      1  0.4958900000000  0.5521630000000  0.5540480000000 1.0
C      1  0.5054410000000  0.5487190000000  0.5284770000000 1.0
C      1  0.5256470000000  0.5244490000000  0.4604060000000 1.0
C      1  0.5012130000000  0.4805620000000  0.4916420000000 1.0
C      1  0.5486980000000  0.4636320000000  0.4951540000000 1.0
C      1  0.4911340000000  0.4739420000000  0.4635460000000 1.0
C      1  0.4775580000000  0.5252000000000  0.4477160000000 1.0
C      1  0.5247850000000  0.5510690000000  0.4675390000000 1.0
C      1  0.5310740000000  0.4858790000000  0.4920770000000 1.0
C      1  0.4594360000000  0.5228920000000  0.5647480000000 1.0
C      1  0.5186480000000  0.5943650000000  0.5261130000000 1.0
C      1  0.5039540000000  0.4112640000000  0.5237730000000 1.0
END
