TITL C-3578195-8548-703 -1.32562300544982e-07 125000 -352.084790671018 0 0 57 (S4) n - 1
REM
REM in /home/bkarasulu/work/CARBON/AIRSS/Generating-Clusters/EDIP-Nigel-Params/with-SteepDescent/Higher-Symm/SD-CG/HFTN-CG
REM
REM
REM
REM
REM
REM ./C.cell (12c818d87b63d06a65506943cc24bca4)
REM
REM compiler GCC version 9.2.1 20190827 (Red Hat 9.2.1-1)
REM options -cpp -mtune=generic -march=x86-64 -g -O0 -fpre-include=/usr/include/finclude/math-vector-fortran.h
REM seed -1303066804 1463411510 -1728939956 -949740530 849275385 -722921929 1487681453 -2079630528 -1416478943 -242235808 -2076153901 1934527156 -768943632 -1762239141 585539440 1664901242 -132555768 -1657995111 600328182 -741273101 1890530631 1072228442 1789534204 -1757997939 -728091825 -1399909047 623564265 972576459 531019852 -42229980 -915751750 -878518441 631803935
REM
CELL 1.54180   50.00000   50.00000   50.00000   90.00000   90.00000   90.00000
LATT -1
SFAC C  
C      1  0.5211400000000  0.4406160000000  0.4648440000000 1.0
C      1  0.4660760000000  0.5582560000000  0.4786320000000 1.0
C      1  0.4786750000000  0.4404350000000  0.5335930000000 1.0
C      1  0.5348250000000  0.5577050000000  0.5210950000000 1.0
C      1  0.5363940000000  0.5631410000000  0.4932060000000 1.0
C      1  0.4931980000000  0.4354640000000  0.4632710000000 1.0
C      1  0.4645560000000  0.5633990000000  0.5065790000000 1.0
C      1  0.5065690000000  0.4350080000000  0.5351090000000 1.0
C      1  0.5595260000000  0.4782660000000  0.5143940000000 1.0
C      1  0.5152420000000  0.5201410000000  0.4402120000000 1.0
C      1  0.4406420000000  0.4789800000000  0.4844620000000 1.0
C      1  0.4853070000000  0.5196260000000  0.5590970000000 1.0
C      1  0.5583410000000  0.4564540000000  0.4946020000000 1.0
C      1  0.4956720000000  0.5421510000000  0.4414170000000 1.0
C      1  0.4416240000000  0.4569410000000  0.5040130000000 1.0
C      1  0.5050800000000  0.5414670000000  0.5581330000000 1.0
C      1  0.4717020000000  0.5383750000000  0.4272480000000 1.0
C      1  0.4274950000000  0.4608400000000  0.5279870000000 1.0
C      1  0.5290130000000  0.5373140000000  0.5722580000000 1.0
C      1  0.5725070000000  0.4604840000000  0.4706720000000 1.0
C      1  0.5548720000000  0.5376420000000  0.5308040000000 1.0
C      1  0.5310500000000  0.4605980000000  0.4448140000000 1.0
C      1  0.4458450000000  0.5384870000000  0.4687050000000 1.0
C      1  0.4689490000000  0.4602860000000  0.5538430000000 1.0
C      1  0.5233190000000  0.5180240000000  0.5060110000000 1.0
C      1  0.5064580000000  0.4804380000000  0.4763840000000 1.0
C      1  0.4772140000000  0.5183070000000  0.4932800000000 1.0
C      1  0.4937250000000  0.4802440000000  0.5224900000000 1.0
C      1  0.4708420000000  0.4960560000000  0.4488070000000 1.0
C      1  0.4494800000000  0.5029380000000  0.5288830000000 1.0
C      1  0.5294830000000  0.4952280000000  0.5502360000000 1.0
C      1  0.5509120000000  0.5027910000000  0.4702390000000 1.0
C      1  0.5288640000000  0.4527350000000  0.4920320000000 1.0
C      1  0.4931400000000  0.5458700000000  0.4708970000000 1.0
C      1  0.4710650000000  0.4529220000000  0.5065410000000 1.0
C      1  0.5076470000000  0.5454860000000  0.5286960000000 1.0
C      1  0.5710100000000  0.5249760000000  0.5107930000000 1.0
C      1  0.5111690000000  0.4734800000000  0.4286880000000 1.0
C      1  0.4295900000000  0.5257510000000  0.4885760000000 1.0
C      1  0.4889480000000  0.4728060000000  0.5701080000000 1.0
C      1  0.4827920000000  0.4590100000000  0.4771980000000 1.0
C      1  0.4782440000000  0.5397050000000  0.5169640000000 1.0
C      1  0.5171920000000  0.4586080000000  0.5214410000000 1.0
C      1  0.5224880000000  0.5396890000000  0.4825620000000 1.0
C      1  0.4599900000000  0.4729620000000  0.4632330000000 1.0
C      1  0.4641390000000  0.5258750000000  0.5397540000000 1.0
C      1  0.5401210000000  0.4721950000000  0.5355570000000 1.0
C      1  0.5364660000000  0.5259810000000  0.4596220000000 1.0
C      1  0.4987650000000  0.4931000000000  0.5518310000000 1.0
C      1  0.5525280000000  0.5048760000000  0.5009590000000 1.0
C      1  0.5015390000000  0.4936620000000  0.4471870000000 1.0
C      1  0.4478840000000  0.5053750000000  0.4981880000000 1.0
C      1  0.5551490000000  0.4767000000000  0.4552410000000 1.0
C      1  0.4561080000000  0.5223010000000  0.4445920000000 1.0
C      1  0.4450000000000  0.4767240000000  0.5435940000000 1.0
C      1  0.5444590000000  0.5212880000000  0.5547380000000 1.0
C      1  0.5001790000000  0.4992530000000  0.4995410000000 1.0
END
