TITL C-3577080-309-254 2.26086127884665e-06 125000 -565.676396165054 0 0 92 (C1) n - 1
REM
REM in /home/bkarasulu/work/CARBON/AIRSS/Generating-Clusters/EDIP-Nigel-Params/with-SteepDescent/Higher-Symm/SD-CG/HFTN-CG
REM
REM
REM
REM
REM
REM ./C.cell (12c818d87b63d06a65506943cc24bca4)
REM
REM compiler GCC version 9.2.1 20190827 (Red Hat 9.2.1-1)
REM options -cpp -mtune=generic -march=x86-64 -g -O0 -fpre-include=/usr/include/finclude/math-vector-fortran.h
REM seed -830407551 1134646508 1711246853 -769008641 -247746680 1263705204 -1452990367 -295637953 -699156775 1777279486 1400395762 2105439480 1653531953 1111985649 730936015 -528461291 -484993639 -1382327025 -304319836 413693682 -1461370740 -433835898 -1742314080 -2051570515 253706634 -629377901 1377833397 -704361803 -2014094949 1403643350 -1637285530 -1377868192 -429459007
REM
CELL 1.54180   50.00000   50.00000   50.00000   90.00000   90.00000   90.00000
LATT -1
SFAC C  
C      1  0.4544730000000  0.5335430000000  0.5059950000000 1.0
C      1  0.4551030000000  0.4844560000000  0.5259790000000 1.0
C      1  0.4649890000000  0.4929050000000  0.4783800000000 1.0
C      1  0.5463340000000  0.5308090000000  0.5068640000000 1.0
C      1  0.5489510000000  0.4819850000000  0.5262210000000 1.0
C      1  0.5371620000000  0.4906470000000  0.4788160000000 1.0
C      1  0.4726960000000  0.5229920000000  0.5649990000000 1.0
C      1  0.4729200000000  0.4207470000000  0.4902990000000 1.0
C      1  0.4711350000000  0.5498800000000  0.4361600000000 1.0
C      1  0.5289310000000  0.5220930000000  0.5639850000000 1.0
C      1  0.5297200000000  0.4192860000000  0.4902760000000 1.0
C      1  0.5282740000000  0.5498980000000  0.4377390000000 1.0
C      1  0.4705370000000  0.4344340000000  0.4449250000000 1.0
C      1  0.4669400000000  0.5849540000000  0.4682770000000 1.0
C      1  0.4684240000000  0.4815870000000  0.5870580000000 1.0
C      1  0.5328300000000  0.4335500000000  0.4451620000000 1.0
C      1  0.5300150000000  0.5845610000000  0.4703120000000 1.0
C      1  0.5325040000000  0.4810070000000  0.5868640000000 1.0
C      1  0.5840460000000  0.4438810000000  0.5242780000000 1.0
C      1  0.5810770000000  0.5067330000000  0.4446050000000 1.0
C      1  0.5785550000000  0.5363510000000  0.5278500000000 1.0
C      1  0.4167950000000  0.4501190000000  0.5204190000000 1.0
C      1  0.4180270000000  0.5066000000000  0.4471300000000 1.0
C      1  0.4253980000000  0.5406830000000  0.5305840000000 1.0
C      1  0.4843820000000  0.5704210000000  0.4515960000000 1.0
C      1  0.4862720000000  0.5018020000000  0.5785540000000 1.0
C      1  0.4868700000000  0.4248840000000  0.4654810000000 1.0
C      1  0.5138140000000  0.5702830000000  0.4524360000000 1.0
C      1  0.5153340000000  0.5018410000000  0.5789180000000 1.0
C      1  0.5160240000000  0.4239360000000  0.4654010000000 1.0
C      1  0.4694430000000  0.5590010000000  0.5074470000000 1.0
C      1  0.4689570000000  0.4643990000000  0.5443170000000 1.0
C      1  0.4719300000000  0.4821670000000  0.4500790000000 1.0
C      1  0.5315170000000  0.5566210000000  0.5091230000000 1.0
C      1  0.5346340000000  0.4620850000000  0.5446820000000 1.0
C      1  0.5290440000000  0.4807650000000  0.4509020000000 1.0
C      1  0.5709820000000  0.5654840000000  0.4900210000000 1.0
C      1  0.5745320000000  0.4743830000000  0.5601210000000 1.0
C      1  0.5703210000000  0.4627870000000  0.4588910000000 1.0
C      1  0.4269640000000  0.5651800000000  0.4901720000000 1.0
C      1  0.4272560000000  0.4770940000000  0.5579560000000 1.0
C      1  0.4304470000000  0.4612990000000  0.4547550000000 1.0
C      1  0.4529030000000  0.4727700000000  0.4983970000000 1.0
C      1  0.4512540000000  0.5205760000000  0.4783170000000 1.0
C      1  0.4714040000000  0.5119340000000  0.5222270000000 1.0
C      1  0.5525660000000  0.4705000000000  0.4986240000000 1.0
C      1  0.5475580000000  0.5193250000000  0.4786410000000 1.0
C      1  0.5310700000000  0.5077830000000  0.5223560000000 1.0
C      1  0.5561320000000  0.5474680000000  0.4409300000000 1.0
C      1  0.5567240000000  0.5219830000000  0.5665450000000 1.0
C      1  0.5576130000000  0.4225670000000  0.4903030000000 1.0
C      1  0.4433050000000  0.5466850000000  0.4385990000000 1.0
C      1  0.4448780000000  0.5218720000000  0.5671350000000 1.0
C      1  0.4452610000000  0.4254870000000  0.4905420000000 1.0
C      1  0.5142170000000  0.5258170000000  0.4306380000000 1.0
C      1  0.5147060000000  0.5444220000000  0.5526770000000 1.0
C      1  0.5156620000000  0.4253040000000  0.5147020000000 1.0
C      1  0.4859660000000  0.5260480000000  0.4298080000000 1.0
C      1  0.4865840000000  0.5429510000000  0.5497050000000 1.0
C      1  0.4871940000000  0.4262600000000  0.5146500000000 1.0
C      1  0.4127640000000  0.4748940000000  0.5331490000000 1.0
C      1  0.4120780000000  0.4823500000000  0.4596640000000 1.0
C      1  0.4121990000000  0.5465290000000  0.5063900000000 1.0
C      1  0.5897370000000  0.4684470000000  0.5366370000000 1.0
C      1  0.5842940000000  0.4870980000000  0.4643610000000 1.0
C      1  0.5876100000000  0.5461200000000  0.5025440000000 1.0
C      1  0.4335110000000  0.4500420000000  0.4975130000000 1.0
C      1  0.4321500000000  0.5285770000000  0.4570390000000 1.0
C      1  0.4365410000000  0.5154620000000  0.5407190000000 1.0
C      1  0.5699520000000  0.4459130000000  0.4997920000000 1.0
C      1  0.5675060000000  0.5278930000000  0.4578520000000 1.0
C      1  0.5657960000000  0.5131480000000  0.5411060000000 1.0
C      1  0.5955030000000  0.4977840000000  0.4898510000000 1.0
C      1  0.6000130000000  0.5254510000000  0.4881060000000 1.0
C      1  0.5921890000000  0.4877940000000  0.5163470000000 1.0
C      1  0.3995940000000  0.4851090000000  0.4859690000000 1.0
C      1  0.3995310000000  0.5215400000000  0.4989190000000 1.0
C      1  0.4084080000000  0.4961390000000  0.5121410000000 1.0
C      1  0.4739140000000  0.4381410000000  0.5358840000000 1.0
C      1  0.4737230000000  0.5012460000000  0.4295780000000 1.0
C      1  0.4748520000000  0.5635610000000  0.5346300000000 1.0
C      1  0.5293860000000  0.4357830000000  0.5364210000000 1.0
C      1  0.5263690000000  0.5007660000000  0.4312580000000 1.0
C      1  0.5270710000000  0.5627650000000  0.5359400000000 1.0
C      1  0.4560860000000  0.4585710000000  0.4429420000000 1.0
C      1  0.4530150000000  0.5770500000000  0.4915260000000 1.0
C      1  0.4526930000000  0.4676850000000  0.5679070000000 1.0
C      1  0.5463150000000  0.4582830000000  0.4441280000000 1.0
C      1  0.5450360000000  0.5763930000000  0.4927130000000 1.0
C      1  0.5488160000000  0.4657550000000  0.5695610000000 1.0
C      1  0.5148800000000  0.4942370000000  0.4999700000000 1.0
C      1  0.4878680000000  0.5037070000000  0.4967230000000 1.0
END
