TITL C-3578206-1180-700 -5.76530144217231e-06 125000 -552.99289798682 0 0 92 (C1) n - 1
REM
REM in /home/bkarasulu/work/CARBON/AIRSS/Generating-Clusters/EDIP-Nigel-Params/with-SteepDescent/Higher-Symm/SD-CG/HFTN-CG
REM
REM
REM
REM
REM
REM ./C.cell (12c818d87b63d06a65506943cc24bca4)
REM
REM compiler GCC version 9.2.1 20190827 (Red Hat 9.2.1-1)
REM options -cpp -mtune=generic -march=x86-64 -g -O0 -fpre-include=/usr/include/finclude/math-vector-fortran.h
REM seed 100001051 -1669366399 1258317049 -1589838115 -279352965 577386329 2137168067 1626252229 639539886 -2048073067 -972120226 -744088422 1020373930 -1536153721 -1134918049 1661128287 303091912 982860208 -755312882 -1061306663 685426384 -1916670639 -466852977 -1402982939 792794584 268681784 852239137 -996155926 -278410599 -1320969365 1427602606 1225557627 681680889
REM
CELL 1.54180   50.00000   50.00000   50.00000   90.00000   90.00000   90.00000
LATT -1
SFAC C  
C      1  0.4204400000000  0.4419380000000  0.5042100000000 1.0
C      1  0.4532380000000  0.4165170000000  0.4890240000000 1.0
C      1  0.5200460000000  0.4076970000000  0.5104560000000 1.0
C      1  0.5564160000000  0.4162250000000  0.4875730000000 1.0
C      1  0.5945770000000  0.4676740000000  0.4961180000000 1.0
C      1  0.6018030000000  0.5111320000000  0.4978670000000 1.0
C      1  0.5671380000000  0.5611600000000  0.5172060000000 1.0
C      1  0.5312300000000  0.5828360000000  0.4850930000000 1.0
C      1  0.4539390000000  0.5788000000000  0.4969770000000 1.0
C      1  0.4191390000000  0.5513850000000  0.5139440000000 1.0
C      1  0.4045390000000  0.5149140000000  0.4931030000000 1.0
C      1  0.5514470000000  0.4944510000000  0.4379620000000 1.0
C      1  0.5375290000000  0.5176070000000  0.4284960000000 1.0
C      1  0.5165420000000  0.5368330000000  0.4298220000000 1.0
C      1  0.4913360000000  0.5326170000000  0.4188370000000 1.0
C      1  0.4675420000000  0.5397160000000  0.4317910000000 1.0
C      1  0.4441650000000  0.5240330000000  0.4269630000000 1.0
C      1  0.4443490000000  0.4954350000000  0.4314460000000 1.0
C      1  0.4662390000000  0.4813990000000  0.4215040000000 1.0
C      1  0.4856120000000  0.4635870000000  0.4301210000000 1.0
C      1  0.5115430000000  0.4697560000000  0.4230600000000 1.0
C      1  0.5359460000000  0.4691900000000  0.4359280000000 1.0
C      1  0.5418590000000  0.5761150000000  0.5139310000000 1.0
C      1  0.4824830000000  0.5853920000000  0.5037700000000 1.0
C      1  0.4443700000000  0.5638340000000  0.5197530000000 1.0
C      1  0.4130190000000  0.5239910000000  0.5194280000000 1.0
C      1  0.4187650000000  0.4706240000000  0.5128230000000 1.0
C      1  0.4455150000000  0.4276270000000  0.5167440000000 1.0
C      1  0.4948430000000  0.4223070000000  0.5143280000000 1.0
C      1  0.5445680000000  0.4244580000000  0.5177360000000 1.0
C      1  0.5709960000000  0.4516290000000  0.4945780000000 1.0
C      1  0.5956840000000  0.4893910000000  0.5190300000000 1.0
C      1  0.5643300000000  0.5355420000000  0.5332450000000 1.0
C      1  0.4962550000000  0.4553770000000  0.5622950000000 1.0
C      1  0.5213680000000  0.4580540000000  0.5746160000000 1.0
C      1  0.5427970000000  0.4751750000000  0.5688470000000 1.0
C      1  0.5419070000000  0.5020320000000  0.5769260000000 1.0
C      1  0.5319140000000  0.5274300000000  0.5705730000000 1.0
C      1  0.5089770000000  0.5354680000000  0.5836650000000 1.0
C      1  0.4826400000000  0.5386960000000  0.5814700000000 1.0
C      1  0.4661060000000  0.5374160000000  0.5592370000000 1.0
C      1  0.4463250000000  0.5155400000000  0.5564250000000 1.0
C      1  0.4533430000000  0.4861910000000  0.5624970000000 1.0
C      1  0.4833180000000  0.4825160000000  0.5645940000000 1.0
C      1  0.5338930000000  0.4527980000000  0.5238280000000 1.0
C      1  0.5528670000000  0.4713460000000  0.5419980000000 1.0
C      1  0.5681040000000  0.4964320000000  0.5309950000000 1.0
C      1  0.5363030000000  0.5377230000000  0.5433960000000 1.0
C      1  0.5199500000000  0.5582910000000  0.5254180000000 1.0
C      1  0.4916300000000  0.5727460000000  0.5301580000000 1.0
C      1  0.4666410000000  0.5584760000000  0.5387510000000 1.0
C      1  0.4377740000000  0.5079820000000  0.5278330000000 1.0
C      1  0.4416270000000  0.4719640000000  0.5351280000000 1.0
C      1  0.4634800000000  0.4516500000000  0.5243130000000 1.0
C      1  0.5009500000000  0.4487710000000  0.5322440000000 1.0
C      1  0.5365550000000  0.4483730000000  0.4565770000000 1.0
C      1  0.5663020000000  0.4978690000000  0.4651700000000 1.0
C      1  0.5657510000000  0.5272610000000  0.4717630000000 1.0
C      1  0.5187190000000  0.5639850000000  0.4412570000000 1.0
C      1  0.4938070000000  0.5769650000000  0.4532380000000 1.0
C      1  0.4667500000000  0.5636180000000  0.4489870000000 1.0
C      1  0.4437630000000  0.5237240000000  0.4654050000000 1.0
C      1  0.4370550000000  0.4855520000000  0.4587930000000 1.0
C      1  0.4510680000000  0.4580480000000  0.4638180000000 1.0
C      1  0.4797840000000  0.4476540000000  0.4549250000000 1.0
C      1  0.5130090000000  0.4291670000000  0.4628870000000 1.0
C      1  0.4603600000000  0.5120240000000  0.5087560000000 1.0
C      1  0.4622310000000  0.4884720000000  0.4939970000000 1.0
C      1  0.4754150000000  0.4648570000000  0.5000190000000 1.0
C      1  0.5018590000000  0.4624390000000  0.4898460000000 1.0
C      1  0.5288260000000  0.4647140000000  0.4968790000000 1.0
C      1  0.5431600000000  0.4893270000000  0.4860050000000 1.0
C      1  0.5500230000000  0.5019450000000  0.5098970000000 1.0
C      1  0.5369890000000  0.5348760000000  0.4692150000000 1.0
C      1  0.5157370000000  0.5480450000000  0.4934320000000 1.0
C      1  0.4873190000000  0.5459310000000  0.4840630000000 1.0
C      1  0.4602650000000  0.5355370000000  0.4902620000000 1.0
C      1  0.4821000000000  0.4236890000000  0.4856940000000 1.0
C      1  0.5267140000000  0.4076250000000  0.4806460000000 1.0
C      1  0.5619750000000  0.4405780000000  0.4692610000000 1.0
C      1  0.5950440000000  0.4899310000000  0.4750500000000 1.0
C      1  0.5799250000000  0.5317400000000  0.4972780000000 1.0
C      1  0.5400940000000  0.5657760000000  0.4615650000000 1.0
C      1  0.5015150000000  0.5878640000000  0.4806000000000 1.0
C      1  0.4450140000000  0.5659080000000  0.4705660000000 1.0
C      1  0.4188730000000  0.5373660000000  0.4776450000000 1.0
C      1  0.4149690000000  0.4882690000000  0.4894050000000 1.0
C      1  0.4339210000000  0.4365430000000  0.4753500000000 1.0
C      1  0.4968580000000  0.4993760000000  0.5466590000000 1.0
C      1  0.5220420000000  0.5077990000000  0.4759840000000 1.0
C      1  0.5023130000000  0.5100290000000  0.5225900000000 1.0
C      1  0.5023170000000  0.5064030000000  0.4956620000000 1.0
END
