TITL C-3577089-586-4 -3.88957810771474e-07 125000 -565.559458057961 0 0 92 (C1) n - 1
REM
REM in /home/bkarasulu/work/CARBON/AIRSS/Generating-Clusters/EDIP-Nigel-Params/with-SteepDescent/Higher-Symm/SD-CG/HFTN-CG
REM
REM
REM
REM
REM
REM ./C.cell (12c818d87b63d06a65506943cc24bca4)
REM
REM compiler GCC version 9.2.1 20190827 (Red Hat 9.2.1-1)
REM options -cpp -mtune=generic -march=x86-64 -g -O0 -fpre-include=/usr/include/finclude/math-vector-fortran.h
REM seed 1124005423 -896437766 1412100227 212765378 1296020045 -496843298 -2000656914 -258461601 1034220681 880888248 458058946 -593613416 322883819 511779316 1278178779 631245721 -1019316910 -1233578651 1387405378 -1004561668 50521140 -77144191 602838924 602809311 1028310 -1247743047 1942743680 -1932765554 -488048508 335837380 2068006623 -620784260 1937774322
REM
CELL 1.54180   50.00000   50.00000   50.00000   90.00000   90.00000   90.00000
LATT -1
SFAC C  
C      1  0.5241800000000  0.5719870000000  0.4748710000000 1.0
C      1  0.5241230000000  0.4299720000000  0.4719050000000 1.0
C      1  0.4952100000000  0.4758790000000  0.5948810000000 1.0
C      1  0.4939200000000  0.5249510000000  0.5952820000000 1.0
C      1  0.5339760000000  0.4406030000000  0.4982160000000 1.0
C      1  0.5348730000000  0.5580770000000  0.4986930000000 1.0
C      1  0.4783090000000  0.4150150000000  0.5168710000000 1.0
C      1  0.4888750000000  0.5837490000000  0.5083250000000 1.0
C      1  0.5045390000000  0.4731910000000  0.4179870000000 1.0
C      1  0.5032710000000  0.5297030000000  0.4205580000000 1.0
C      1  0.5324390000000  0.4443720000000  0.4471570000000 1.0
C      1  0.5298110000000  0.5566180000000  0.4504280000000 1.0
C      1  0.4542540000000  0.4167970000000  0.5312950000000 1.0
C      1  0.4588550000000  0.5822680000000  0.5132870000000 1.0
C      1  0.5677850000000  0.5272920000000  0.5465490000000 1.0
C      1  0.5689840000000  0.4697330000000  0.5454770000000 1.0
C      1  0.5256600000000  0.4494790000000  0.5672600000000 1.0
C      1  0.5252080000000  0.5500240000000  0.5692060000000 1.0
C      1  0.4823090000000  0.4836270000000  0.5072400000000 1.0
C      1  0.4812800000000  0.5144580000000  0.5066440000000 1.0
C      1  0.5730160000000  0.5530140000000  0.4940110000000 1.0
C      1  0.5721850000000  0.4451870000000  0.4929980000000 1.0
C      1  0.4309420000000  0.4452260000000  0.4971790000000 1.0
C      1  0.4205410000000  0.5510730000000  0.4971870000000 1.0
C      1  0.4719880000000  0.4821630000000  0.4607410000000 1.0
C      1  0.4706240000000  0.5211850000000  0.4587850000000 1.0
C      1  0.5653530000000  0.4848900000000  0.4657030000000 1.0
C      1  0.5650920000000  0.5146940000000  0.4660930000000 1.0
C      1  0.5600450000000  0.5723410000000  0.5111480000000 1.0
C      1  0.5590980000000  0.4255620000000  0.5097270000000 1.0
C      1  0.4514450000000  0.4812900000000  0.4167010000000 1.0
C      1  0.4528520000000  0.5183560000000  0.4147050000000 1.0
C      1  0.4905510000000  0.4698520000000  0.4814230000000 1.0
C      1  0.4902650000000  0.5241900000000  0.4805250000000 1.0
C      1  0.5344980000000  0.5150000000000  0.5016140000000 1.0
C      1  0.5351900000000  0.4834060000000  0.5018240000000 1.0
C      1  0.4309250000000  0.4741880000000  0.4927390000000 1.0
C      1  0.4331710000000  0.5251750000000  0.4915140000000 1.0
C      1  0.4511480000000  0.5163850000000  0.5135060000000 1.0
C      1  0.4440700000000  0.4856700000000  0.5167910000000 1.0
C      1  0.5771740000000  0.5137330000000  0.5219160000000 1.0
C      1  0.5778930000000  0.4841730000000  0.5212810000000 1.0
C      1  0.4994780000000  0.5631450000000  0.5604040000000 1.0
C      1  0.4988530000000  0.4381760000000  0.5577200000000 1.0
C      1  0.4512900000000  0.4335420000000  0.4789640000000 1.0
C      1  0.4364210000000  0.5700080000000  0.4678190000000 1.0
C      1  0.4962200000000  0.5289310000000  0.5278730000000 1.0
C      1  0.4964430000000  0.4713400000000  0.5290980000000 1.0
C      1  0.4488590000000  0.4650540000000  0.5383510000000 1.0
C      1  0.4498860000000  0.5361050000000  0.5365930000000 1.0
C      1  0.5628510000000  0.4322600000000  0.5371850000000 1.0
C      1  0.5633820000000  0.5650270000000  0.5385060000000 1.0
C      1  0.5187880000000  0.4824840000000  0.4757830000000 1.0
C      1  0.5179640000000  0.5146700000000  0.4755740000000 1.0
C      1  0.4782970000000  0.4857200000000  0.5738030000000 1.0
C      1  0.4779720000000  0.5156720000000  0.5734870000000 1.0
C      1  0.4819580000000  0.5630890000000  0.4535660000000 1.0
C      1  0.4843660000000  0.4418630000000  0.4477990000000 1.0
C      1  0.4784630000000  0.4340740000000  0.4929270000000 1.0
C      1  0.4560770000000  0.5630150000000  0.4893870000000 1.0
C      1  0.5382430000000  0.4737730000000  0.4530360000000 1.0
C      1  0.5373780000000  0.5268040000000  0.4542690000000 1.0
C      1  0.4387660000000  0.4399330000000  0.5263670000000 1.0
C      1  0.4374110000000  0.5606110000000  0.5235050000000 1.0
C      1  0.4367280000000  0.4670700000000  0.4388590000000 1.0
C      1  0.4387490000000  0.5363050000000  0.4326790000000 1.0
C      1  0.4787430000000  0.4851660000000  0.4300740000000 1.0
C      1  0.4785200000000  0.5149420000000  0.4296610000000 1.0
C      1  0.5639710000000  0.4738590000000  0.4953620000000 1.0
C      1  0.5638210000000  0.5245120000000  0.4958880000000 1.0
C      1  0.5315940000000  0.4853660000000  0.6053270000000 1.0
C      1  0.5319130000000  0.5132380000000  0.6056070000000 1.0
C      1  0.5041800000000  0.5559800000000  0.4348770000000 1.0
C      1  0.5071320000000  0.4461020000000  0.4294970000000 1.0
C      1  0.5018200000000  0.4187330000000  0.5340280000000 1.0
C      1  0.5060120000000  0.5796170000000  0.5366000000000 1.0
C      1  0.4954570000000  0.5778410000000  0.4771560000000 1.0
C      1  0.4952260000000  0.4274860000000  0.4701510000000 1.0
C      1  0.5289380000000  0.4868030000000  0.4275850000000 1.0
C      1  0.5285440000000  0.5158340000000  0.4280930000000 1.0
C      1  0.4539810000000  0.4432720000000  0.4497010000000 1.0
C      1  0.4523710000000  0.5593770000000  0.4457420000000 1.0
C      1  0.4769480000000  0.4652790000000  0.5511760000000 1.0
C      1  0.4776750000000  0.5362590000000  0.5504100000000 1.0
C      1  0.4399160000000  0.5152420000000  0.4642090000000 1.0
C      1  0.4408560000000  0.4838990000000  0.4653310000000 1.0
C      1  0.5116990000000  0.5543570000000  0.5194570000000 1.0
C      1  0.5101880000000  0.4448940000000  0.5202120000000 1.0
C      1  0.5447760000000  0.5454370000000  0.5474320000000 1.0
C      1  0.5452410000000  0.4528470000000  0.5456470000000 1.0
C      1  0.5203390000000  0.4737090000000  0.5819460000000 1.0
C      1  0.5193640000000  0.5267320000000  0.5850340000000 1.0
END
