TITL C-3578197-9521-221 -2.44544998142525e-07 125000 -260.496362818692 0 0 44 (C1) n - 1
REM
REM in /home/bkarasulu/work/CARBON/AIRSS/Generating-Clusters/EDIP-Nigel-Params/with-SteepDescent/Higher-Symm/SD-CG/HFTN-CG
REM
REM
REM
REM
REM
REM ./C.cell (12c818d87b63d06a65506943cc24bca4)
REM
REM compiler GCC version 9.2.1 20190827 (Red Hat 9.2.1-1)
REM options -cpp -mtune=generic -march=x86-64 -g -O0 -fpre-include=/usr/include/finclude/math-vector-fortran.h
REM seed 26811918 1590545836 1519809039 447720482 202726763 -705737919 1632489817 1305556023 1330704235 -423516619 1058278872 -1304771943 -1692042708 1053804079 -581096698 288061899 -1227404669 1015896960 1292118041 -2056776687 -2032310899 1951147874 -311064582 682056999 706056906 1316976405 1583722621 1772233232 -307845770 945575419 -1855242913 2120352989 1348826618
REM
CELL 1.54180   50.00000   50.00000   50.00000   90.00000   90.00000   90.00000
LATT -1
SFAC C  
C      1  0.5014410000000  0.5579120000000  0.5150210000000 1.0
C      1  0.4467890000000  0.4730490000000  0.5166220000000 1.0
C      1  0.5479910000000  0.4689310000000  0.5160990000000 1.0
C      1  0.4579740000000  0.4751790000000  0.5423800000000 1.0
C      1  0.5412090000000  0.4777640000000  0.5419830000000 1.0
C      1  0.4972500000000  0.5479490000000  0.5410270000000 1.0
C      1  0.4513770000000  0.5154280000000  0.4701800000000 1.0
C      1  0.5083840000000  0.4535260000000  0.4714900000000 1.0
C      1  0.5355090000000  0.5325270000000  0.4701390000000 1.0
C      1  0.4710220000000  0.4999810000000  0.4543720000000 1.0
C      1  0.5137970000000  0.4789990000000  0.4579230000000 1.0
C      1  0.5098650000000  0.5259810000000  0.4567800000000 1.0
C      1  0.4787890000000  0.5548840000000  0.4946670000000 1.0
C      1  0.4611880000000  0.4554570000000  0.4963290000000 1.0
C      1  0.5563690000000  0.4897790000000  0.4953820000000 1.0
C      1  0.4917170000000  0.4552330000000  0.4958910000000 1.0
C      1  0.5417480000000  0.5166730000000  0.4945860000000 1.0
C      1  0.4624250000000  0.5289330000000  0.4942280000000 1.0
C      1  0.5112110000000  0.4859160000000  0.4297250000000 1.0
C      1  0.5076330000000  0.5154820000000  0.4281390000000 1.0
C      1  0.4791350000000  0.5073520000000  0.4269300000000 1.0
C      1  0.4769760000000  0.5738730000000  0.4718420000000 1.0
C      1  0.4462320000000  0.4452640000000  0.4727500000000 1.0
C      1  0.5733950000000  0.4815800000000  0.4724140000000 1.0
C      1  0.5059360000000  0.4423940000000  0.5179620000000 1.0
C      1  0.5456350000000  0.5351760000000  0.5169130000000 1.0
C      1  0.4451840000000  0.5228140000000  0.5169290000000 1.0
C      1  0.5032530000000  0.4524590000000  0.5442070000000 1.0
C      1  0.5381350000000  0.5276300000000  0.5430430000000 1.0
C      1  0.4558220000000  0.5207360000000  0.5429900000000 1.0
C      1  0.5114100000000  0.5260440000000  0.5509970000000 1.0
C      1  0.4703840000000  0.4984570000000  0.5514850000000 1.0
C      1  0.5150680000000  0.4766320000000  0.5517730000000 1.0
C      1  0.5300090000000  0.5580800000000  0.5058940000000 1.0
C      1  0.4331920000000  0.4976190000000  0.5064700000000 1.0
C      1  0.5335420000000  0.4444520000000  0.5067660000000 1.0
C      1  0.5858180000000  0.4927420000000  0.4937510000000 1.0
C      1  0.4616270000000  0.5790340000000  0.4935540000000 1.0
C      1  0.4491870000000  0.4284820000000  0.4938540000000 1.0
C      1  0.5352120000000  0.5599300000000  0.4778270000000 1.0
C      1  0.4292510000000  0.4996170000000  0.4782670000000 1.0
C      1  0.5323710000000  0.4400040000000  0.4785120000000 1.0
C      1  0.4989420000000  0.5002530000000  0.5483520000000 1.0
C      1  0.4972990000000  0.5011680000000  0.4690890000000 1.0
END
