TITL C-3577087-600-498 -1.85248767350382e-06 125000 -1081.06895534675 0 0 172 (C1) n - 1
REM
REM in /home/bkarasulu/work/CARBON/AIRSS/Generating-Clusters/EDIP-Nigel-Params/with-SteepDescent/Higher-Symm/SD-CG/HFTN-CG
REM
REM
REM
REM
REM
REM ./C.cell (12c818d87b63d06a65506943cc24bca4)
REM
REM compiler GCC version 9.2.1 20190827 (Red Hat 9.2.1-1)
REM options -cpp -mtune=generic -march=x86-64 -g -O0 -fpre-include=/usr/include/finclude/math-vector-fortran.h
REM seed 1539068919 256652941 1383860739 -1541639430 2047487620 -1774793082 -1545730479 -64222605 2066315773 -1416790668 717618218 -2075818587 1806366941 -1119977633 1020564428 -1224238596 -1172154380 1267269723 1575344297 -440895003 1862870084 -1298159164 -414731563 1444186947 -409477413 -1299806478 741237995 -545179199 935699513 -384337069 -1279544289 473646581 -231326402
REM
CELL 1.54180   50.00000   50.00000   50.00000   90.00000   90.00000   90.00000
LATT -1
SFAC C  
C      1  0.4771830000000  0.5255910000000  0.4999950000000 1.0
C      1  0.5244290000000  0.3991230000000  0.4731450000000 1.0
C      1  0.5812620000000  0.5178560000000  0.5732790000000 1.0
C      1  0.6203580000000  0.5145770000000  0.5100640000000 1.0
C      1  0.5012880000000  0.4332980000000  0.4965350000000 1.0
C      1  0.5032010000000  0.5670400000000  0.4214250000000 1.0
C      1  0.4698530000000  0.4148400000000  0.5308690000000 1.0
C      1  0.5297320000000  0.4778740000000  0.4912940000000 1.0
C      1  0.5963290000000  0.4556940000000  0.5388720000000 1.0
C      1  0.4850570000000  0.4443460000000  0.4565330000000 1.0
C      1  0.5527220000000  0.5669810000000  0.4341320000000 1.0
C      1  0.5151690000000  0.5285900000000  0.6128330000000 1.0
C      1  0.5706730000000  0.5757410000000  0.4931600000000 1.0
C      1  0.5261310000000  0.4156250000000  0.4475160000000 1.0
C      1  0.4632650000000  0.4735830000000  0.4081800000000 1.0
C      1  0.4818670000000  0.4914360000000  0.3989690000000 1.0
C      1  0.4173750000000  0.5227040000000  0.5709530000000 1.0
C      1  0.4386460000000  0.5761430000000  0.4614850000000 1.0
C      1  0.4563430000000  0.5464200000000  0.5946670000000 1.0
C      1  0.4293290000000  0.4370860000000  0.5319880000000 1.0
C      1  0.4982610000000  0.5960800000000  0.4978130000000 1.0
C      1  0.5238270000000  0.4739600000000  0.3900930000000 1.0
C      1  0.5001400000000  0.5030370000000  0.6168980000000 1.0
C      1  0.5280830000000  0.4478580000000  0.4851540000000 1.0
C      1  0.5811890000000  0.5512770000000  0.5061370000000 1.0
C      1  0.5198340000000  0.5976050000000  0.4563180000000 1.0
C      1  0.4383000000000  0.5229130000000  0.4762040000000 1.0
C      1  0.4473340000000  0.5348190000000  0.3969950000000 1.0
C      1  0.5503590000000  0.4870760000000  0.3891100000000 1.0
C      1  0.4112500000000  0.5591370000000  0.4997080000000 1.0
C      1  0.5106230000000  0.4824620000000  0.5140080000000 1.0
C      1  0.5178740000000  0.4622990000000  0.5360600000000 1.0
C      1  0.5059430000000  0.5289150000000  0.4591960000000 1.0
C      1  0.4826900000000  0.4783860000000  0.5035480000000 1.0
C      1  0.5490990000000  0.4091080000000  0.4858710000000 1.0
C      1  0.5592460000000  0.5599540000000  0.5741490000000 1.0
C      1  0.4976090000000  0.4036630000000  0.4889000000000 1.0
C      1  0.4305540000000  0.5697830000000  0.5573550000000 1.0
C      1  0.4438190000000  0.5211540000000  0.5845080000000 1.0
C      1  0.4951040000000  0.5386900000000  0.4142590000000 1.0
C      1  0.4741810000000  0.4441710000000  0.5295760000000 1.0
C      1  0.4549400000000  0.4287450000000  0.4292300000000 1.0
C      1  0.4610080000000  0.4732970000000  0.5822310000000 1.0
C      1  0.4742570000000  0.4095110000000  0.4430720000000 1.0
C      1  0.5018050000000  0.4125140000000  0.4299400000000 1.0
C      1  0.4367660000000  0.5544580000000  0.5134510000000 1.0
C      1  0.3955480000000  0.5507360000000  0.4549310000000 1.0
C      1  0.5368570000000  0.5197410000000  0.5915470000000 1.0
C      1  0.5535570000000  0.5149510000000  0.4880650000000 1.0
C      1  0.4271570000000  0.4706170000000  0.4407610000000 1.0
C      1  0.4661570000000  0.4812500000000  0.5524550000000 1.0
C      1  0.5380050000000  0.4876390000000  0.5874190000000 1.0
C      1  0.4272220000000  0.4324760000000  0.4710120000000 1.0
C      1  0.5259260000000  0.6017290000000  0.4865670000000 1.0
C      1  0.5812720000000  0.5017310000000  0.4507150000000 1.0
C      1  0.4129560000000  0.5471860000000  0.5567430000000 1.0
C      1  0.5651750000000  0.4777880000000  0.5971420000000 1.0
C      1  0.5555070000000  0.4303460000000  0.4424150000000 1.0
C      1  0.6028950000000  0.5110380000000  0.4886930000000 1.0
C      1  0.5701650000000  0.5234080000000  0.4132200000000 1.0
C      1  0.4719270000000  0.4469200000000  0.4143210000000 1.0
C      1  0.6043350000000  0.4910270000000  0.4672430000000 1.0
C      1  0.4442830000000  0.4143680000000  0.5161080000000 1.0
C      1  0.5129480000000  0.5137640000000  0.5233690000000 1.0
C      1  0.5750630000000  0.5728730000000  0.4642690000000 1.0
C      1  0.4620050000000  0.5136920000000  0.5448260000000 1.0
C      1  0.5150880000000  0.5936100000000  0.5462130000000 1.0
C      1  0.5697990000000  0.4219110000000  0.5568400000000 1.0
C      1  0.4752550000000  0.5371310000000  0.3933900000000 1.0
C      1  0.5491460000000  0.4228200000000  0.5780550000000 1.0
C      1  0.4973770000000  0.5652520000000  0.4976290000000 1.0
C      1  0.4823870000000  0.5489120000000  0.6080990000000 1.0
C      1  0.5372770000000  0.5312300000000  0.5103270000000 1.0
C      1  0.4502230000000  0.4822650000000  0.4571100000000 1.0
C      1  0.5462590000000  0.5163810000000  0.3964050000000 1.0
C      1  0.4321670000000  0.5269200000000  0.5300970000000 1.0
C      1  0.5014260000000  0.5416830000000  0.5668640000000 1.0
C      1  0.4415500000000  0.5787240000000  0.5312900000000 1.0
C      1  0.6009850000000  0.4638330000000  0.4737770000000 1.0
C      1  0.5808780000000  0.5305140000000  0.4848310000000 1.0
C      1  0.5626830000000  0.5355480000000  0.5876500000000 1.0
C      1  0.4733970000000  0.5869250000000  0.5663910000000 1.0
C      1  0.5852050000000  0.4949400000000  0.5884550000000 1.0
C      1  0.6067120000000  0.5054280000000  0.5326340000000 1.0
C      1  0.4014300000000  0.4954900000000  0.5254910000000 1.0
C      1  0.6117870000000  0.4786770000000  0.5382210000000 1.0
C      1  0.5636850000000  0.5401180000000  0.4366950000000 1.0
C      1  0.4024630000000  0.4422850000000  0.5229260000000 1.0
C      1  0.5559440000000  0.4886200000000  0.5038610000000 1.0
C      1  0.5869080000000  0.4405130000000  0.5153120000000 1.0
C      1  0.4917730000000  0.3971440000000  0.5202090000000 1.0
C      1  0.5859560000000  0.4445420000000  0.5645210000000 1.0
C      1  0.5641400000000  0.5408480000000  0.5282840000000 1.0
C      1  0.5857900000000  0.4439330000000  0.4859730000000 1.0
C      1  0.5650250000000  0.4288700000000  0.4710800000000 1.0
C      1  0.5260580000000  0.5561490000000  0.4984600000000 1.0
C      1  0.5479270000000  0.4542270000000  0.4261850000000 1.0
C      1  0.5407880000000  0.5842170000000  0.5335560000000 1.0
C      1  0.5107970000000  0.4802150000000  0.6020250000000 1.0
C      1  0.4483520000000  0.4600590000000  0.5244510000000 1.0
C      1  0.3939860000000  0.5121950000000  0.5022860000000 1.0
C      1  0.4308690000000  0.4364370000000  0.5609830000000 1.0
C      1  0.5258170000000  0.4497860000000  0.4069650000000 1.0
C      1  0.5226040000000  0.4305960000000  0.5772010000000 1.0
C      1  0.4377310000000  0.5474880000000  0.4220570000000 1.0
C      1  0.3929530000000  0.5396150000000  0.5069400000000 1.0
C      1  0.5661660000000  0.4739240000000  0.4111630000000 1.0
C      1  0.5163990000000  0.4066700000000  0.5334510000000 1.0
C      1  0.5255310000000  0.5734010000000  0.4400300000000 1.0
C      1  0.4770000000000  0.6048150000000  0.4784750000000 1.0
C      1  0.4940710000000  0.6037840000000  0.5266720000000 1.0
C      1  0.5243810000000  0.5267390000000  0.5669870000000 1.0
C      1  0.4027250000000  0.5240780000000  0.4502930000000 1.0
C      1  0.5211610000000  0.5056610000000  0.5502320000000 1.0
C      1  0.5086080000000  0.4912630000000  0.4087800000000 1.0
C      1  0.4326210000000  0.5085990000000  0.3977800000000 1.0
C      1  0.4970910000000  0.4414990000000  0.5739840000000 1.0
C      1  0.4840040000000  0.5556540000000  0.4690520000000 1.0
C      1  0.4519280000000  0.4224350000000  0.4868620000000 1.0
C      1  0.4319760000000  0.4408270000000  0.4430540000000 1.0
C      1  0.5552550000000  0.4024490000000  0.5132480000000 1.0
C      1  0.5568210000000  0.4890020000000  0.4594330000000 1.0
C      1  0.5377400000000  0.4818250000000  0.5525240000000 1.0
C      1  0.4369170000000  0.5023670000000  0.5004850000000 1.0
C      1  0.5599120000000  0.4917040000000  0.5338260000000 1.0
C      1  0.4403540000000  0.4715600000000  0.4933630000000 1.0
C      1  0.4895850000000  0.4869790000000  0.4753220000000 1.0
C      1  0.4154630000000  0.4574110000000  0.4836550000000 1.0
C      1  0.4026410000000  0.5047200000000  0.4732750000000 1.0
C      1  0.4410540000000  0.4524490000000  0.5803150000000 1.0
C      1  0.4521160000000  0.5925250000000  0.4792070000000 1.0
C      1  0.4884010000000  0.4618000000000  0.5931950000000 1.0
C      1  0.4745620000000  0.4452730000000  0.4854620000000 1.0
C      1  0.4525280000000  0.5690750000000  0.5765470000000 1.0
C      1  0.5837450000000  0.4975170000000  0.4213260000000 1.0
C      1  0.4804790000000  0.5302310000000  0.4411430000000 1.0
C      1  0.5787260000000  0.5146810000000  0.5423400000000 1.0
C      1  0.5722090000000  0.4509040000000  0.5902090000000 1.0
C      1  0.5125850000000  0.4784120000000  0.4379610000000 1.0
C      1  0.4364920000000  0.4834430000000  0.4126780000000 1.0
C      1  0.5421450000000  0.5806810000000  0.5027570000000 1.0
C      1  0.4722510000000  0.5034530000000  0.6173980000000 1.0
C      1  0.5677910000000  0.4232090000000  0.5277760000000 1.0
C      1  0.5047050000000  0.5582610000000  0.5907130000000 1.0
C      1  0.4712970000000  0.4027820000000  0.4727360000000 1.0
C      1  0.4998320000000  0.4373930000000  0.4150130000000 1.0
C      1  0.4064680000000  0.5033780000000  0.5526620000000 1.0
C      1  0.4540800000000  0.5656700000000  0.4391700000000 1.0
C      1  0.5165490000000  0.4448480000000  0.4563730000000 1.0
C      1  0.5189020000000  0.5190730000000  0.4092780000000 1.0
C      1  0.5016710000000  0.5854400000000  0.5742590000000 1.0
C      1  0.4525720000000  0.4973420000000  0.5985170000000 1.0
C      1  0.5283320000000  0.4969240000000  0.4573040000000 1.0
C      1  0.4052550000000  0.4763830000000  0.4627920000000 1.0
C      1  0.4801310000000  0.5586390000000  0.5235750000000 1.0
C      1  0.4968100000000  0.5144940000000  0.4819990000000 1.0
C      1  0.4903820000000  0.6010010000000  0.4525220000000 1.0
C      1  0.4707640000000  0.5859850000000  0.5365480000000 1.0
C      1  0.4875130000000  0.5336260000000  0.5415060000000 1.0
C      1  0.5366670000000  0.3874980000000  0.5283030000000 1.0
C      1  0.3965930000000  0.4684970000000  0.5218060000000 1.0
C      1  0.4512090000000  0.5124210000000  0.4517380000000 1.0
C      1  0.5260110000000  0.4347660000000  0.5219270000000 1.0
C      1  0.4280340000000  0.5209710000000  0.4341850000000 1.0
C      1  0.4160840000000  0.5605900000000  0.4714040000000 1.0
C      1  0.5569950000000  0.5635890000000  0.5466130000000 1.0
C      1  0.4809560000000  0.4733250000000  0.4489980000000 1.0
C      1  0.4914110000000  0.4574600000000  0.5491610000000 1.0
C      1  0.4795640000000  0.5805440000000  0.4332050000000 1.0
C      1  0.4563430000000  0.5455100000000  0.4883080000000 1.0
C      1  0.4650760000000  0.5026390000000  0.5134920000000 1.0
C      1  0.5824920000000  0.5451850000000  0.4583960000000 1.0
END
