TITL C-3578204-4308-585 -7.16222814194421e-07 125000 -1172.43207199386 0 0 187 (C1) n - 1
REM
REM in /home/bkarasulu/work/CARBON/AIRSS/Generating-Clusters/EDIP-Nigel-Params/with-SteepDescent/Higher-Symm/SD-CG/HFTN-CG
REM
REM
REM
REM
REM
REM ./C.cell (12c818d87b63d06a65506943cc24bca4)
REM
REM compiler GCC version 9.2.1 20190827 (Red Hat 9.2.1-1)
REM options -cpp -mtune=generic -march=x86-64 -g -O0 -fpre-include=/usr/include/finclude/math-vector-fortran.h
REM seed 2145476132 -1175578876 759966530 -1602580731 -1802609011 -816479203 1988718655 468034707 1418048848 -1618288399 2055476259 -1481866498 845131594 -596599860 -1664824784 -1633204801 272131163 856459189 1057996508 78315239 1415076905 1180510420 -713680968 10944250 1462403747 509130518 -1635189897 1251626731 -22426953 -743168154 832468598 1710168457 279832662
REM
CELL 1.54180   50.00000   50.00000   50.00000   90.00000   90.00000   90.00000
LATT -1
SFAC C  
C      1  0.4028950000000  0.4915040000000  0.5531100000000 1.0
C      1  0.6004770000000  0.5006180000000  0.4699010000000 1.0
C      1  0.4829790000000  0.5330780000000  0.4927340000000 1.0
C      1  0.3982700000000  0.5187790000000  0.5543500000000 1.0
C      1  0.4382870000000  0.4823010000000  0.5170880000000 1.0
C      1  0.5897670000000  0.4907190000000  0.5146050000000 1.0
C      1  0.6019500000000  0.5415870000000  0.5331560000000 1.0
C      1  0.4790110000000  0.5064730000000  0.5502160000000 1.0
C      1  0.5670650000000  0.4126610000000  0.5042940000000 1.0
C      1  0.5011930000000  0.4687280000000  0.5581760000000 1.0
C      1  0.3935100000000  0.4758090000000  0.4754190000000 1.0
C      1  0.4172890000000  0.4365440000000  0.4504800000000 1.0
C      1  0.5374650000000  0.5222340000000  0.6065070000000 1.0
C      1  0.4917680000000  0.3849790000000  0.5388420000000 1.0
C      1  0.6041850000000  0.5295260000000  0.4807320000000 1.0
C      1  0.4037590000000  0.5693750000000  0.4982450000000 1.0
C      1  0.5312980000000  0.5501170000000  0.6008810000000 1.0
C      1  0.5221020000000  0.3907350000000  0.4780370000000 1.0
C      1  0.4948150000000  0.4610410000000  0.6080500000000 1.0
C      1  0.4186190000000  0.4372240000000  0.5497850000000 1.0
C      1  0.4832730000000  0.5228430000000  0.4030970000000 1.0
C      1  0.4762680000000  0.5804780000000  0.4374160000000 1.0
C      1  0.5601950000000  0.4588500000000  0.5128410000000 1.0
C      1  0.5535270000000  0.4903560000000  0.4092800000000 1.0
C      1  0.5376230000000  0.4015690000000  0.5490660000000 1.0
C      1  0.5751790000000  0.5289020000000  0.5394040000000 1.0
C      1  0.5267360000000  0.4275090000000  0.5909210000000 1.0
C      1  0.4428350000000  0.5474490000000  0.4149190000000 1.0
C      1  0.4621720000000  0.4155440000000  0.4492800000000 1.0
C      1  0.4551050000000  0.4047040000000  0.5064710000000 1.0
C      1  0.4033730000000  0.5435040000000  0.5428350000000 1.0
C      1  0.5345730000000  0.5538580000000  0.4367250000000 1.0
C      1  0.5923320000000  0.4798870000000  0.4879390000000 1.0
C      1  0.5407700000000  0.4432860000000  0.5306910000000 1.0
C      1  0.4877020000000  0.4438440000000  0.4886530000000 1.0
C      1  0.4767080000000  0.5573590000000  0.5110250000000 1.0
C      1  0.4765950000000  0.5783130000000  0.4887320000000 1.0
C      1  0.5474570000000  0.4188490000000  0.5715340000000 1.0
C      1  0.5898720000000  0.4735380000000  0.5877720000000 1.0
C      1  0.5305170000000  0.5354830000000  0.3968540000000 1.0
C      1  0.4730430000000  0.4797580000000  0.5586930000000 1.0
C      1  0.5071560000000  0.4104840000000  0.4556480000000 1.0
C      1  0.5478380000000  0.5963140000000  0.5331650000000 1.0
C      1  0.5278150000000  0.5063060000000  0.4524950000000 1.0
C      1  0.4959270000000  0.4289890000000  0.5350890000000 1.0
C      1  0.4297150000000  0.5676370000000  0.4322350000000 1.0
C      1  0.5014140000000  0.4664950000000  0.5092810000000 1.0
C      1  0.5399940000000  0.4061530000000  0.4355240000000 1.0
C      1  0.5553510000000  0.4417130000000  0.5561280000000 1.0
C      1  0.4455020000000  0.4360440000000  0.4090310000000 1.0
C      1  0.5665710000000  0.4791170000000  0.4341000000000 1.0
C      1  0.5690970000000  0.4481520000000  0.4363390000000 1.0
C      1  0.5076220000000  0.5630220000000  0.4696460000000 1.0
C      1  0.4859000000000  0.6027890000000  0.5294220000000 1.0
C      1  0.4944280000000  0.5010910000000  0.5258150000000 1.0
C      1  0.4870320000000  0.6038580000000  0.4998500000000 1.0
C      1  0.4672150000000  0.4345190000000  0.5423640000000 1.0
C      1  0.4994800000000  0.5161290000000  0.5696030000000 1.0
C      1  0.5758870000000  0.5561250000000  0.5782100000000 1.0
C      1  0.4649840000000  0.5037690000000  0.3888510000000 1.0
C      1  0.4420960000000  0.5408090000000  0.5113550000000 1.0
C      1  0.5229440000000  0.5411840000000  0.5153710000000 1.0
C      1  0.4461470000000  0.5488750000000  0.5719470000000 1.0
C      1  0.5117610000000  0.6089590000000  0.5412740000000 1.0
C      1  0.5804910000000  0.5731480000000  0.5026670000000 1.0
C      1  0.5509240000000  0.5869410000000  0.4599970000000 1.0
C      1  0.4708040000000  0.4149170000000  0.5759270000000 1.0
C      1  0.5076480000000  0.4065470000000  0.5518170000000 1.0
C      1  0.5269910000000  0.5104780000000  0.4824340000000 1.0
C      1  0.4501630000000  0.4102590000000  0.5347880000000 1.0
C      1  0.5109760000000  0.4531380000000  0.5341300000000 1.0
C      1  0.4366530000000  0.4985810000000  0.5894740000000 1.0
C      1  0.5477340000000  0.3962660000000  0.4620820000000 1.0
C      1  0.4569480000000  0.4739340000000  0.4204520000000 1.0
C      1  0.4756670000000  0.5081350000000  0.5043190000000 1.0
C      1  0.4703220000000  0.5495820000000  0.4067620000000 1.0
C      1  0.4054220000000  0.5560700000000  0.4445760000000 1.0
C      1  0.5630540000000  0.5406830000000  0.4719380000000 1.0
C      1  0.4950520000000  0.4365750000000  0.4081980000000 1.0
C      1  0.5144030000000  0.5058500000000  0.6141210000000 1.0
C      1  0.4268090000000  0.5586880000000  0.5516690000000 1.0
C      1  0.5154150000000  0.6041210000000  0.4910510000000 1.0
C      1  0.3993670000000  0.5659370000000  0.4704920000000 1.0
C      1  0.5447550000000  0.5926470000000  0.5712880000000 1.0
C      1  0.4678650000000  0.4618460000000  0.6015860000000 1.0
C      1  0.5565210000000  0.5723690000000  0.4346450000000 1.0
C      1  0.5755050000000  0.5107120000000  0.5635480000000 1.0
C      1  0.5886790000000  0.4994980000000  0.4433780000000 1.0
C      1  0.5904630000000  0.5277460000000  0.4354480000000 1.0
C      1  0.5986320000000  0.5488880000000  0.5046180000000 1.0
C      1  0.4279470000000  0.4501040000000  0.4271540000000 1.0
C      1  0.4417890000000  0.5472260000000  0.4798290000000 1.0
C      1  0.5102000000000  0.4907800000000  0.3866140000000 1.0
C      1  0.3998110000000  0.4912400000000  0.5001520000000 1.0
C      1  0.4565270000000  0.4648260000000  0.5373790000000 1.0
C      1  0.4811740000000  0.4021720000000  0.4662080000000 1.0
C      1  0.5254440000000  0.4457310000000  0.4070390000000 1.0
C      1  0.5477300000000  0.5300840000000  0.4467930000000 1.0
C      1  0.4904080000000  0.5214670000000  0.6002790000000 1.0
C      1  0.5016100000000  0.5509220000000  0.5994820000000 1.0
C      1  0.5457740000000  0.4328290000000  0.4257990000000 1.0
C      1  0.5158300000000  0.4595830000000  0.4422220000000 1.0
C      1  0.5886700000000  0.5643640000000  0.5503510000000 1.0
C      1  0.5257980000000  0.4832880000000  0.4992710000000 1.0
C      1  0.5631670000000  0.4160530000000  0.4756910000000 1.0
C      1  0.5451600000000  0.4669190000000  0.4843140000000 1.0
C      1  0.5049510000000  0.4398610000000  0.4628610000000 1.0
C      1  0.4995210000000  0.5074010000000  0.4351820000000 1.0
C      1  0.5669900000000  0.5101610000000  0.5170080000000 1.0
C      1  0.4494580000000  0.5095090000000  0.4460410000000 1.0
C      1  0.4652960000000  0.4883050000000  0.5886530000000 1.0
C      1  0.4178490000000  0.5258450000000  0.4734970000000 1.0
C      1  0.4648080000000  0.5850140000000  0.5427300000000 1.0
C      1  0.4754780000000  0.4963450000000  0.4532150000000 1.0
C      1  0.4294180000000  0.4990490000000  0.4647070000000 1.0
C      1  0.5714070000000  0.5404810000000  0.4175210000000 1.0
C      1  0.4557670000000  0.4422000000000  0.5831490000000 1.0
C      1  0.4757770000000  0.4541350000000  0.3926570000000 1.0
C      1  0.5797480000000  0.4358730000000  0.4618170000000 1.0
C      1  0.4838370000000  0.4115090000000  0.4959490000000 1.0
C      1  0.5400330000000  0.4771810000000  0.4537480000000 1.0
C      1  0.4241470000000  0.4809370000000  0.5696710000000 1.0
C      1  0.5550760000000  0.5192100000000  0.4901490000000 1.0
C      1  0.4418810000000  0.4963240000000  0.4046490000000 1.0
C      1  0.4684080000000  0.4215360000000  0.4211130000000 1.0
C      1  0.4807530000000  0.5752930000000  0.3995960000000 1.0
C      1  0.5018440000000  0.4138360000000  0.5810790000000 1.0
C      1  0.5978900000000  0.5444420000000  0.4573400000000 1.0
C      1  0.4277730000000  0.5852360000000  0.5041930000000 1.0
C      1  0.5424680000000  0.4610210000000  0.6006680000000 1.0
C      1  0.4532730000000  0.5256770000000  0.5911620000000 1.0
C      1  0.5173290000000  0.5939500000000  0.5644410000000 1.0
C      1  0.4467420000000  0.5786650000000  0.4789830000000 1.0
C      1  0.5940180000000  0.4504660000000  0.4840170000000 1.0
C      1  0.4329160000000  0.5202070000000  0.4221110000000 1.0
C      1  0.4475300000000  0.5859000000000  0.4482500000000 1.0
C      1  0.5652970000000  0.5131980000000  0.6078180000000 1.0
C      1  0.4829900000000  0.4810880000000  0.3829340000000 1.0
C      1  0.4123380000000  0.4350230000000  0.5000530000000 1.0
C      1  0.4851990000000  0.5563140000000  0.4519620000000 1.0
C      1  0.5304040000000  0.5842510000000  0.5092680000000 1.0
C      1  0.4353440000000  0.4155620000000  0.4607240000000 1.0
C      1  0.4005420000000  0.4773530000000  0.5266760000000 1.0
C      1  0.4474060000000  0.4759580000000  0.4876800000000 1.0
C      1  0.5165630000000  0.4894320000000  0.5723350000000 1.0
C      1  0.5071820000000  0.5847190000000  0.4072060000000 1.0
C      1  0.5136080000000  0.5665430000000  0.5546370000000 1.0
C      1  0.5540980000000  0.5202720000000  0.4041380000000 1.0
C      1  0.4381020000000  0.5787940000000  0.5323980000000 1.0
C      1  0.5453130000000  0.4914550000000  0.5603620000000 1.0
C      1  0.4103810000000  0.4492690000000  0.5257250000000 1.0
C      1  0.4676370000000  0.5677480000000  0.5669910000000 1.0
C      1  0.5287640000000  0.5650680000000  0.4007550000000 1.0
C      1  0.5828900000000  0.4379060000000  0.5089530000000 1.0
C      1  0.4674350000000  0.5371350000000  0.4666980000000 1.0
C      1  0.5487290000000  0.5656950000000  0.5819070000000 1.0
C      1  0.5424430000000  0.4958980000000  0.5290020000000 1.0
C      1  0.4494530000000  0.5114560000000  0.5175920000000 1.0
C      1  0.5747600000000  0.5828760000000  0.5300210000000 1.0
C      1  0.4936160000000  0.4768960000000  0.4252090000000 1.0
C      1  0.5301690000000  0.4753010000000  0.4007310000000 1.0
C      1  0.5555670000000  0.5693810000000  0.4850960000000 1.0
C      1  0.5121940000000  0.5361840000000  0.4888190000000 1.0
C      1  0.4573680000000  0.4478450000000  0.4856940000000 1.0
C      1  0.4741980000000  0.4884120000000  0.4824280000000 1.0
C      1  0.5022780000000  0.5991340000000  0.4393100000000 1.0
C      1  0.5819350000000  0.5274930000000  0.5872580000000 1.0
C      1  0.5088550000000  0.5650940000000  0.5245360000000 1.0
C      1  0.4390410000000  0.4240000000000  0.4895330000000 1.0
C      1  0.4035280000000  0.4898480000000  0.4515640000000 1.0
C      1  0.5878980000000  0.4724010000000  0.5363210000000 1.0
C      1  0.5711450000000  0.4838520000000  0.6086840000000 1.0
C      1  0.5199970000000  0.5161350000000  0.5303570000000 1.0
C      1  0.4933830000000  0.5541960000000  0.5708830000000 1.0
C      1  0.5930790000000  0.4865470000000  0.5616040000000 1.0
C      1  0.4040920000000  0.4485740000000  0.4748670000000 1.0
C      1  0.3992710000000  0.5204500000000  0.4965770000000 1.0
C      1  0.5560010000000  0.4654070000000  0.5725690000000 1.0
C      1  0.5201680000000  0.5909020000000  0.4636420000000 1.0
C      1  0.4303600000000  0.4519300000000  0.5706610000000 1.0
C      1  0.5169860000000  0.4784850000000  0.6015090000000 1.0
C      1  0.4052530000000  0.5254620000000  0.4368300000000 1.0
C      1  0.4656140000000  0.3917530000000  0.5522220000000 1.0
C      1  0.4096600000000  0.5437400000000  0.5134700000000 1.0
C      1  0.5406370000000  0.4137490000000  0.5210060000000 1.0
C      1  0.5115570000000  0.3980560000000  0.5078520000000 1.0
C      1  0.5081470000000  0.5205970000000  0.3872930000000 1.0
END
