TITL C-3577091-527-271 -1.0394771847489e-06 125000 -1157.39654305116 0 0 183 (C1) n - 1
REM
REM in /home/bkarasulu/work/CARBON/AIRSS/Generating-Clusters/EDIP-Nigel-Params/with-SteepDescent/Higher-Symm/SD-CG/HFTN-CG
REM
REM
REM
REM
REM
REM ./C.cell (12c818d87b63d06a65506943cc24bca4)
REM
REM compiler GCC version 9.2.1 20190827 (Red Hat 9.2.1-1)
REM options -cpp -mtune=generic -march=x86-64 -g -O0 -fpre-include=/usr/include/finclude/math-vector-fortran.h
REM seed 2094214651 713698208 -1693450828 -413809894 584617323 1891373011 -1179185527 997506380 1009417459 1480217911 -355899504 488977831 -666826578 1848459700 1457046846 -663115575 -1536385169 1853626533 1243065188 277897312 51911528 305581499 -1774721061 -1574975108 197971378 1405612909 -1569751806 513918131 1936364922 -1438864720 -2041791975 838804490 563009557
REM
CELL 1.54180   50.00000   50.00000   50.00000   90.00000   90.00000   90.00000
LATT -1
SFAC C  
C      1  0.5785470000000  0.5258740000000  0.5617030000000 1.0
C      1  0.5934750000000  0.5304950000000  0.4738060000000 1.0
C      1  0.5412500000000  0.5282030000000  0.4033990000000 1.0
C      1  0.4522100000000  0.5239340000000  0.4121200000000 1.0
C      1  0.4035520000000  0.5236360000000  0.4833270000000 1.0
C      1  0.4224880000000  0.5254310000000  0.5624510000000 1.0
C      1  0.5039400000000  0.5249780000000  0.5987490000000 1.0
C      1  0.5256630000000  0.4674950000000  0.5121500000000 1.0
C      1  0.5256280000000  0.4795980000000  0.4860210000000 1.0
C      1  0.5127610000000  0.4716840000000  0.4608270000000 1.0
C      1  0.4823860000000  0.4718510000000  0.4651240000000 1.0
C      1  0.4662150000000  0.4715730000000  0.4935660000000 1.0
C      1  0.4741770000000  0.4708470000000  0.5239190000000 1.0
C      1  0.5029840000000  0.4688480000000  0.5322010000000 1.0
C      1  0.5937890000000  0.4293690000000  0.4767960000000 1.0
C      1  0.5395880000000  0.4278290000000  0.4188560000000 1.0
C      1  0.4546350000000  0.4254380000000  0.4196940000000 1.0
C      1  0.4071140000000  0.4281110000000  0.4859110000000 1.0
C      1  0.4299190000000  0.4273630000000  0.5642990000000 1.0
C      1  0.5059590000000  0.4261920000000  0.5961970000000 1.0
C      1  0.5822720000000  0.4270540000000  0.5568870000000 1.0
C      1  0.5044860000000  0.4494550000000  0.5615900000000 1.0
C      1  0.5500080000000  0.4480490000000  0.5414050000000 1.0
C      1  0.5607890000000  0.4468750000000  0.4872370000000 1.0
C      1  0.5247160000000  0.4448680000000  0.4503480000000 1.0
C      1  0.4738740000000  0.4472410000000  0.4489540000000 1.0
C      1  0.4424290000000  0.4518760000000  0.4888820000000 1.0
C      1  0.4551360000000  0.4512040000000  0.5395580000000 1.0
C      1  0.4667000000000  0.4488360000000  0.5810520000000 1.0
C      1  0.5445380000000  0.4474190000000  0.5799400000000 1.0
C      1  0.5918680000000  0.4511530000000  0.5170450000000 1.0
C      1  0.5660890000000  0.4535990000000  0.4450450000000 1.0
C      1  0.4962920000000  0.4504280000000  0.4169580000000 1.0
C      1  0.4301520000000  0.4494340000000  0.4521060000000 1.0
C      1  0.4186550000000  0.4495310000000  0.5256130000000 1.0
C      1  0.4701990000000  0.4267520000000  0.5245460000000 1.0
C      1  0.4996920000000  0.4256240000000  0.5395330000000 1.0
C      1  0.5296710000000  0.4272150000000  0.5277370000000 1.0
C      1  0.5369730000000  0.4283750000000  0.4965960000000 1.0
C      1  0.5166540000000  0.4259130000000  0.4723980000000 1.0
C      1  0.4849070000000  0.4263140000000  0.4693400000000 1.0
C      1  0.4633960000000  0.4273690000000  0.4926890000000 1.0
C      1  0.4365010000000  0.5368870000000  0.5387720000000 1.0
C      1  0.4897560000000  0.5335810000000  0.5725820000000 1.0
C      1  0.5473260000000  0.5277750000000  0.5553120000000 1.0
C      1  0.5658990000000  0.5224480000000  0.5004420000000 1.0
C      1  0.5507550000000  0.5347290000000  0.4329220000000 1.0
C      1  0.4762470000000  0.5364850000000  0.4251400000000 1.0
C      1  0.4060480000000  0.5489420000000  0.4691760000000 1.0
C      1  0.4538980000000  0.5392050000000  0.4694040000000 1.0
C      1  0.4615200000000  0.5460940000000  0.4964770000000 1.0
C      1  0.4706010000000  0.5218060000000  0.5093580000000 1.0
C      1  0.4945080000000  0.5218750000000  0.5270600000000 1.0
C      1  0.5200840000000  0.5112320000000  0.5164540000000 1.0
C      1  0.5320110000000  0.5288890000000  0.4722760000000 1.0
C      1  0.5060980000000  0.5338940000000  0.4634440000000 1.0
C      1  0.5221560000000  0.5612930000000  0.5122750000000 1.0
C      1  0.5361620000000  0.5319400000000  0.5012110000000 1.0
C      1  0.4994670000000  0.5625580000000  0.4626870000000 1.0
C      1  0.4702920000000  0.5557510000000  0.4489730000000 1.0
C      1  0.4749130000000  0.5725020000000  0.5042300000000 1.0
C      1  0.4799800000000  0.5673770000000  0.5334820000000 1.0
C      1  0.5022900000000  0.5484420000000  0.5334040000000 1.0
C      1  0.5748620000000  0.4486990000000  0.5737610000000 1.0
C      1  0.6032580000000  0.4530500000000  0.4902240000000 1.0
C      1  0.5537430000000  0.4524210000000  0.4190770000000 1.0
C      1  0.4672360000000  0.4484210000000  0.4090420000000 1.0
C      1  0.4051180000000  0.4490070000000  0.4677160000000 1.0
C      1  0.4147400000000  0.4485930000000  0.5546840000000 1.0
C      1  0.4894080000000  0.4489100000000  0.5994150000000 1.0
C      1  0.4068840000000  0.4732530000000  0.5115410000000 1.0
C      1  0.4489420000000  0.4723380000000  0.5815880000000 1.0
C      1  0.5325880000000  0.4722100000000  0.5913710000000 1.0
C      1  0.5957840000000  0.4739800000000  0.5345330000000 1.0
C      1  0.5852160000000  0.4758310000000  0.4484840000000 1.0
C      1  0.5103060000000  0.4734520000000  0.4036740000000 1.0
C      1  0.4313530000000  0.4737170000000  0.4338570000000 1.0
C      1  0.3993410000000  0.5226130000000  0.5122890000000 1.0
C      1  0.4447370000000  0.5219880000000  0.5832330000000 1.0
C      1  0.5336320000000  0.5208500000000  0.5963120000000 1.0
C      1  0.5964980000000  0.5246100000000  0.5371870000000 1.0
C      1  0.5925140000000  0.5242600000000  0.4439160000000 1.0
C      1  0.5111670000000  0.5231150000000  0.3997270000000 1.0
C      1  0.4263530000000  0.5248430000000  0.4278690000000 1.0
C      1  0.4384920000000  0.4223240000000  0.4420920000000 1.0
C      1  0.4163690000000  0.4238630000000  0.5115930000000 1.0
C      1  0.4556260000000  0.4230530000000  0.5736040000000 1.0
C      1  0.5302310000000  0.4214740000000  0.5835130000000 1.0
C      1  0.5847890000000  0.4248050000000  0.5289780000000 1.0
C      1  0.5732270000000  0.4262500000000  0.4563840000000 1.0
C      1  0.5110880000000  0.4239590000000  0.4193360000000 1.0
C      1  0.4923720000000  0.6235450000000  0.4653480000000 1.0
C      1  0.4645420000000  0.6238060000000  0.4666330000000 1.0
C      1  0.4727500000000  0.6189660000000  0.5204000000000 1.0
C      1  0.4929670000000  0.6172900000000  0.5394130000000 1.0
C      1  0.5230360000000  0.6150080000000  0.5302800000000 1.0
C      1  0.5272200000000  0.6163760000000  0.5012960000000 1.0
C      1  0.5080490000000  0.6312440000000  0.4870180000000 1.0
C      1  0.5792250000000  0.5462240000000  0.4310260000000 1.0
C      1  0.4941740000000  0.5464020000000  0.4040010000000 1.0
C      1  0.4206640000000  0.5511340000000  0.4427900000000 1.0
C      1  0.4088650000000  0.5446460000000  0.5300270000000 1.0
C      1  0.4639560000000  0.5436890000000  0.5843290000000 1.0
C      1  0.5477200000000  0.5445330000000  0.5899920000000 1.0
C      1  0.5849480000000  0.5408370000000  0.5159960000000 1.0
C      1  0.5244960000000  0.5856710000000  0.5404660000000 1.0
C      1  0.5405700000000  0.5932730000000  0.4877510000000 1.0
C      1  0.5289610000000  0.5880280000000  0.4598280000000 1.0
C      1  0.5053470000000  0.6037440000000  0.4487280000000 1.0
C      1  0.4464830000000  0.6090050000000  0.4819180000000 1.0
C      1  0.4564040000000  0.5986890000000  0.5081690000000 1.0
C      1  0.4934910000000  0.5887190000000  0.5504540000000 1.0
C      1  0.5468810000000  0.3948670000000  0.5411510000000 1.0
C      1  0.5585760000000  0.3961290000000  0.4923500000000 1.0
C      1  0.5278390000000  0.3936070000000  0.4539490000000 1.0
C      1  0.4775600000000  0.3936160000000  0.4495100000000 1.0
C      1  0.4438610000000  0.3940430000000  0.4869220000000 1.0
C      1  0.4534600000000  0.3935480000000  0.5361120000000 1.0
C      1  0.4984890000000  0.3927380000000  0.5601600000000 1.0
C      1  0.4258750000000  0.4736970000000  0.5639410000000 1.0
C      1  0.5042900000000  0.4740270000000  0.5979180000000 1.0
C      1  0.5809180000000  0.4741860000000  0.5598420000000 1.0
C      1  0.5984740000000  0.4783720000000  0.4751660000000 1.0
C      1  0.5391660000000  0.4770580000000  0.4114560000000 1.0
C      1  0.4520280000000  0.4734000000000  0.4131720000000 1.0
C      1  0.4045390000000  0.4741720000000  0.4825390000000 1.0
C      1  0.5341370000000  0.5014710000000  0.5414580000000 1.0
C      1  0.5678810000000  0.4909600000000  0.5047110000000 1.0
C      1  0.5433000000000  0.5066230000000  0.4560830000000 1.0
C      1  0.4949680000000  0.5148480000000  0.4428660000000 1.0
C      1  0.4490500000000  0.5080750000000  0.4662940000000 1.0
C      1  0.4477230000000  0.5084370000000  0.5216450000000 1.0
C      1  0.4870580000000  0.5073160000000  0.5528480000000 1.0
C      1  0.5580930000000  0.5006400000000  0.4087800000000 1.0
C      1  0.4655680000000  0.4980200000000  0.4050410000000 1.0
C      1  0.4033690000000  0.4994830000000  0.4670940000000 1.0
C      1  0.4130930000000  0.4983330000000  0.5538580000000 1.0
C      1  0.4882880000000  0.4985270000000  0.5993160000000 1.0
C      1  0.5731520000000  0.4981700000000  0.5745290000000 1.0
C      1  0.6050010000000  0.5041460000000  0.4890850000000 1.0
C      1  0.5706320000000  0.5649500000000  0.5242410000000 1.0
C      1  0.5738930000000  0.5687070000000  0.4490630000000 1.0
C      1  0.5073810000000  0.5702280000000  0.4125900000000 1.0
C      1  0.4345100000000  0.5792840000000  0.4418270000000 1.0
C      1  0.4138060000000  0.5714260000000  0.5153780000000 1.0
C      1  0.4568710000000  0.5703890000000  0.5745420000000 1.0
C      1  0.5322910000000  0.5682940000000  0.5872560000000 1.0
C      1  0.5537800000000  0.4033480000000  0.4645860000000 1.0
C      1  0.5040080000000  0.4010750000000  0.4384390000000 1.0
C      1  0.4506950000000  0.4011770000000  0.4592880000000 1.0
C      1  0.4356120000000  0.4014330000000  0.5138500000000 1.0
C      1  0.4694920000000  0.4006960000000  0.5595770000000 1.0
C      1  0.5270740000000  0.4005330000000  0.5627820000000 1.0
C      1  0.5655660000000  0.4035930000000  0.5197870000000 1.0
C      1  0.5655820000000  0.5616780000000  0.5533530000000 1.0
C      1  0.5759620000000  0.5584610000000  0.4763700000000 1.0
C      1  0.5366240000000  0.5656620000000  0.4143730000000 1.0
C      1  0.4602240000000  0.5871210000000  0.4284550000000 1.0
C      1  0.4136170000000  0.5719420000000  0.4854290000000 1.0
C      1  0.4514440000000  0.5648370000000  0.5449720000000 1.0
C      1  0.5031200000000  0.5637130000000  0.5924550000000 1.0
C      1  0.5546160000000  0.4781820000000  0.4798380000000 1.0
C      1  0.5198730000000  0.4936070000000  0.4410570000000 1.0
C      1  0.4738430000000  0.4973340000000  0.4545690000000 1.0
C      1  0.4430160000000  0.4911710000000  0.4932910000000 1.0
C      1  0.4605950000000  0.4902320000000  0.5433140000000 1.0
C      1  0.5103860000000  0.4874340000000  0.5565420000000 1.0
C      1  0.5503350000000  0.4785680000000  0.5279640000000 1.0
C      1  0.5435620000000  0.5794640000000  0.5625600000000 1.0
C      1  0.5616250000000  0.5739530000000  0.4972950000000 1.0
C      1  0.5478670000000  0.5783630000000  0.4392900000000 1.0
C      1  0.4902880000000  0.5887730000000  0.4286930000000 1.0
C      1  0.4285080000000  0.5908470000000  0.4686540000000 1.0
C      1  0.4360960000000  0.5863720000000  0.5282750000000 1.0
C      1  0.4842710000000  0.5829630000000  0.5786850000000 1.0
C      1  0.4048710000000  0.4977290000000  0.5259830000000 1.0
C      1  0.4608950000000  0.4975680000000  0.5872530000000 1.0
C      1  0.5462670000000  0.4967730000000  0.5867580000000 1.0
C      1  0.6029900000000  0.5000100000000  0.5211340000000 1.0
C      1  0.5787280000000  0.5002230000000  0.4332140000000 1.0
C      1  0.4955340000000  0.4981180000000  0.4017830000000 1.0
C      1  0.4256900000000  0.5008630000000  0.4466720000000 1.0
C      1  0.5015540000000  0.5729890000000  0.4914610000000 1.0
END
