TITL C-3578206-1180-401 -6.18054799956282e-06 125000 -759.452530014543 0 0 123 (C1) n - 1
REM
REM in /home/bkarasulu/work/CARBON/AIRSS/Generating-Clusters/EDIP-Nigel-Params/with-SteepDescent/Higher-Symm/SD-CG/HFTN-CG
REM
REM
REM
REM
REM
REM ./C.cell (12c818d87b63d06a65506943cc24bca4)
REM
REM compiler GCC version 9.2.1 20190827 (Red Hat 9.2.1-1)
REM options -cpp -mtune=generic -march=x86-64 -g -O0 -fpre-include=/usr/include/finclude/math-vector-fortran.h
REM seed 1293061737 -892500829 764431242 1843253487 -1225911841 -1098209488 1330148018 -472957087 643796410 -1750031468 959341135 882898682 1008237664 901644398 871547488 -1992975986 1600249400 -154680410 815900641 -1504625972 -651566917 -25839665 -777687737 -115874010 1519432882 -682582330 -1706419736 1658196115 -202386823 -1017386875 -49279562 1307076292 -317617106
REM
CELL 1.54180   50.00000   50.00000   50.00000   90.00000   90.00000   90.00000
LATT -1
SFAC C  
C      1  0.5435270000000  0.5250620000000  0.4134910000000 1.0
C      1  0.4854930000000  0.4753770000000  0.4133410000000 1.0
C      1  0.4379940000000  0.5259210000000  0.4390430000000 1.0
C      1  0.4155590000000  0.4762580000000  0.4872890000000 1.0
C      1  0.4133980000000  0.5271850000000  0.5444900000000 1.0
C      1  0.4607550000000  0.4732490000000  0.5859770000000 1.0
C      1  0.5145680000000  0.5244550000000  0.5877720000000 1.0
C      1  0.5664530000000  0.4733110000000  0.5678900000000 1.0
C      1  0.5959440000000  0.5254600000000  0.5157380000000 1.0
C      1  0.5835770000000  0.4723300000000  0.4538430000000 1.0
C      1  0.4379230000000  0.5643070000000  0.4865220000000 1.0
C      1  0.4425890000000  0.4372940000000  0.5259610000000 1.0
C      1  0.4663780000000  0.5620650000000  0.5547960000000 1.0
C      1  0.5083170000000  0.4333900000000  0.5653940000000 1.0
C      1  0.5392590000000  0.5597810000000  0.5475520000000 1.0
C      1  0.5659170000000  0.4370720000000  0.5130370000000 1.0
C      1  0.5566720000000  0.5617660000000  0.4753000000000 1.0
C      1  0.5342260000000  0.4360080000000  0.4431980000000 1.0
C      1  0.4942760000000  0.5663690000000  0.4365620000000 1.0
C      1  0.4586440000000  0.4348460000000  0.4511990000000 1.0
C      1  0.5620250000000  0.5042520000000  0.4222360000000 1.0
C      1  0.5044070000000  0.4951110000000  0.4025960000000 1.0
C      1  0.4465930000000  0.5074990000000  0.4177510000000 1.0
C      1  0.4116260000000  0.4951350000000  0.4650970000000 1.0
C      1  0.4084370000000  0.5067110000000  0.5246880000000 1.0
C      1  0.4451910000000  0.4970730000000  0.5801270000000 1.0
C      1  0.4957750000000  0.5054100000000  0.6002520000000 1.0
C      1  0.5515600000000  0.4940150000000  0.5816470000000 1.0
C      1  0.5902210000000  0.5045880000000  0.5347290000000 1.0
C      1  0.5908860000000  0.4959680000000  0.4689130000000 1.0
C      1  0.5093690000000  0.4212410000000  0.4492740000000 1.0
C      1  0.4771600000000  0.5821290000000  0.4555650000000 1.0
C      1  0.4565680000000  0.4214480000000  0.4773750000000 1.0
C      1  0.4492080000000  0.5811320000000  0.5091180000000 1.0
C      1  0.4667660000000  0.4234490000000  0.5356810000000 1.0
C      1  0.4904280000000  0.5779730000000  0.5499480000000 1.0
C      1  0.5257430000000  0.4198830000000  0.5457560000000 1.0
C      1  0.5410500000000  0.5732600000000  0.5218940000000 1.0
C      1  0.5521980000000  0.4214130000000  0.4909270000000 1.0
C      1  0.5335650000000  0.5765890000000  0.4651580000000 1.0
C      1  0.4491090000000  0.4859140000000  0.5235200000000 1.0
C      1  0.4753530000000  0.5200050000000  0.5448830000000 1.0
C      1  0.5075510000000  0.4866840000000  0.5607980000000 1.0
C      1  0.5363740000000  0.5163040000000  0.5396660000000 1.0
C      1  0.5591690000000  0.4806050000000  0.5142540000000 1.0
C      1  0.5485650000000  0.5100090000000  0.4781750000000 1.0
C      1  0.5294620000000  0.4797070000000  0.4499530000000 1.0
C      1  0.4962150000000  0.5158310000000  0.4444940000000 1.0
C      1  0.4595160000000  0.4878950000000  0.4557300000000 1.0
C      1  0.4478890000000  0.5212690000000  0.4891510000000 1.0
C      1  0.4475950000000  0.5149540000000  0.5326710000000 1.0
C      1  0.4795340000000  0.4869330000000  0.5551900000000 1.0
C      1  0.5120770000000  0.5160340000000  0.5588980000000 1.0
C      1  0.5462740000000  0.4856600000000  0.5388590000000 1.0
C      1  0.5626560000000  0.5097120000000  0.5050240000000 1.0
C      1  0.5501700000000  0.4796640000000  0.4704070000000 1.0
C      1  0.5264300000000  0.5104810000000  0.4435980000000 1.0
C      1  0.4852380000000  0.4865090000000  0.4420990000000 1.0
C      1  0.4550770000000  0.5166830000000  0.4606140000000 1.0
C      1  0.4425520000000  0.4890010000000  0.4967620000000 1.0
C      1  0.4972170000000  0.4481250000000  0.4134880000000 1.0
C      1  0.4491570000000  0.5523510000000  0.4344830000000 1.0
C      1  0.4199460000000  0.4489290000000  0.4768290000000 1.0
C      1  0.4213470000000  0.5504320000000  0.5293050000000 1.0
C      1  0.4564110000000  0.4514920000000  0.5688220000000 1.0
C      1  0.5019470000000  0.5507000000000  0.5853230000000 1.0
C      1  0.5544000000000  0.4469280000000  0.5695750000000 1.0
C      1  0.5784390000000  0.5471170000000  0.5227340000000 1.0
C      1  0.5813600000000  0.4485230000000  0.4690710000000 1.0
C      1  0.5457660000000  0.5479870000000  0.4313030000000 1.0
C      1  0.4968930000000  0.5228090000000  0.4740830000000 1.0
C      1  0.4648620000000  0.4759280000000  0.4830320000000 1.0
C      1  0.4780800000000  0.5343430000000  0.4944790000000 1.0
C      1  0.4779710000000  0.4755540000000  0.5252160000000 1.0
C      1  0.4911110000000  0.5271090000000  0.5204340000000 1.0
C      1  0.5203170000000  0.4731780000000  0.5374260000000 1.0
C      1  0.5187570000000  0.5214280000000  0.5154700000000 1.0
C      1  0.5416940000000  0.4629470000000  0.4962190000000 1.0
C      1  0.5214710000000  0.5164750000000  0.4876020000000 1.0
C      1  0.5032920000000  0.4727000000000  0.4612930000000 1.0
C      1  0.4725420000000  0.5456250000000  0.5797310000000 1.0
C      1  0.5270230000000  0.4499210000000  0.5827980000000 1.0
C      1  0.5658790000000  0.5447580000000  0.5497860000000 1.0
C      1  0.5893680000000  0.4535320000000  0.4976910000000 1.0
C      1  0.5643380000000  0.5425810000000  0.4535730000000 1.0
C      1  0.5274870000000  0.4516180000000  0.4171450000000 1.0
C      1  0.4762860000000  0.5474260000000  0.4221110000000 1.0
C      1  0.4329570000000  0.4514210000000  0.4490500000000 1.0
C      1  0.4161520000000  0.5483800000000  0.4999550000000 1.0
C      1  0.4335680000000  0.4549380000000  0.5501220000000 1.0
C      1  0.4891100000000  0.6016240000000  0.4769390000000 1.0
C      1  0.4800440000000  0.4096340000000  0.4889470000000 1.0
C      1  0.4735300000000  0.6013310000000  0.5063680000000 1.0
C      1  0.4846240000000  0.4098220000000  0.5175580000000 1.0
C      1  0.4949460000000  0.5917710000000  0.5247670000000 1.0
C      1  0.5133720000000  0.4097950000000  0.5217510000000 1.0
C      1  0.5175040000000  0.5835810000000  0.5100650000000 1.0
C      1  0.5262610000000  0.4096130000000  0.4958220000000 1.0
C      1  0.5164590000000  0.5915310000000  0.4831820000000 1.0
C      1  0.5056670000000  0.4099850000000  0.4755610000000 1.0
C      1  0.5229850000000  0.4810120000000  0.5872770000000 1.0
C      1  0.5720150000000  0.5154600000000  0.5578300000000 1.0
C      1  0.5950990000000  0.4851590000000  0.4991170000000 1.0
C      1  0.5760370000000  0.5152750000000  0.4473090000000 1.0
C      1  0.5314670000000  0.4827300000000  0.4114530000000 1.0
C      1  0.4753020000000  0.5181090000000  0.4121380000000 1.0
C      1  0.4314550000000  0.4823520000000  0.4432010000000 1.0
C      1  0.4096620000000  0.5187730000000  0.4958280000000 1.0
C      1  0.4265290000000  0.4870450000000  0.5551240000000 1.0
C      1  0.4703120000000  0.5160300000000  0.5872290000000 1.0
C      1  0.4367080000000  0.4327770000000  0.4958820000000 1.0
C      1  0.4443420000000  0.5675780000000  0.5355310000000 1.0
C      1  0.4784800000000  0.4346860000000  0.5596500000000 1.0
C      1  0.5141070000000  0.5664900000000  0.5631460000000 1.0
C      1  0.5530860000000  0.4308850000000  0.5438680000000 1.0
C      1  0.5608370000000  0.5615440000000  0.5045570000000 1.0
C      1  0.5556360000000  0.4346640000000  0.4651920000000 1.0
C      1  0.5236740000000  0.5656930000000  0.4402300000000 1.0
C      1  0.4852820000000  0.4313610000000  0.4356590000000 1.0
C      1  0.4507200000000  0.5687950000000  0.4595210000000 1.0
C      1  0.5119420000000  0.4643430000000  0.5092170000000 1.0
C      1  0.4811220000000  0.5661350000000  0.4914980000000 1.0
C      1  0.4944500000000  0.4815770000000  0.4895040000000 1.0
END
