TITL C-3578199-7832-737 -2.49087404657332e-07 125000 -319.033766857867 0 0 53 (C1) n - 1
REM
REM in /home/bkarasulu/work/CARBON/AIRSS/Generating-Clusters/EDIP-Nigel-Params/with-SteepDescent/Higher-Symm/SD-CG/HFTN-CG
REM
REM
REM
REM
REM
REM ./C.cell (12c818d87b63d06a65506943cc24bca4)
REM
REM compiler GCC version 9.2.1 20190827 (Red Hat 9.2.1-1)
REM options -cpp -mtune=generic -march=x86-64 -g -O0 -fpre-include=/usr/include/finclude/math-vector-fortran.h
REM seed -1992101430 -1699859409 -1209587487 707463845 2083394961 -17259638 25061771 2046896122 -1881908040 2097017439 949054887 -394445011 255548021 94509661 205764673 254775327 -1862848838 -1874843621 1001713544 76273063 -566178490 1960349161 -1530787619 -1997688779 -714379890 -235502181 1703650233 -486757153 1089166835 1613752717 -864603803 757202298 -915218205
REM
CELL 1.54180   50.00000   50.00000   50.00000   90.00000   90.00000   90.00000
LATT -1
SFAC C  
C      1  0.5133750000000  0.5107800000000  0.4977650000000 1.0
C      1  0.4447200000000  0.4466570000000  0.5490570000000 1.0
C      1  0.4716370000000  0.5355040000000  0.4699190000000 1.0
C      1  0.5305130000000  0.5327970000000  0.4799630000000 1.0
C      1  0.4752100000000  0.5602670000000  0.4854980000000 1.0
C      1  0.4943470000000  0.5298150000000  0.5188000000000 1.0
C      1  0.5318510000000  0.4886910000000  0.5188930000000 1.0
C      1  0.4303220000000  0.4888800000000  0.5143660000000 1.0
C      1  0.5612180000000  0.4735500000000  0.4581070000000 1.0
C      1  0.4647640000000  0.4897690000000  0.4459550000000 1.0
C      1  0.5110620000000  0.4955130000000  0.5411300000000 1.0
C      1  0.4626650000000  0.4878560000000  0.5177900000000 1.0
C      1  0.4256130000000  0.5079460000000  0.5384080000000 1.0
C      1  0.4653950000000  0.4249200000000  0.5092820000000 1.0
C      1  0.4660330000000  0.4396520000000  0.5328560000000 1.0
C      1  0.5501530000000  0.5024020000000  0.5597040000000 1.0
C      1  0.4322650000000  0.5148300000000  0.4954400000000 1.0
C      1  0.5596370000000  0.4914870000000  0.5338070000000 1.0
C      1  0.5081610000000  0.4677090000000  0.4519230000000 1.0
C      1  0.5198750000000  0.4796310000000  0.5644900000000 1.0
C      1  0.4677920000000  0.5159550000000  0.5304230000000 1.0
C      1  0.4452210000000  0.4984320000000  0.5573020000000 1.0
C      1  0.5469890000000  0.4966040000000  0.4492860000000 1.0
C      1  0.5085230000000  0.5252270000000  0.5459430000000 1.0
C      1  0.5712920000000  0.5055260000000  0.4870820000000 1.0
C      1  0.5058490000000  0.5027290000000  0.4213590000000 1.0
C      1  0.5781730000000  0.4791460000000  0.4789430000000 1.0
C      1  0.5180470000000  0.4931510000000  0.4450410000000 1.0
C      1  0.4980590000000  0.4858870000000  0.4840150000000 1.0
C      1  0.5527070000000  0.5366800000000  0.5243110000000 1.0
C      1  0.4844840000000  0.4620680000000  0.5309720000000 1.0
C      1  0.4900250000000  0.5593150000000  0.5129760000000 1.0
C      1  0.5385590000000  0.5291170000000  0.5505540000000 1.0
C      1  0.5170780000000  0.5537250000000  0.4616840000000 1.0
C      1  0.5289490000000  0.4423200000000  0.5352720000000 1.0
C      1  0.5092770000000  0.4536130000000  0.5523320000000 1.0
C      1  0.4701110000000  0.4911460000000  0.4897450000000 1.0
C      1  0.4828840000000  0.4367130000000  0.4907800000000 1.0
C      1  0.4797300000000  0.5098300000000  0.4301060000000 1.0
C      1  0.4809860000000  0.5362610000000  0.4425180000000 1.0
C      1  0.5538630000000  0.5188080000000  0.4675800000000 1.0
C      1  0.5272920000000  0.4586770000000  0.5123590000000 1.0
C      1  0.4798130000000  0.4644000000000  0.4496280000000 1.0
C      1  0.5395430000000  0.5513300000000  0.5018590000000 1.0
C      1  0.5030550000000  0.5736720000000  0.4788500000000 1.0
C      1  0.4452170000000  0.4710570000000  0.5605920000000 1.0
C      1  0.5184500000000  0.5718730000000  0.5069610000000 1.0
C      1  0.4409320000000  0.5307330000000  0.5211660000000 1.0
C      1  0.5689020000000  0.5130150000000  0.5159820000000 1.0
C      1  0.4988090000000  0.4597060000000  0.5030660000000 1.0
C      1  0.5049580000000  0.5495650000000  0.4367720000000 1.0
C      1  0.4546090000000  0.5111060000000  0.4748350000000 1.0
C      1  0.4710040000000  0.4439560000000  0.4665520000000 1.0
END
