TITL C-3578204-4308-413 -5.66180774670539e-07 125000 -58.5155229401208 0 0 11 (Cs) n - 1
REM
REM in /home/bkarasulu/work/CARBON/AIRSS/Generating-Clusters/EDIP-Nigel-Params/with-SteepDescent/Higher-Symm/SD-CG/HFTN-CG
REM
REM
REM
REM
REM
REM ./C.cell (12c818d87b63d06a65506943cc24bca4)
REM
REM compiler GCC version 9.2.1 20190827 (Red Hat 9.2.1-1)
REM options -cpp -mtune=generic -march=x86-64 -g -O0 -fpre-include=/usr/include/finclude/math-vector-fortran.h
REM seed 1142588164 -891284336 -2068002986 -501465927 -1826228158 -102498228 413279090 2131998450 85647273 -456848927 -1961409675 231452083 1583202000 -964806843 93955848 169895744 694923992 1052440771 2034314091 1362496252 -1137583560 155912147 -1890269908 1208798506 -305183278 -153172531 -374547468 -1761902403 576643212 -1014132303 2045668781 708729530 135222834
REM
CELL 1.54180   50.00000   50.00000   50.00000   90.00000   90.00000   90.00000
LATT -1
SFAC C  
C      1  0.5373460000000  0.4992910000000  0.4989440000000 1.0
C      1  0.5045170000000  0.5325460000000  0.4988030000000 1.0
C      1  0.5064730000000  0.4968920000000  0.5337360000000 1.0
C      1  0.4710230000000  0.4984280000000  0.4985760000000 1.0
C      1  0.5048780000000  0.4662170000000  0.4987240000000 1.0
C      1  0.5042360000000  0.4995410000000  0.4659230000000 1.0
C      1  0.5221520000000  0.4816240000000  0.5152270000000 1.0
C      1  0.5213470000000  0.5158030000000  0.4819590000000 1.0
C      1  0.4716840000000  0.5311380000000  0.5196780000000 1.0
C      1  0.4881870000000  0.4820240000000  0.4817340000000 1.0
C      1  0.4905070000000  0.5126980000000  0.5138730000000 1.0
END
