TITL C-3577090-796-213 -1.13123512386945e-07 125000 -760.655128595265 0 0 121 (C1) n - 1
REM
REM in /home/bkarasulu/work/CARBON/AIRSS/Generating-Clusters/EDIP-Nigel-Params/with-SteepDescent/Higher-Symm/SD-CG/HFTN-CG
REM
REM
REM
REM
REM
REM ./C.cell (12c818d87b63d06a65506943cc24bca4)
REM
REM compiler GCC version 9.2.1 20190827 (Red Hat 9.2.1-1)
REM options -cpp -mtune=generic -march=x86-64 -g -O0 -fpre-include=/usr/include/finclude/math-vector-fortran.h
REM seed 1131723437 -438306982 -1732825478 -229937299 1577043978 1555868253 -616557466 1249772457 -491269124 2120938600 -86770531 -1317177748 248818842 -1867959894 -1726241988 603934206 469693781 2016100560 246179602 1249042969 -550370086 -663243017 -2006918993 1860142313 -114016985 -965729269 -720814413 1007815162 1636944897 2087878438 566769655 -847851683 162538414
REM
CELL 1.54180   50.00000   50.00000   50.00000   90.00000   90.00000   90.00000
LATT -1
SFAC C  
C      1  0.4323290000000  0.4765460000000  0.4511230000000 1.0
C      1  0.4757900000000  0.4283230000000  0.4601050000000 1.0
C      1  0.5412350000000  0.4312280000000  0.4483590000000 1.0
C      1  0.5711530000000  0.4858800000000  0.4481350000000 1.0
C      1  0.5534520000000  0.5520560000000  0.4503840000000 1.0
C      1  0.4913360000000  0.5881750000000  0.4477090000000 1.0
C      1  0.4377150000000  0.5423150000000  0.4317920000000 1.0
C      1  0.5072900000000  0.5951610000000  0.5180670000000 1.0
C      1  0.4290280000000  0.5669510000000  0.5247770000000 1.0
C      1  0.4105710000000  0.4881790000000  0.5172350000000 1.0
C      1  0.4556510000000  0.4161560000000  0.5212110000000 1.0
C      1  0.5390980000000  0.4055900000000  0.5249300000000 1.0
C      1  0.5940560000000  0.4706530000000  0.5192910000000 1.0
C      1  0.5793500000000  0.5519790000000  0.5182540000000 1.0
C      1  0.4705890000000  0.4905690000000  0.5904320000000 1.0
C      1  0.4899260000000  0.4691610000000  0.5915970000000 1.0
C      1  0.5187590000000  0.4714860000000  0.5913640000000 1.0
C      1  0.5344740000000  0.4955370000000  0.5894990000000 1.0
C      1  0.5263700000000  0.5231940000000  0.5906620000000 1.0
C      1  0.4997150000000  0.5339240000000  0.5902430000000 1.0
C      1  0.4750300000000  0.5190430000000  0.5918650000000 1.0
C      1  0.4583960000000  0.5313280000000  0.4155100000000 1.0
C      1  0.4444110000000  0.4789980000000  0.4253020000000 1.0
C      1  0.4843010000000  0.4458250000000  0.4400890000000 1.0
C      1  0.5355700000000  0.4598900000000  0.4435980000000 1.0
C      1  0.5563410000000  0.4941640000000  0.4253180000000 1.0
C      1  0.5439920000000  0.5519440000000  0.4243470000000 1.0
C      1  0.4924110000000  0.5842750000000  0.4200760000000 1.0
C      1  0.5218260000000  0.5447640000000  0.4093540000000 1.0
C      1  0.5038760000000  0.5653250000000  0.4050030000000 1.0
C      1  0.4790290000000  0.5123450000000  0.4082550000000 1.0
C      1  0.4705060000000  0.4847200000000  0.4152950000000 1.0
C      1  0.4915050000000  0.4698470000000  0.4279320000000 1.0
C      1  0.5193690000000  0.4699360000000  0.4210740000000 1.0
C      1  0.5306700000000  0.4953590000000  0.4129450000000 1.0
C      1  0.4199200000000  0.4603870000000  0.5183960000000 1.0
C      1  0.4823720000000  0.4032950000000  0.5228090000000 1.0
C      1  0.5641120000000  0.4215640000000  0.5214690000000 1.0
C      1  0.5943760000000  0.4995530000000  0.5158540000000 1.0
C      1  0.5594910000000  0.5732940000000  0.5174840000000 1.0
C      1  0.4794860000000  0.5876140000000  0.5161220000000 1.0
C      1  0.4113960000000  0.5435260000000  0.5247420000000 1.0
C      1  0.4507740000000  0.4307750000000  0.5468050000000 1.0
C      1  0.5248260000000  0.4131770000000  0.5501350000000 1.0
C      1  0.5778030000000  0.4646840000000  0.5419610000000 1.0
C      1  0.5734570000000  0.5367650000000  0.5409240000000 1.0
C      1  0.5184530000000  0.5873110000000  0.5443590000000 1.0
C      1  0.4464490000000  0.5662630000000  0.5484280000000 1.0
C      1  0.4168170000000  0.4981420000000  0.5445580000000 1.0
C      1  0.5386110000000  0.5671810000000  0.4704040000000 1.0
C      1  0.4654310000000  0.5836070000000  0.4615020000000 1.0
C      1  0.4223470000000  0.5233430000000  0.4462700000000 1.0
C      1  0.4303860000000  0.4510690000000  0.4673370000000 1.0
C      1  0.4952110000000  0.4077660000000  0.4679880000000 1.0
C      1  0.5655790000000  0.4350440000000  0.4647730000000 1.0
C      1  0.5789270000000  0.5069760000000  0.4665760000000 1.0
C      1  0.4138290000000  0.5334470000000  0.4976290000000 1.0
C      1  0.4361650000000  0.4543970000000  0.4956910000000 1.0
C      1  0.4999140000000  0.4023020000000  0.4970140000000 1.0
C      1  0.5585660000000  0.4376270000000  0.4944140000000 1.0
C      1  0.5718890000000  0.5020000000000  0.4953450000000 1.0
C      1  0.5400680000000  0.5588020000000  0.4995260000000 1.0
C      1  0.4635240000000  0.5804480000000  0.4915560000000 1.0
C      1  0.5209270000000  0.4140200000000  0.4579180000000 1.0
C      1  0.5773250000000  0.4590430000000  0.4550810000000 1.0
C      1  0.5719300000000  0.5326660000000  0.4580210000000 1.0
C      1  0.5158160000000  0.5835140000000  0.4626430000000 1.0
C      1  0.4457590000000  0.5669380000000  0.4462720000000 1.0
C      1  0.4191620000000  0.5004340000000  0.4625480000000 1.0
C      1  0.4471940000000  0.4269030000000  0.4625620000000 1.0
C      1  0.5328710000000  0.4482160000000  0.5853270000000 1.0
C      1  0.5609330000000  0.4912560000000  0.5823140000000 1.0
C      1  0.5460010000000  0.5415330000000  0.5834630000000 1.0
C      1  0.4980500000000  0.5611140000000  0.5837900000000 1.0
C      1  0.4522770000000  0.5340360000000  0.5868960000000 1.0
C      1  0.4444250000000  0.4829720000000  0.5845340000000 1.0
C      1  0.4801210000000  0.4437190000000  0.5859470000000 1.0
C      1  0.4681910000000  0.5010460000000  0.5192840000000 1.0
C      1  0.4803770000000  0.4749860000000  0.5220140000000 1.0
C      1  0.5015630000000  0.4761130000000  0.5403540000000 1.0
C      1  0.5222050000000  0.4887160000000  0.5260690000000 1.0
C      1  0.5270920000000  0.5151910000000  0.5356600000000 1.0
C      1  0.5069980000000  0.5353190000000  0.5349460000000 1.0
C      1  0.4819760000000  0.5224310000000  0.5313630000000 1.0
C      1  0.4204590000000  0.5269750000000  0.5472100000000 1.0
C      1  0.4334350000000  0.4549810000000  0.5440630000000 1.0
C      1  0.4951960000000  0.4141640000000  0.5471860000000 1.0
C      1  0.5639680000000  0.4393950000000  0.5451140000000 1.0
C      1  0.5850170000000  0.5102070000000  0.5422240000000 1.0
C      1  0.5463630000000  0.5748930000000  0.5444630000000 1.0
C      1  0.4731900000000  0.5762150000000  0.5423330000000 1.0
C      1  0.5113950000000  0.5576540000000  0.5128340000000 1.0
C      1  0.4416730000000  0.5600320000000  0.4972590000000 1.0
C      1  0.4227550000000  0.5057350000000  0.4929530000000 1.0
C      1  0.4584550000000  0.4355580000000  0.4986670000000 1.0
C      1  0.5253250000000  0.4187910000000  0.5007350000000 1.0
C      1  0.5600300000000  0.4679140000000  0.5016190000000 1.0
C      1  0.5522360000000  0.5259150000000  0.5035670000000 1.0
C      1  0.5001520000000  0.5477130000000  0.4620440000000 1.0
C      1  0.4688750000000  0.5399520000000  0.4623780000000 1.0
C      1  0.4745690000000  0.5122150000000  0.4491840000000 1.0
C      1  0.4687660000000  0.4923630000000  0.4707270000000 1.0
C      1  0.4878580000000  0.4683100000000  0.4718800000000 1.0
C      1  0.5183090000000  0.4764110000000  0.4721950000000 1.0
C      1  0.5227950000000  0.5044440000000  0.4666160000000 1.0
C      1  0.4623470000000  0.5358040000000  0.4918120000000 1.0
C      1  0.4545310000000  0.5067470000000  0.4942340000000 1.0
C      1  0.4845890000000  0.4543330000000  0.5000720000000 1.0
C      1  0.5137170000000  0.4456970000000  0.5069420000000 1.0
C      1  0.5294920000000  0.4709180000000  0.5018770000000 1.0
C      1  0.5233450000000  0.5171340000000  0.4920640000000 1.0
C      1  0.5014760000000  0.5382730000000  0.4913180000000 1.0
C      1  0.4750210000000  0.4277930000000  0.5635570000000 1.0
C      1  0.5407160000000  0.4344830000000  0.5622630000000 1.0
C      1  0.5744030000000  0.4882590000000  0.5580920000000 1.0
C      1  0.5568290000000  0.5515670000000  0.5597270000000 1.0
C      1  0.4956760000000  0.5775390000000  0.5609900000000 1.0
C      1  0.4388540000000  0.5424610000000  0.5639620000000 1.0
C      1  0.4290800000000  0.4776370000000  0.5617430000000 1.0
C      1  0.5105750000000  0.5182330000000  0.4173220000000 1.0
C      1  0.5054050000000  0.5194660000000  0.4476790000000 1.0
END
