TITL C-3577084-3642-179 4.18756344404462e-07 125000 -881.427500627077 0 0 139 (C1) n - 1
REM
REM in /home/bkarasulu/work/CARBON/AIRSS/Generating-Clusters/EDIP-Nigel-Params/with-SteepDescent/Higher-Symm/SD-CG/HFTN-CG
REM
REM
REM
REM
REM
REM ./C.cell (12c818d87b63d06a65506943cc24bca4)
REM
REM compiler GCC version 9.2.1 20190827 (Red Hat 9.2.1-1)
REM options -cpp -mtune=generic -march=x86-64 -g -O0 -fpre-include=/usr/include/finclude/math-vector-fortran.h
REM seed -2078534007 1993055416 -358313590 922974589 -1034823265 -694872354 -1758757032 -1975925665 1726298313 -464264186 2052329271 -1917511856 1463116311 -1300829277 676649539 542097383 1204462418 -537501232 -78711572 1059181965 -287106225 -12100473 -572523233 1265289722 -321672514 792080021 1720027775 -93791 -894851871 -968821581 -1542260710 -1959430601 -1380948954
REM
CELL 1.54180   50.00000   50.00000   50.00000   90.00000   90.00000   90.00000
LATT -1
SFAC C  
C      1  0.5716230000000  0.5099450000000  0.4195210000000 1.0
C      1  0.3942580000000  0.5156060000000  0.4777680000000 1.0
C      1  0.5376550000000  0.5132280000000  0.5986770000000 1.0
C      1  0.5126650000000  0.5177700000000  0.3790610000000 1.0
C      1  0.4003540000000  0.4905260000000  0.5381680000000 1.0
C      1  0.6019200000000  0.5175920000000  0.5690690000000 1.0
C      1  0.5283510000000  0.4846500000000  0.6028930000000 1.0
C      1  0.5780920000000  0.4812270000000  0.4280470000000 1.0
C      1  0.3993140000000  0.4843800000000  0.4684310000000 1.0
C      1  0.4621150000000  0.4311890000000  0.5654130000000 1.0
C      1  0.5763300000000  0.4274560000000  0.5045190000000 1.0
C      1  0.4687640000000  0.4407190000000  0.4332720000000 1.0
C      1  0.4535040000000  0.4235850000000  0.5390140000000 1.0
C      1  0.5558510000000  0.4228840000000  0.5232970000000 1.0
C      1  0.4897600000000  0.4234720000000  0.4432380000000 1.0
C      1  0.4203010000000  0.4289490000000  0.4442640000000 1.0
C      1  0.5029040000000  0.4303150000000  0.5942080000000 1.0
C      1  0.5813260000000  0.4274560000000  0.4563260000000 1.0
C      1  0.5301190000000  0.5720910000000  0.5695460000000 1.0
C      1  0.5450970000000  0.5703870000000  0.4383900000000 1.0
C      1  0.4233880000000  0.5709600000000  0.4900660000000 1.0
C      1  0.5324100000000  0.4936410000000  0.4680060000000 1.0
C      1  0.4552000000000  0.4939980000000  0.4861650000000 1.0
C      1  0.5082050000000  0.4947410000000  0.5460900000000 1.0
C      1  0.5395030000000  0.4625240000000  0.5776000000000 1.0
C      1  0.5521070000000  0.4579250000000  0.4279470000000 1.0
C      1  0.4075450000000  0.4519850000000  0.4858290000000 1.0
C      1  0.4707640000000  0.5814760000000  0.5500670000000 1.0
C      1  0.5561480000000  0.5809380000000  0.4989640000000 1.0
C      1  0.4708000000000  0.5815000000000  0.4506490000000 1.0
C      1  0.5534900000000  0.5113340000000  0.4883190000000 1.0
C      1  0.4607640000000  0.5113240000000  0.4585360000000 1.0
C      1  0.4817200000000  0.5121680000000  0.5536490000000 1.0
C      1  0.4507510000000  0.5585940000000  0.4512970000000 1.0
C      1  0.4822880000000  0.5591470000000  0.5676620000000 1.0
C      1  0.5655130000000  0.5581770000000  0.4805950000000 1.0
C      1  0.5624750000000  0.4292720000000  0.5494890000000 1.0
C      1  0.5117330000000  0.4248820000000  0.4262340000000 1.0
C      1  0.4287960000000  0.4304210000000  0.5276060000000 1.0
C      1  0.4858560000000  0.5885030000000  0.5257190000000 1.0
C      1  0.5278880000000  0.5884250000000  0.4983320000000 1.0
C      1  0.4837700000000  0.5885380000000  0.4759330000000 1.0
C      1  0.5676260000000  0.5571890000000  0.4498830000000 1.0
C      1  0.4223450000000  0.5603850000000  0.4633990000000 1.0
C      1  0.5091180000000  0.5593950000000  0.5838280000000 1.0
C      1  0.4456770000000  0.5165100000000  0.4308370000000 1.0
C      1  0.4685200000000  0.5151200000000  0.5823930000000 1.0
C      1  0.5851520000000  0.5146340000000  0.4885690000000 1.0
C      1  0.4108830000000  0.4870070000000  0.4409020000000 1.0
C      1  0.4988080000000  0.4866020000000  0.6056280000000 1.0
C      1  0.5916760000000  0.4837130000000  0.4542430000000 1.0
C      1  0.5920540000000  0.5122680000000  0.4603720000000 1.0
C      1  0.4163200000000  0.5155250000000  0.4359330000000 1.0
C      1  0.4909850000000  0.5148310000000  0.6019140000000 1.0
C      1  0.5522950000000  0.5085640000000  0.5741050000000 1.0
C      1  0.5438650000000  0.5055720000000  0.4134260000000 1.0
C      1  0.4132470000000  0.5182610000000  0.5001020000000 1.0
C      1  0.5394100000000  0.4442900000000  0.4739290000000 1.0
C      1  0.4501610000000  0.4356260000000  0.4796550000000 1.0
C      1  0.5019130000000  0.4443280000000  0.5511110000000 1.0
C      1  0.5231870000000  0.4218930000000  0.4847410000000 1.0
C      1  0.4721250000000  0.4210760000000  0.4903210000000 1.0
C      1  0.5029250000000  0.4219910000000  0.5312010000000 1.0
C      1  0.5201430000000  0.5399710000000  0.4652410000000 1.0
C      1  0.4594760000000  0.5407780000000  0.4981100000000 1.0
C      1  0.5167180000000  0.5414280000000  0.5352230000000 1.0
C      1  0.5601770000000  0.5701020000000  0.5264490000000 1.0
C      1  0.4932080000000  0.5712140000000  0.4334500000000 1.0
C      1  0.4445610000000  0.5705840000000  0.5403310000000 1.0
C      1  0.4363260000000  0.5493380000000  0.5602560000000 1.0
C      1  0.5821070000000  0.5496860000000  0.5238880000000 1.0
C      1  0.4817600000000  0.5495120000000  0.4167320000000 1.0
C      1  0.5268500000000  0.5269120000000  0.4034110000000 1.0
C      1  0.4033070000000  0.5204600000000  0.5275560000000 1.0
C      1  0.5737050000000  0.5271160000000  0.5676190000000 1.0
C      1  0.5459280000000  0.5060390000000  0.5162350000000 1.0
C      1  0.4874490000000  0.5023450000000  0.4509360000000 1.0
C      1  0.4617090000000  0.5046300000000  0.5334340000000 1.0
C      1  0.5749230000000  0.5280590000000  0.4429260000000 1.0
C      1  0.4053850000000  0.5341600000000  0.4566360000000 1.0
C      1  0.5138020000000  0.5309970000000  0.5943310000000 1.0
C      1  0.5877850000000  0.4389990000000  0.4813430000000 1.0
C      1  0.4401730000000  0.4451160000000  0.4325190000000 1.0
C      1  0.4773530000000  0.4415270000000  0.5878160000000 1.0
C      1  0.4737340000000  0.4609550000000  0.5192420000000 1.0
C      1  0.5262120000000  0.4621370000000  0.5138410000000 1.0
C      1  0.4946590000000  0.4601170000000  0.4724180000000 1.0
C      1  0.4954090000000  0.4291450000000  0.4725300000000 1.0
C      1  0.4749890000000  0.4291940000000  0.5192720000000 1.0
C      1  0.5275420000000  0.4301350000000  0.5143840000000 1.0
C      1  0.5559020000000  0.4383270000000  0.4504510000000 1.0
C      1  0.4232240000000  0.4324000000000  0.4717390000000 1.0
C      1  0.5194450000000  0.4403050000000  0.5736780000000 1.0
C      1  0.5344990000000  0.4864600000000  0.4346480000000 1.0
C      1  0.4257640000000  0.4911300000000  0.4955770000000 1.0
C      1  0.5373990000000  0.4867430000000  0.5575500000000 1.0
C      1  0.5938520000000  0.4876220000000  0.5016070000000 1.0
C      1  0.4522230000000  0.4911530000000  0.4147210000000 1.0
C      1  0.4554190000000  0.4879470000000  0.5878410000000 1.0
C      1  0.4158510000000  0.4986240000000  0.5636120000000 1.0
C      1  0.6090010000000  0.5109320000000  0.5410130000000 1.0
C      1  0.4861090000000  0.5094630000000  0.3887740000000 1.0
C      1  0.4691310000000  0.5884480000000  0.5015680000000 1.0
C      1  0.5153820000000  0.5888840000000  0.5249890000000 1.0
C      1  0.5129800000000  0.5881180000000  0.4732690000000 1.0
C      1  0.4471200000000  0.5676360000000  0.5072820000000 1.0
C      1  0.5314300000000  0.5679790000000  0.5406520000000 1.0
C      1  0.5188160000000  0.5674230000000  0.4512040000000 1.0
C      1  0.5797360000000  0.5234880000000  0.5376100000000 1.0
C      1  0.4970500000000  0.5239450000000  0.4142680000000 1.0
C      1  0.4255630000000  0.5245730000000  0.5491470000000 1.0
C      1  0.5081470000000  0.5121500000000  0.4706770000000 1.0
C      1  0.4692380000000  0.5128550000000  0.5058090000000 1.0
C      1  0.5180580000000  0.5137680000000  0.5229120000000 1.0
C      1  0.5019720000000  0.4681570000000  0.5316180000000 1.0
C      1  0.5225350000000  0.4681530000000  0.4821040000000 1.0
C      1  0.4702750000000  0.4672500000000  0.4898780000000 1.0
C      1  0.6003580000000  0.4846480000000  0.5307530000000 1.0
C      1  0.4783370000000  0.4857680000000  0.4026890000000 1.0
C      1  0.4354820000000  0.4785490000000  0.5702370000000 1.0
C      1  0.4781250000000  0.4705900000000  0.5917360000000 1.0
C      1  0.5909570000000  0.4680830000000  0.4797920000000 1.0
C      1  0.4342650000000  0.4729580000000  0.4293940000000 1.0
C      1  0.5491180000000  0.4793820000000  0.5283590000000 1.0
C      1  0.4882900000000  0.4722970000000  0.4447540000000 1.0
C      1  0.4503940000000  0.4771320000000  0.5357570000000 1.0
C      1  0.4223180000000  0.4768610000000  0.5218670000000 1.0
C      1  0.5809820000000  0.4722140000000  0.5492950000000 1.0
C      1  0.5092290000000  0.4731000000000  0.4224230000000 1.0
C      1  0.4629820000000  0.5386310000000  0.4694050000000 1.0
C      1  0.4904690000000  0.5395110000000  0.5471150000000 1.0
C      1  0.5434880000000  0.5384490000000  0.4825300000000 1.0
C      1  0.4135040000000  0.4503270000000  0.5147120000000 1.0
C      1  0.5660880000000  0.4523420000000  0.5646940000000 1.0
C      1  0.5237320000000  0.4476640000000  0.4154980000000 1.0
C      1  0.5882670000000  0.5444650000000  0.4955700000000 1.0
C      1  0.4531530000000  0.5452280000000  0.4239350000000 1.0
C      1  0.4581490000000  0.5446800000000  0.5805320000000 1.0
C      1  0.4987690000000  0.5108140000000  0.4997650000000 1.0
END
