TITL C-3577084-3642-111 1.01577801461465e-06 125000 -660.951112791972 0 0 108 (C1) n - 1
REM
REM in /home/bkarasulu/work/CARBON/AIRSS/Generating-Clusters/EDIP-Nigel-Params/with-SteepDescent/Higher-Symm/SD-CG/HFTN-CG
REM
REM
REM
REM
REM
REM ./C.cell (12c818d87b63d06a65506943cc24bca4)
REM
REM compiler GCC version 9.2.1 20190827 (Red Hat 9.2.1-1)
REM options -cpp -mtune=generic -march=x86-64 -g -O0 -fpre-include=/usr/include/finclude/math-vector-fortran.h
REM seed -599793435 618479126 38270835 2000952994 383169852 1751211808 -1976505788 1386399412 1898123436 -1315860185 634478094 -242455454 1531819440 -903157511 196605106 -873893886 600309450 713319633 -622012535 -1480318537 1698960959 408671574 325016845 -1519484303 -979879017 39347506 1331517291 973398206 1344761123 -1187477454 1299717177 1162792855 525860368
REM
CELL 1.54180   50.00000   50.00000   50.00000   90.00000   90.00000   90.00000
LATT -1
SFAC C  
C      1  0.5127780000000  0.5634680000000  0.5127790000000 1.0
C      1  0.4830460000000  0.5715220000000  0.5127590000000 1.0
C      1  0.4612730000000  0.5501740000000  0.5112700000000 1.0
C      1  0.4511180000000  0.4914490000000  0.5063840000000 1.0
C      1  0.4601490000000  0.4628460000000  0.5068240000000 1.0
C      1  0.5074000000000  0.4383000000000  0.5070000000000 1.0
C      1  0.5370360000000  0.4457030000000  0.5106450000000 1.0
C      1  0.5597210000000  0.4897640000000  0.5159500000000 1.0
C      1  0.5543420000000  0.5202390000000  0.5132580000000 1.0
C      1  0.4466340000000  0.4913900000000  0.5520490000000 1.0
C      1  0.4537690000000  0.4481990000000  0.5517580000000 1.0
C      1  0.4952520000000  0.4231040000000  0.5534890000000 1.0
C      1  0.5409480000000  0.4495420000000  0.5698860000000 1.0
C      1  0.5553550000000  0.4768090000000  0.5718470000000 1.0
C      1  0.5505790000000  0.5217810000000  0.5627790000000 1.0
C      1  0.5181440000000  0.5561920000000  0.5769810000000 1.0
C      1  0.4900790000000  0.5489450000000  0.5732400000000 1.0
C      1  0.4500870000000  0.5326650000000  0.5626520000000 1.0
C      1  0.5539300000000  0.5265000000000  0.4374110000000 1.0
C      1  0.5341680000000  0.5507170000000  0.4390350000000 1.0
C      1  0.4875700000000  0.5712740000000  0.4287390000000 1.0
C      1  0.4454640000000  0.5468910000000  0.4351030000000 1.0
C      1  0.4348400000000  0.4975580000000  0.4400030000000 1.0
C      1  0.4415550000000  0.4664310000000  0.4368040000000 1.0
C      1  0.4836150000000  0.4294770000000  0.4371470000000 1.0
C      1  0.5316260000000  0.4370800000000  0.4349810000000 1.0
C      1  0.5576550000000  0.4754710000000  0.4426080000000 1.0
C      1  0.5232920000000  0.5354860000000  0.5976610000000 1.0
C      1  0.4849890000000  0.5306290000000  0.5951090000000 1.0
C      1  0.4615360000000  0.5169460000000  0.5846000000000 1.0
C      1  0.4645370000000  0.4879540000000  0.5753560000000 1.0
C      1  0.4666940000000  0.4570540000000  0.5771000000000 1.0
C      1  0.4930170000000  0.4407610000000  0.5782640000000 1.0
C      1  0.5177490000000  0.4550870000000  0.5864010000000 1.0
C      1  0.5381010000000  0.4873210000000  0.5927400000000 1.0
C      1  0.5414850000000  0.5155760000000  0.5883790000000 1.0
C      1  0.5656320000000  0.4390520000000  0.4701390000000 1.0
C      1  0.5808650000000  0.4989710000000  0.4726540000000 1.0
C      1  0.5669880000000  0.5557540000000  0.4724530000000 1.0
C      1  0.5173450000000  0.5884580000000  0.4650920000000 1.0
C      1  0.4587720000000  0.5804110000000  0.4655230000000 1.0
C      1  0.4209510000000  0.5335450000000  0.4740150000000 1.0
C      1  0.4198740000000  0.4760350000000  0.4790010000000 1.0
C      1  0.4532130000000  0.4275370000000  0.4729140000000 1.0
C      1  0.5120380000000  0.4108760000000  0.4723670000000 1.0
C      1  0.4692530000000  0.4743740000000  0.4257880000000 1.0
C      1  0.4899430000000  0.4565520000000  0.4346010000000 1.0
C      1  0.5172680000000  0.4599300000000  0.4265160000000 1.0
C      1  0.5321400000000  0.4829030000000  0.4352350000000 1.0
C      1  0.5301730000000  0.5093770000000  0.4246720000000 1.0
C      1  0.5108530000000  0.5320750000000  0.4323280000000 1.0
C      1  0.4891960000000  0.5450330000000  0.4186030000000 1.0
C      1  0.4635480000000  0.5311740000000  0.4208690000000 1.0
C      1  0.4632960000000  0.5042850000000  0.4316180000000 1.0
C      1  0.4326410000000  0.5610470000000  0.5123290000000 1.0
C      1  0.4178900000000  0.4945400000000  0.5259490000000 1.0
C      1  0.4389800000000  0.4398540000000  0.5166080000000 1.0
C      1  0.4946430000000  0.4042060000000  0.5191960000000 1.0
C      1  0.5549390000000  0.4216430000000  0.5118210000000 1.0
C      1  0.5884990000000  0.4798650000000  0.5147110000000 1.0
C      1  0.5797930000000  0.5377330000000  0.5136020000000 1.0
C      1  0.5304580000000  0.5876440000000  0.5116660000000 1.0
C      1  0.4751960000000  0.5991070000000  0.5060400000000 1.0
C      1  0.4430340000000  0.4574970000000  0.4658620000000 1.0
C      1  0.4840030000000  0.4256890000000  0.4660080000000 1.0
C      1  0.5348490000000  0.4323620000000  0.4630970000000 1.0
C      1  0.5676310000000  0.4707790000000  0.4688680000000 1.0
C      1  0.5617210000000  0.5243100000000  0.4676510000000 1.0
C      1  0.5361860000000  0.5639410000000  0.4659930000000 1.0
C      1  0.4887470000000  0.5737930000000  0.4579130000000 1.0
C      1  0.4436590000000  0.5524090000000  0.4634910000000 1.0
C      1  0.4299430000000  0.5037540000000  0.4687400000000 1.0
C      1  0.4134710000000  0.5410280000000  0.5016330000000 1.0
C      1  0.4111760000000  0.4727720000000  0.5066140000000 1.0
C      1  0.4472780000000  0.4168720000000  0.4995360000000 1.0
C      1  0.5154550000000  0.3963510000000  0.4979700000000 1.0
C      1  0.5773970000000  0.4308550000000  0.4957490000000 1.0
C      1  0.5995340000000  0.4989660000000  0.4953360000000 1.0
C      1  0.5756770000000  0.5633720000000  0.4993420000000 1.0
C      1  0.5201010000000  0.6048790000000  0.4897440000000 1.0
C      1  0.4514170000000  0.5976630000000  0.4885690000000 1.0
C      1  0.5182550000000  0.5478140000000  0.5396540000000 1.0
C      1  0.4919570000000  0.5355500000000  0.5478190000000 1.0
C      1  0.4650550000000  0.5315950000000  0.5368340000000 1.0
C      1  0.4610730000000  0.5036170000000  0.5305380000000 1.0
C      1  0.4729340000000  0.4611630000000  0.5335460000000 1.0
C      1  0.4969630000000  0.4453840000000  0.5343640000000 1.0
C      1  0.5341200000000  0.4561780000000  0.5395280000000 1.0
C      1  0.5463540000000  0.4832660000000  0.5419740000000 1.0
C      1  0.5390440000000  0.5270190000000  0.5378870000000 1.0
C      1  0.4080320000000  0.5197400000000  0.5188080000000 1.0
C      1  0.4110730000000  0.4463710000000  0.5152420000000 1.0
C      1  0.4680900000000  0.4015770000000  0.5100340000000 1.0
C      1  0.5423850000000  0.3974460000000  0.5056060000000 1.0
C      1  0.5907350000000  0.4528800000000  0.5072450000000 1.0
C      1  0.6032310000000  0.5244830000000  0.5060950000000 1.0
C      1  0.5575390000000  0.5814670000000  0.5106240000000 1.0
C      1  0.4954640000000  0.6162490000000  0.4968830000000 1.0
C      1  0.4292230000000  0.5868700000000  0.5020150000000 1.0
C      1  0.5190860000000  0.5466510000000  0.4857630000000 1.0
C      1  0.4925820000000  0.5453850000000  0.4702950000000 1.0
C      1  0.4658630000000  0.5365650000000  0.4821340000000 1.0
C      1  0.4586000000000  0.5042250000000  0.4798680000000 1.0
C      1  0.4698380000000  0.4735120000000  0.4701620000000 1.0
C      1  0.4940070000000  0.4520600000000  0.4808630000000 1.0
C      1  0.5218740000000  0.4588300000000  0.4704890000000 1.0
C      1  0.5435620000000  0.4719480000000  0.4905670000000 1.0
C      1  0.5378600000000  0.5225780000000  0.4877440000000 1.0
END
