TITL C-3578200-9634-755 -3.90867856275178e-07 125000 -1006.46097161631 0 0 161 (C1) n - 1
REM
REM in /home/bkarasulu/work/CARBON/AIRSS/Generating-Clusters/EDIP-Nigel-Params/with-SteepDescent/Higher-Symm/SD-CG/HFTN-CG
REM
REM
REM
REM
REM
REM ./C.cell (12c818d87b63d06a65506943cc24bca4)
REM
REM compiler GCC version 9.2.1 20190827 (Red Hat 9.2.1-1)
REM options -cpp -mtune=generic -march=x86-64 -g -O0 -fpre-include=/usr/include/finclude/math-vector-fortran.h
REM seed -844190906 -878251614 18962896 -182365106 -1533989296 -1966715059 -129512557 1015109791 -2047457042 -35267939 -403759034 1771427970 -363068523 -1817277527 -1913423030 1501202867 -1099896770 171730064 1002286044 -602964058 -1988925286 1456193382 408574050 715325239 132505885 780559065 -1619951268 -2146591261 -1921416418 -430561856 -845448272 1212509706 -411633516
REM
CELL 1.54180   50.00000   50.00000   50.00000   90.00000   90.00000   90.00000
LATT -1
SFAC C  
C      1  0.5559140000000  0.5692130000000  0.4996170000000 1.0
C      1  0.4516190000000  0.5747410000000  0.4947760000000 1.0
C      1  0.4130060000000  0.4759730000000  0.4971630000000 1.0
C      1  0.4924100000000  0.4108110000000  0.4883810000000 1.0
C      1  0.5843520000000  0.4655090000000  0.4930990000000 1.0
C      1  0.4388380000000  0.5666470000000  0.4303860000000 1.0
C      1  0.4208870000000  0.4620840000000  0.4398360000000 1.0
C      1  0.5080130000000  0.4116640000000  0.4221430000000 1.0
C      1  0.5866320000000  0.4813510000000  0.4325210000000 1.0
C      1  0.5440140000000  0.5798060000000  0.4369500000000 1.0
C      1  0.4892480000000  0.4558940000000  0.4374380000000 1.0
C      1  0.5356830000000  0.4846010000000  0.4353600000000 1.0
C      1  0.5325210000000  0.5311390000000  0.4367870000000 1.0
C      1  0.4815750000000  0.5380640000000  0.4218370000000 1.0
C      1  0.4548080000000  0.4956730000000  0.4252420000000 1.0
C      1  0.4974740000000  0.5271400000000  0.6130400000000 1.0
C      1  0.4748470000000  0.5067140000000  0.6124180000000 1.0
C      1  0.4877080000000  0.4789170000000  0.6121360000000 1.0
C      1  0.5179270000000  0.4822790000000  0.6144510000000 1.0
C      1  0.5243210000000  0.5120500000000  0.6157550000000 1.0
C      1  0.5372790000000  0.4035890000000  0.5104770000000 1.0
C      1  0.6067470000000  0.5055810000000  0.5108650000000 1.0
C      1  0.5274570000000  0.6044590000000  0.5078470000000 1.0
C      1  0.4084490000000  0.5594590000000  0.5063570000000 1.0
C      1  0.4157020000000  0.4298510000000  0.5078600000000 1.0
C      1  0.5798940000000  0.5450260000000  0.4364130000000 1.0
C      1  0.4834120000000  0.5874480000000  0.4285420000000 1.0
C      1  0.4106990000000  0.5116010000000  0.4323340000000 1.0
C      1  0.4596060000000  0.4224810000000  0.4195980000000 1.0
C      1  0.5572470000000  0.4421550000000  0.4273630000000 1.0
C      1  0.5969380000000  0.5310910000000  0.4560730000000 1.0
C      1  0.4993050000000  0.6035760000000  0.4462610000000 1.0
C      1  0.4071060000000  0.5344130000000  0.4487840000000 1.0
C      1  0.4387740000000  0.4213610000000  0.4396300000000 1.0
C      1  0.5481710000000  0.4209930000000  0.4447850000000 1.0
C      1  0.4080160000000  0.5469950000000  0.5488290000000 1.0
C      1  0.4283690000000  0.4267260000000  0.5503280000000 1.0
C      1  0.5437850000000  0.4068850000000  0.5582170000000 1.0
C      1  0.6041380000000  0.5117250000000  0.5582620000000 1.0
C      1  0.5143600000000  0.6022540000000  0.5501480000000 1.0
C      1  0.4734940000000  0.4564200000000  0.4804310000000 1.0
C      1  0.5358500000000  0.4619070000000  0.4801700000000 1.0
C      1  0.5483580000000  0.5220250000000  0.4835810000000 1.0
C      1  0.4910390000000  0.5489540000000  0.4755440000000 1.0
C      1  0.4481370000000  0.5074310000000  0.4766820000000 1.0
C      1  0.5957380000000  0.5466640000000  0.4825200000000 1.0
C      1  0.4873890000000  0.6011970000000  0.4729770000000 1.0
C      1  0.3987730000000  0.5184080000000  0.4818920000000 1.0
C      1  0.4485780000000  0.4138230000000  0.4660640000000 1.0
C      1  0.5678200000000  0.4227070000000  0.4780070000000 1.0
C      1  0.4458960000000  0.5351190000000  0.5774600000000 1.0
C      1  0.4530600000000  0.4602330000000  0.5772850000000 1.0
C      1  0.5266730000000  0.4432780000000  0.5827640000000 1.0
C      1  0.5660910000000  0.5053260000000  0.5840190000000 1.0
C      1  0.5151520000000  0.5640920000000  0.5815200000000 1.0
C      1  0.4004600000000  0.4427200000000  0.5292310000000 1.0
C      1  0.5279110000000  0.3980350000000  0.5373180000000 1.0
C      1  0.6060740000000  0.4935740000000  0.5373790000000 1.0
C      1  0.5470040000000  0.6039890000000  0.5299220000000 1.0
C      1  0.4162690000000  0.5779120000000  0.5273180000000 1.0
C      1  0.4818750000000  0.4011210000000  0.5475370000000 1.0
C      1  0.5897650000000  0.4480310000000  0.5483180000000 1.0
C      1  0.5760390000000  0.5680080000000  0.5456530000000 1.0
C      1  0.4587590000000  0.5914430000000  0.5416340000000 1.0
C      1  0.4012760000000  0.4878450000000  0.5439860000000 1.0
C      1  0.5559090000000  0.4830130000000  0.5541770000000 1.0
C      1  0.5343700000000  0.5442120000000  0.5553930000000 1.0
C      1  0.4653390000000  0.5439670000000  0.5530320000000 1.0
C      1  0.4496760000000  0.4813560000000  0.5534280000000 1.0
C      1  0.5039130000000  0.4444820000000  0.5521330000000 1.0
C      1  0.4759880000000  0.4037180000000  0.4636680000000 1.0
C      1  0.5851290000000  0.4460260000000  0.4705780000000 1.0
C      1  0.5756390000000  0.5681250000000  0.4780250000000 1.0
C      1  0.4594780000000  0.5921880000000  0.4710250000000 1.0
C      1  0.3982940000000  0.4902380000000  0.4755400000000 1.0
C      1  0.5350920000000  0.4603580000000  0.4174400000000 1.0
C      1  0.5606130000000  0.5249190000000  0.4275660000000 1.0
C      1  0.4981760000000  0.5634910000000  0.4197020000000 1.0
C      1  0.4362690000000  0.5172360000000  0.4197460000000 1.0
C      1  0.4678010000000  0.4520550000000  0.4173870000000 1.0
C      1  0.3976970000000  0.4705630000000  0.5227200000000 1.0
C      1  0.5033250000000  0.3862880000000  0.5419600000000 1.0
C      1  0.6083080000000  0.4662950000000  0.5419320000000 1.0
C      1  0.5658160000000  0.5831350000000  0.5244540000000 1.0
C      1  0.4417280000000  0.5888550000000  0.5199570000000 1.0
C      1  0.5240570000000  0.5600310000000  0.4333640000000 1.0
C      1  0.4510610000000  0.5424950000000  0.4224630000000 1.0
C      1  0.4439460000000  0.4686590000000  0.4253340000000 1.0
C      1  0.5074130000000  0.4340310000000  0.4386360000000 1.0
C      1  0.5636010000000  0.4972710000000  0.4368450000000 1.0
C      1  0.4822680000000  0.5128560000000  0.5219330000000 1.0
C      1  0.4820640000000  0.4847410000000  0.5223680000000 1.0
C      1  0.5083630000000  0.4747680000000  0.5189100000000 1.0
C      1  0.5256030000000  0.4970140000000  0.5222260000000 1.0
C      1  0.5093710000000  0.5198220000000  0.5246590000000 1.0
C      1  0.5955710000000  0.4920710000000  0.4873700000000 1.0
C      1  0.5310970000000  0.5822690000000  0.4897500000000 1.0
C      1  0.4292930000000  0.5565890000000  0.4868390000000 1.0
C      1  0.4227940000000  0.4496890000000  0.4877950000000 1.0
C      1  0.5216970000000  0.4082450000000  0.4858280000000 1.0
C      1  0.5436700000000  0.5210110000000  0.5945250000000 1.0
C      1  0.4944600000000  0.5448980000000  0.5887410000000 1.0
C      1  0.4574210000000  0.5089580000000  0.5877480000000 1.0
C      1  0.4817720000000  0.4628270000000  0.5870790000000 1.0
C      1  0.5323000000000  0.4705880000000  0.5910780000000 1.0
C      1  0.5100790000000  0.4743580000000  0.3931420000000 1.0
C      1  0.5126230000000  0.5038160000000  0.3973460000000 1.0
C      1  0.4867250000000  0.5183170000000  0.3970210000000 1.0
C      1  0.4690800000000  0.4950920000000  0.3992610000000 1.0
C      1  0.4810380000000  0.4681080000000  0.3932940000000 1.0
C      1  0.4386710000000  0.4211020000000  0.5233400000000 1.0
C      1  0.5610250000000  0.4202220000000  0.5080450000000 1.0
C      1  0.5944790000000  0.5319540000000  0.5100960000000 1.0
C      1  0.5037470000000  0.5988480000000  0.5229500000000 1.0
C      1  0.4070220000000  0.5349420000000  0.5220150000000 1.0
C      1  0.4869670000000  0.4379250000000  0.5011370000000 1.0
C      1  0.5558570000000  0.4688280000000  0.5028450000000 1.0
C      1  0.5466090000000  0.5414340000000  0.5068930000000 1.0
C      1  0.4747850000000  0.5556720000000  0.5016450000000 1.0
C      1  0.4384150000000  0.4921540000000  0.5025460000000 1.0
C      1  0.5370940000000  0.4309860000000  0.4714100000000 1.0
C      1  0.5775110000000  0.5131710000000  0.4736660000000 1.0
C      1  0.5080780000000  0.5749700000000  0.4704470000000 1.0
C      1  0.4257920000000  0.5302190000000  0.4730170000000 1.0
C      1  0.4463590000000  0.4446340000000  0.4697050000000 1.0
C      1  0.5673710000000  0.5272850000000  0.5236190000000 1.0
C      1  0.4955890000000  0.5685510000000  0.5223380000000 1.0
C      1  0.4323960000000  0.5161860000000  0.5220820000000 1.0
C      1  0.4639590000000  0.4387940000000  0.5225740000000 1.0
C      1  0.5489170000000  0.4452700000000  0.5211850000000 1.0
C      1  0.4515820000000  0.4330170000000  0.5670260000000 1.0
C      1  0.5484450000000  0.4322570000000  0.5683230000000 1.0
C      1  0.5817930000000  0.5238610000000  0.5692470000000 1.0
C      1  0.5000170000000  0.5835220000000  0.5669930000000 1.0
C      1  0.4202620000000  0.5271370000000  0.5661750000000 1.0
C      1  0.4985860000000  0.4740740000000  0.5621460000000 1.0
C      1  0.5274480000000  0.4874970000000  0.5668660000000 1.0
C      1  0.5250970000000  0.5186090000000  0.5715920000000 1.0
C      1  0.4892120000000  0.5279160000000  0.5630330000000 1.0
C      1  0.4742320000000  0.4996180000000  0.5635920000000 1.0
C      1  0.4604480000000  0.5321650000000  0.5244340000000 1.0
C      1  0.4569430000000  0.4709810000000  0.5244050000000 1.0
C      1  0.5148860000000  0.4466430000000  0.5226730000000 1.0
C      1  0.5546290000000  0.4952290000000  0.5253980000000 1.0
C      1  0.5212120000000  0.5456060000000  0.5270040000000 1.0
C      1  0.5657240000000  0.5416300000000  0.5504240000000 1.0
C      1  0.4785590000000  0.5720750000000  0.5484840000000 1.0
C      1  0.4254160000000  0.5021500000000  0.5489080000000 1.0
C      1  0.4763470000000  0.4290060000000  0.5493300000000 1.0
C      1  0.5613700000000  0.4516000000000  0.5492320000000 1.0
C      1  0.4114410000000  0.4872020000000  0.4493270000000 1.0
C      1  0.4814430000000  0.4057100000000  0.4323410000000 1.0
C      1  0.5784460000000  0.4562520000000  0.4429010000000 1.0
C      1  0.5645760000000  0.5656440000000  0.4507840000000 1.0
C      1  0.4596160000000  0.5801710000000  0.4439500000000 1.0
C      1  0.4702440000000  0.5012000000000  0.4549140000000 1.0
C      1  0.4882780000000  0.4745630000000  0.4607010000000 1.0
C      1  0.5208340000000  0.4826680000000  0.4639000000000 1.0
C      1  0.5240870000000  0.5157570000000  0.4676170000000 1.0
C      1  0.4899840000000  0.5262830000000  0.4521930000000 1.0
C      1  0.5189700000000  0.5070890000000  0.4249300000000 1.0
END
