TITL C-3577091-527-62 -1.02146204141739e-06 125000 -1223.40978842857 0 0 198 (C1) n - 1
REM
REM in /home/bkarasulu/work/CARBON/AIRSS/Generating-Clusters/EDIP-Nigel-Params/with-SteepDescent/Higher-Symm/SD-CG/HFTN-CG
REM
REM
REM
REM
REM
REM ./C.cell (12c818d87b63d06a65506943cc24bca4)
REM
REM compiler GCC version 9.2.1 20190827 (Red Hat 9.2.1-1)
REM options -cpp -mtune=generic -march=x86-64 -g -O0 -fpre-include=/usr/include/finclude/math-vector-fortran.h
REM seed 2143594198 -762715779 -1798669395 -1185260350 -393878935 -820354928 -828666570 62721238 -871745789 454709350 -1326683343 -1999539828 -1684623224 -1957254480 -766309522 -1015947399 58730933 2029806779 -1851901361 -1902360403 -2125557388 877325850 153034237 -680947385 -1860480941 1851139098 101530134 -1825379839 1769759716 -1552101227 949657477 -2079018863 1527291939
REM
CELL 1.54180   50.00000   50.00000   50.00000   90.00000   90.00000   90.00000
LATT -1
SFAC C  
C      1  0.5123940000000  0.5907170000000  0.4450890000000 1.0
C      1  0.4450720000000  0.5073170000000  0.5949110000000 1.0
C      1  0.5938370000000  0.4665640000000  0.5250020000000 1.0
C      1  0.5188820000000  0.4126580000000  0.5519450000000 1.0
C      1  0.5049930000000  0.4002760000000  0.4549120000000 1.0
C      1  0.4868980000000  0.5954860000000  0.5434760000000 1.0
C      1  0.4514240000000  0.4911730000000  0.4011820000000 1.0
C      1  0.5389870000000  0.4826210000000  0.6045860000000 1.0
C      1  0.5379440000000  0.5129160000000  0.3920310000000 1.0
C      1  0.6027420000000  0.5490280000000  0.4840580000000 1.0
C      1  0.3977610000000  0.5413340000000  0.5263150000000 1.0
C      1  0.4079880000000  0.4471780000000  0.4875070000000 1.0
C      1  0.4874120000000  0.5938430000000  0.4631580000000 1.0
C      1  0.5469710000000  0.5102790000000  0.6099050000000 1.0
C      1  0.4067660000000  0.4658640000000  0.5116970000000 1.0
C      1  0.4942050000000  0.4074270000000  0.5383300000000 1.0
C      1  0.5311010000000  0.4026660000000  0.4435290000000 1.0
C      1  0.5259990000000  0.5985010000000  0.5460140000000 1.0
C      1  0.5324430000000  0.4846350000000  0.3923200000000 1.0
C      1  0.4632270000000  0.4835060000000  0.5952380000000 1.0
C      1  0.4612430000000  0.5208940000000  0.4032120000000 1.0
C      1  0.4018380000000  0.5500730000000  0.4707180000000 1.0
C      1  0.6053790000000  0.5431760000000  0.5129860000000 1.0
C      1  0.5875460000000  0.4597920000000  0.4726440000000 1.0
C      1  0.5488760000000  0.4898680000000  0.5169210000000 1.0
C      1  0.5125060000000  0.5279820000000  0.4707750000000 1.0
C      1  0.4842870000000  0.5058220000000  0.5459490000000 1.0
C      1  0.5336190000000  0.5235190000000  0.4934500000000 1.0
C      1  0.4690750000000  0.5202960000000  0.5252090000000 1.0
C      1  0.4583000000000  0.4544920000000  0.4840930000000 1.0
C      1  0.5095830000000  0.4588600000000  0.5137340000000 1.0
C      1  0.4824380000000  0.4529310000000  0.4667280000000 1.0
C      1  0.4742180000000  0.5497970000000  0.5227360000000 1.0
C      1  0.4780140000000  0.4779980000000  0.4441120000000 1.0
C      1  0.5216430000000  0.4858120000000  0.5257950000000 1.0
C      1  0.5221400000000  0.5034040000000  0.4550450000000 1.0
C      1  0.4604140000000  0.4728660000000  0.5066320000000 1.0
C      1  0.4830250000000  0.5186430000000  0.4786950000000 1.0
C      1  0.5129780000000  0.5104180000000  0.5403840000000 1.0
C      1  0.4627980000000  0.5063330000000  0.4994950000000 1.0
C      1  0.5231980000000  0.5309050000000  0.5201090000000 1.0
C      1  0.5471310000000  0.4881120000000  0.4876360000000 1.0
C      1  0.4811890000000  0.4583940000000  0.5259230000000 1.0
C      1  0.5104250000000  0.4570150000000  0.4821160000000 1.0
C      1  0.5125370000000  0.5572930000000  0.5182190000000 1.0
C      1  0.5189600000000  0.4847840000000  0.4789370000000 1.0
C      1  0.4840010000000  0.4749120000000  0.5510070000000 1.0
C      1  0.4710550000000  0.5059900000000  0.4555540000000 1.0
C      1  0.5438000000000  0.4473150000000  0.5277780000000 1.0
C      1  0.5034050000000  0.5480110000000  0.4288040000000 1.0
C      1  0.4294320000000  0.5121540000000  0.5486350000000 1.0
C      1  0.5657800000000  0.5793550000000  0.4931620000000 1.0
C      1  0.4492390000000  0.5619970000000  0.5113310000000 1.0
C      1  0.4379970000000  0.4115430000000  0.5025480000000 1.0
C      1  0.5117680000000  0.4615590000000  0.5672230000000 1.0
C      1  0.4883930000000  0.4393210000000  0.4252880000000 1.0
C      1  0.4991720000000  0.5496000000000  0.5643790000000 1.0
C      1  0.4291580000000  0.4971470000000  0.4435990000000 1.0
C      1  0.5629590000000  0.4842290000000  0.5599390000000 1.0
C      1  0.5563680000000  0.5119230000000  0.4388290000000 1.0
C      1  0.4429570000000  0.4172480000000  0.5320430000000 1.0
C      1  0.4772620000000  0.5512120000000  0.4416240000000 1.0
C      1  0.5651770000000  0.5136570000000  0.5571730000000 1.0
C      1  0.4503120000000  0.5632450000000  0.4814470000000 1.0
C      1  0.5662120000000  0.5775440000000  0.5236350000000 1.0
C      1  0.5373350000000  0.4428460000000  0.4701050000000 1.0
C      1  0.4649520000000  0.4327520000000  0.5703780000000 1.0
C      1  0.5174250000000  0.4454400000000  0.4213750000000 1.0
C      1  0.5286480000000  0.5558780000000  0.5660090000000 1.0
C      1  0.5552950000000  0.4798520000000  0.4370560000000 1.0
C      1  0.4328480000000  0.4813720000000  0.5482790000000 1.0
C      1  0.4331880000000  0.5265300000000  0.4439800000000 1.0
C      1  0.5129610000000  0.4774320000000  0.3733780000000 1.0
C      1  0.3860440000000  0.5266810000000  0.4809780000000 1.0
C      1  0.4932270000000  0.3844830000000  0.5205680000000 1.0
C      1  0.5263450000000  0.5291390000000  0.6146560000000 1.0
C      1  0.4881830000000  0.5170650000000  0.3925600000000 1.0
C      1  0.4908150000000  0.4933670000000  0.6052340000000 1.0
C      1  0.3907550000000  0.4907920000000  0.5069430000000 1.0
C      1  0.5966690000000  0.4833210000000  0.4898290000000 1.0
C      1  0.6144210000000  0.5176040000000  0.5205870000000 1.0
C      1  0.4962950000000  0.6133050000000  0.4845980000000 1.0
C      1  0.5201520000000  0.6130820000000  0.5214180000000 1.0
C      1  0.5234500000000  0.3688250000000  0.4898900000000 1.0
C      1  0.4929890000000  0.4956740000000  0.3754000000000 1.0
C      1  0.5840750000000  0.5092370000000  0.4777970000000 1.0
C      1  0.5173550000000  0.3701660000000  0.5166750000000 1.0
C      1  0.5037170000000  0.5193160000000  0.5965280000000 1.0
C      1  0.5076340000000  0.5195020000000  0.4140990000000 1.0
C      1  0.5111810000000  0.4734400000000  0.6126140000000 1.0
C      1  0.6124590000000  0.4900080000000  0.5155010000000 1.0
C      1  0.4054520000000  0.5031560000000  0.4848010000000 1.0
C      1  0.3782130000000  0.5270020000000  0.5101580000000 1.0
C      1  0.5218440000000  0.5966550000000  0.4926900000000 1.0
C      1  0.4914350000000  0.6201390000000  0.5143880000000 1.0
C      1  0.5019090000000  0.3813390000000  0.4765110000000 1.0
C      1  0.4811270000000  0.5648910000000  0.5475940000000 1.0
C      1  0.5340320000000  0.4824690000000  0.5749460000000 1.0
C      1  0.5742650000000  0.5556190000000  0.4776120000000 1.0
C      1  0.4826680000000  0.4214090000000  0.4504420000000 1.0
C      1  0.5259170000000  0.4406990000000  0.5507230000000 1.0
C      1  0.5194640000000  0.5539780000000  0.4548080000000 1.0
C      1  0.5510490000000  0.5266010000000  0.4131720000000 1.0
C      1  0.4530270000000  0.5169560000000  0.5665490000000 1.0
C      1  0.4483350000000  0.4795070000000  0.4285070000000 1.0
C      1  0.5634470000000  0.4709490000000  0.5323370000000 1.0
C      1  0.4351750000000  0.4343690000000  0.4831470000000 1.0
C      1  0.4263740000000  0.5322990000000  0.5220650000000 1.0
C      1  0.5341070000000  0.5703890000000  0.5378500000000 1.0
C      1  0.4588130000000  0.4696360000000  0.5660890000000 1.0
C      1  0.4304490000000  0.5401310000000  0.4721650000000 1.0
C      1  0.5338310000000  0.4314100000000  0.4422540000000 1.0
C      1  0.4725030000000  0.4288190000000  0.5386440000000 1.0
C      1  0.4793190000000  0.5620960000000  0.4704540000000 1.0
C      1  0.4621350000000  0.5268020000000  0.4352700000000 1.0
C      1  0.5459900000000  0.5278390000000  0.5751180000000 1.0
C      1  0.5276580000000  0.4748930000000  0.4202110000000 1.0
C      1  0.4343650000000  0.4737690000000  0.5200500000000 1.0
C      1  0.5576070000000  0.4662130000000  0.4669660000000 1.0
C      1  0.5874620000000  0.5569900000000  0.5320520000000 1.0
C      1  0.4073820000000  0.4579020000000  0.4593470000000 1.0
C      1  0.4563170000000  0.4059520000000  0.4571140000000 1.0
C      1  0.4550120000000  0.4541660000000  0.3943980000000 1.0
C      1  0.3944990000000  0.5392440000000  0.5559150000000 1.0
C      1  0.6000850000000  0.5398280000000  0.4468220000000 1.0
C      1  0.6005640000000  0.4588540000000  0.5542430000000 1.0
C      1  0.4564530000000  0.6010700000000  0.5417070000000 1.0
C      1  0.5420270000000  0.5910730000000  0.4500940000000 1.0
C      1  0.5543880000000  0.4063530000000  0.5393650000000 1.0
C      1  0.4557240000000  0.5407570000000  0.5870280000000 1.0
C      1  0.5300260000000  0.5694550000000  0.3963240000000 1.0
C      1  0.5267950000000  0.4289450000000  0.5983590000000 1.0
C      1  0.5945420000000  0.4604700000000  0.4431960000000 1.0
C      1  0.5625030000000  0.4038870000000  0.4659300000000 1.0
C      1  0.5460840000000  0.4277320000000  0.3919740000000 1.0
C      1  0.5905940000000  0.5494410000000  0.5605430000000 1.0
C      1  0.4001320000000  0.5565200000000  0.4412050000000 1.0
C      1  0.3998580000000  0.4530640000000  0.5386950000000 1.0
C      1  0.5543020000000  0.6060800000000  0.5553980000000 1.0
C      1  0.4588120000000  0.6035200000000  0.4562550000000 1.0
C      1  0.4443310000000  0.4087720000000  0.5754980000000 1.0
C      1  0.5401900000000  0.5552780000000  0.6093760000000 1.0
C      1  0.4560450000000  0.5548870000000  0.3997690000000 1.0
C      1  0.4556190000000  0.4564880000000  0.6080100000000 1.0
C      1  0.4308060000000  0.4168980000000  0.4496000000000 1.0
C      1  0.4320990000000  0.4482390000000  0.4124160000000 1.0
C      1  0.4265270000000  0.4435070000000  0.4407360000000 1.0
C      1  0.4460760000000  0.5863500000000  0.5635820000000 1.0
C      1  0.5576400000000  0.5680620000000  0.4386690000000 1.0
C      1  0.5668540000000  0.4162530000000  0.5643030000000 1.0
C      1  0.4370050000000  0.5635450000000  0.5769880000000 1.0
C      1  0.5470990000000  0.5555380000000  0.4142930000000 1.0
C      1  0.5493070000000  0.4190870000000  0.5864580000000 1.0
C      1  0.4109480000000  0.5567730000000  0.5702420000000 1.0
C      1  0.5859430000000  0.5644470000000  0.4420420000000 1.0
C      1  0.5880050000000  0.4347080000000  0.5613940000000 1.0
C      1  0.5741250000000  0.4133600000000  0.4408710000000 1.0
C      1  0.5705850000000  0.4284090000000  0.4052740000000 1.0
C      1  0.5755360000000  0.4408580000000  0.4311680000000 1.0
C      1  0.5648160000000  0.5898440000000  0.5758430000000 1.0
C      1  0.4501580000000  0.5967600000000  0.4293300000000 1.0
C      1  0.4221060000000  0.4285640000000  0.5778210000000 1.0
C      1  0.5679890000000  0.5514590000000  0.6050480000000 1.0
C      1  0.4420970000000  0.5697480000000  0.4220470000000 1.0
C      1  0.4308470000000  0.4470550000000  0.5976190000000 1.0
C      1  0.5725010000000  0.5629270000000  0.5797060000000 1.0
C      1  0.4157610000000  0.5794120000000  0.4324280000000 1.0
C      1  0.4215920000000  0.4348640000000  0.5480040000000 1.0
C      1  0.4046300000000  0.4743720000000  0.5585570000000 1.0
C      1  0.5491350000000  0.4202310000000  0.4862730000000 1.0
C      1  0.4806830000000  0.5672370000000  0.3929720000000 1.0
C      1  0.4129090000000  0.5362150000000  0.4255110000000 1.0
C      1  0.5924570000000  0.5194640000000  0.5641910000000 1.0
C      1  0.5937680000000  0.4880200000000  0.4338320000000 1.0
C      1  0.5722590000000  0.6042840000000  0.5338030000000 1.0
C      1  0.4418100000000  0.5917070000000  0.4777290000000 1.0
C      1  0.4416950000000  0.3941720000000  0.5506100000000 1.0
C      1  0.4779100000000  0.4388320000000  0.5973800000000 1.0
C      1  0.5189330000000  0.4337430000000  0.3941960000000 1.0
C      1  0.5286640000000  0.5727520000000  0.5899180000000 1.0
C      1  0.5912890000000  0.4812000000000  0.5707810000000 1.0
C      1  0.4562470000000  0.3957960000000  0.4854410000000 1.0
C      1  0.5047410000000  0.5683640000000  0.4076450000000 1.0
C      1  0.5856150000000  0.5131020000000  0.4485600000000 1.0
C      1  0.4031990000000  0.5125790000000  0.5628200000000 1.0
C      1  0.4092120000000  0.4867380000000  0.4602590000000 1.0
C      1  0.4459780000000  0.5913480000000  0.5158700000000 1.0
C      1  0.5478750000000  0.5979840000000  0.4785570000000 1.0
C      1  0.5562860000000  0.4233620000000  0.5150720000000 1.0
C      1  0.5062090000000  0.4492910000000  0.5951820000000 1.0
C      1  0.4801100000000  0.4392870000000  0.3978570000000 1.0
C      1  0.4858900000000  0.5428340000000  0.5890420000000 1.0
C      1  0.4829650000000  0.3914610000000  0.4948230000000 1.0
C      1  0.5119180000000  0.5679760000000  0.4899050000000 1.0
C      1  0.5220480000000  0.5101140000000  0.5705050000000 1.0
C      1  0.5065770000000  0.4939300000000  0.4318650000000 1.0
C      1  0.5632480000000  0.5293650000000  0.4881080000000 1.0
C      1  0.4317920000000  0.5181190000000  0.4944380000000 1.0
END
