TITL C-3577090-796-357 -1.09128370101302e-06 125000 -409.814006708652 0 0 68 (C1) n - 1
REM
REM in /home/bkarasulu/work/CARBON/AIRSS/Generating-Clusters/EDIP-Nigel-Params/with-SteepDescent/Higher-Symm/SD-CG/HFTN-CG
REM
REM
REM
REM
REM
REM ./C.cell (12c818d87b63d06a65506943cc24bca4)
REM
REM compiler GCC version 9.2.1 20190827 (Red Hat 9.2.1-1)
REM options -cpp -mtune=generic -march=x86-64 -g -O0 -fpre-include=/usr/include/finclude/math-vector-fortran.h
REM seed -327109397 -147747260 -1300933640 470208887 1076535909 -2023046506 47034400 -1673569541 68441846 1164263265 1683677251 -938570329 -211474132 1888281221 -337566752 1801130839 1710107210 -224619185 1336727434 2079368150 573637296 -1838688771 -722311597 250073421 963400351 2000392883 1639111965 1679592067 347214511 -2039268241 -1572609707 -1964685307 492358563
REM
CELL 1.54180   50.00000   50.00000   50.00000   90.00000   90.00000   90.00000
LATT -1
SFAC C  
C      1  0.4715980000000  0.5755290000000  0.5207650000000 1.0
C      1  0.5417840000000  0.5143890000000  0.4684390000000 1.0
C      1  0.5061430000000  0.4747090000000  0.5452550000000 1.0
C      1  0.5223510000000  0.4199450000000  0.5146150000000 1.0
C      1  0.4698320000000  0.4424870000000  0.4982630000000 1.0
C      1  0.5206150000000  0.5665680000000  0.4892570000000 1.0
C      1  0.4491160000000  0.4853830000000  0.4827470000000 1.0
C      1  0.5612670000000  0.4850420000000  0.5170260000000 1.0
C      1  0.4561210000000  0.5161150000000  0.5327770000000 1.0
C      1  0.4764130000000  0.5212110000000  0.5576960000000 1.0
C      1  0.5259890000000  0.5231250000000  0.4336840000000 1.0
C      1  0.4965800000000  0.4745290000000  0.4319450000000 1.0
C      1  0.4703430000000  0.5565900000000  0.4980880000000 1.0
C      1  0.5599470000000  0.5138420000000  0.5173490000000 1.0
C      1  0.5260920000000  0.4757440000000  0.4335520000000 1.0
C      1  0.5200900000000  0.4325630000000  0.4887090000000 1.0
C      1  0.4716730000000  0.4242060000000  0.5215860000000 1.0
C      1  0.5223570000000  0.5796700000000  0.5149990000000 1.0
C      1  0.4557580000000  0.4826650000000  0.5320060000000 1.0
C      1  0.5420380000000  0.4838220000000  0.4684550000000 1.0
C      1  0.4492060000000  0.5137940000000  0.4831440000000 1.0
C      1  0.4964750000000  0.5242090000000  0.4316610000000 1.0
C      1  0.5045630000000  0.5244280000000  0.5484600000000 1.0
C      1  0.4775380000000  0.4763600000000  0.5534700000000 1.0
C      1  0.4578470000000  0.5683790000000  0.4738550000000 1.0
C      1  0.5663640000000  0.4694790000000  0.4585060000000 1.0
C      1  0.4655890000000  0.4587160000000  0.5734390000000 1.0
C      1  0.5405930000000  0.4325660000000  0.4696210000000 1.0
C      1  0.4530240000000  0.4277380000000  0.5418090000000 1.0
C      1  0.5436390000000  0.5731090000000  0.5318480000000 1.0
C      1  0.4435850000000  0.5276860000000  0.4598150000000 1.0
C      1  0.5629600000000  0.5303210000000  0.5396440000000 1.0
C      1  0.4318860000000  0.4699120000000  0.5432350000000 1.0
C      1  0.5225840000000  0.5425350000000  0.5592570000000 1.0
C      1  0.4808310000000  0.5459770000000  0.4389790000000 1.0
C      1  0.5390250000000  0.4510900000000  0.4256960000000 1.0
C      1  0.4521900000000  0.5724610000000  0.5402710000000 1.0
C      1  0.5650170000000  0.4684660000000  0.5391340000000 1.0
C      1  0.4812050000000  0.4528330000000  0.4401170000000 1.0
C      1  0.5442730000000  0.4262760000000  0.5307650000000 1.0
C      1  0.4570620000000  0.4304990000000  0.4742840000000 1.0
C      1  0.5412290000000  0.5664320000000  0.4702740000000 1.0
C      1  0.4322520000000  0.5296010000000  0.5432090000000 1.0
C      1  0.5661440000000  0.5289140000000  0.4592700000000 1.0
C      1  0.4433510000000  0.4715250000000  0.4593870000000 1.0
C      1  0.5390330000000  0.5478240000000  0.4262930000000 1.0
C      1  0.4655910000000  0.5436810000000  0.5730070000000 1.0
C      1  0.5240590000000  0.4575450000000  0.5576580000000 1.0
C      1  0.4946020000000  0.5584870000000  0.4812100000000 1.0
C      1  0.5514850000000  0.4718760000000  0.4939900000000 1.0
C      1  0.4745790000000  0.4963460000000  0.5741400000000 1.0
C      1  0.4938980000000  0.4405120000000  0.4809570000000 1.0
C      1  0.4977040000000  0.4166140000000  0.5271450000000 1.0
C      1  0.4974470000000  0.5832370000000  0.5269270000000 1.0
C      1  0.4619310000000  0.5277490000000  0.5049050000000 1.0
C      1  0.5498660000000  0.5266180000000  0.4942200000000 1.0
C      1  0.4611330000000  0.4711600000000  0.5044620000000 1.0
C      1  0.5148580000000  0.5003270000000  0.5397500000000 1.0
C      1  0.4846960000000  0.4993370000000  0.4306640000000 1.0
C      1  0.5356470000000  0.4994950000000  0.4198970000000 1.0
C      1  0.5482700000000  0.4478710000000  0.5480620000000 1.0
C      1  0.4560280000000  0.5510060000000  0.4510710000000 1.0
C      1  0.4440860000000  0.5516510000000  0.5566350000000 1.0
C      1  0.5545130000000  0.5533150000000  0.4492320000000 1.0
C      1  0.5543940000000  0.4451760000000  0.4486060000000 1.0
C      1  0.4433370000000  0.4483340000000  0.5578270000000 1.0
C      1  0.4559540000000  0.4479310000000  0.4513920000000 1.0
C      1  0.5469080000000  0.5512760000000  0.5489570000000 1.0
END
