TITL C-3578208-4450-84 1.00699651335079e-07 125000 -252.003346376502 0 0 42 (C1) n - 1
REM
REM in /home/bkarasulu/work/CARBON/AIRSS/Generating-Clusters/EDIP-Nigel-Params/with-SteepDescent/Higher-Symm/SD-CG/HFTN-CG
REM
REM
REM
REM
REM
REM ./C.cell (12c818d87b63d06a65506943cc24bca4)
REM
REM compiler GCC version 9.2.1 20190827 (Red Hat 9.2.1-1)
REM options -cpp -mtune=generic -march=x86-64 -g -O0 -fpre-include=/usr/include/finclude/math-vector-fortran.h
REM seed -240951046 732599632 -1717789328 1404120834 -1704003747 -1804785019 -110711836 748417244 -829817032 -951313917 726218736 -357338849 587064953 1905219051 -1056799127 -20125538 -2076042506 -315886421 219870201 -604471639 -775592391 1813557745 -1216462582 803462082 -1737301809 -445934676 1714979227 -597654496 1872229096 944805897 -655690788 -1126009160 717830383
REM
CELL 1.54180   50.00000   50.00000   50.00000   90.00000   90.00000   90.00000
LATT -1
SFAC C  
C      1  0.4785230000000  0.4597060000000  0.5049830000000 1.0
C      1  0.4593980000000  0.5047340000000  0.4758460000000 1.0
C      1  0.5047790000000  0.4785010000000  0.4554640000000 1.0
C      1  0.5301590000000  0.4478550000000  0.4882340000000 1.0
C      1  0.5300170000000  0.5474120000000  0.5089830000000 1.0
C      1  0.4711730000000  0.5485350000000  0.4910490000000 1.0
C      1  0.5428580000000  0.5037590000000  0.5252400000000 1.0
C      1  0.5453360000000  0.4947860000000  0.4739660000000 1.0
C      1  0.4505310000000  0.4932190000000  0.5288960000000 1.0
C      1  0.4952050000000  0.4792760000000  0.5456800000000 1.0
C      1  0.4899170000000  0.5312010000000  0.4467090000000 1.0
C      1  0.5108540000000  0.5307270000000  0.5537300000000 1.0
C      1  0.5082170000000  0.4513120000000  0.4667890000000 1.0
C      1  0.4677500000000  0.5097960000000  0.4482480000000 1.0
C      1  0.4520120000000  0.4720610000000  0.5082860000000 1.0
C      1  0.4948490000000  0.4561190000000  0.5284160000000 1.0
C      1  0.5065300000000  0.5416580000000  0.5257280000000 1.0
C      1  0.4947330000000  0.5418040000000  0.4746780000000 1.0
C      1  0.5331680000000  0.5090500000000  0.5525700000000 1.0
C      1  0.4718490000000  0.4956380000000  0.5482480000000 1.0
C      1  0.5289080000000  0.4936720000000  0.4505090000000 1.0
C      1  0.5498480000000  0.4706600000000  0.4897530000000 1.0
C      1  0.4503460000000  0.5273540000000  0.4925960000000 1.0
C      1  0.5532160000000  0.5276660000000  0.5099860000000 1.0
C      1  0.5635160000000  0.5164260000000  0.4817290000000 1.0
C      1  0.5157980000000  0.4882020000000  0.5653170000000 1.0
C      1  0.4851810000000  0.5605790000000  0.5151370000000 1.0
C      1  0.4305930000000  0.5127690000000  0.5225770000000 1.0
C      1  0.4390360000000  0.4851520000000  0.4845460000000 1.0
C      1  0.5613220000000  0.4820950000000  0.5151810000000 1.0
C      1  0.4846620000000  0.4885540000000  0.4355400000000 1.0
C      1  0.4777620000000  0.5166150000000  0.5667300000000 1.0
C      1  0.5226620000000  0.5163280000000  0.4341380000000 1.0
C      1  0.5171100000000  0.5598030000000  0.4844640000000 1.0
C      1  0.5157090000000  0.4375940000000  0.5223910000000 1.0
C      1  0.4868060000000  0.4395230000000  0.4845630000000 1.0
C      1  0.4998450000000  0.5066840000000  0.5820040000000 1.0
C      1  0.5006990000000  0.5067100000000  0.4186080000000 1.0
C      1  0.5013670000000  0.5798650000000  0.4995400000000 1.0
C      1  0.5040990000000  0.4221180000000  0.5012000000000 1.0
C      1  0.5801370000000  0.5010330000000  0.5014350000000 1.0
C      1  0.4198480000000  0.5033080000000  0.4978360000000 1.0
END
