TITL C-3578200-9634-720 -1.42100739642847e-08 125000 -1084.92472589071 0 0 172 (C1) n - 1
REM
REM in /home/bkarasulu/work/CARBON/AIRSS/Generating-Clusters/EDIP-Nigel-Params/with-SteepDescent/Higher-Symm/SD-CG/HFTN-CG
REM
REM
REM
REM
REM
REM ./C.cell (12c818d87b63d06a65506943cc24bca4)
REM
REM compiler GCC version 9.2.1 20190827 (Red Hat 9.2.1-1)
REM options -cpp -mtune=generic -march=x86-64 -g -O0 -fpre-include=/usr/include/finclude/math-vector-fortran.h
REM seed 1610325472 -1671247705 -1762509801 -730152745 -1248150583 958330731 781155007 1570113599 615719404 1955739500 1710157085 1614596853 -990185824 -2040802214 564648807 -1324095180 1969016547 -1502693592 -498737831 -1150491354 1924158481 -1985393645 1657881441 -1849848167 -621728754 -962218413 1602401000 -509239041 -1513603785 -24420271 201853133 1730814298 -1509892513
REM
CELL 1.54180   50.00000   50.00000   50.00000   90.00000   90.00000   90.00000
LATT -1
SFAC C  
C      1  0.4754630000000  0.4064890000000  0.4598390000000 1.0
C      1  0.4746750000000  0.5076190000000  0.4025070000000 1.0
C      1  0.4705780000000  0.5984490000000  0.4762910000000 1.0
C      1  0.4801050000000  0.5502630000000  0.5846930000000 1.0
C      1  0.4764050000000  0.4360040000000  0.5770650000000 1.0
C      1  0.4901020000000  0.5842480000000  0.5515430000000 1.0
C      1  0.4866120000000  0.4801870000000  0.5962050000000 1.0
C      1  0.4857680000000  0.3990160000000  0.5092770000000 1.0
C      1  0.4857910000000  0.4603820000000  0.4114030000000 1.0
C      1  0.4822660000000  0.5757560000000  0.4327090000000 1.0
C      1  0.4976480000000  0.5136310000000  0.3842280000000 1.0
C      1  0.4964620000000  0.6106160000000  0.4795980000000 1.0
C      1  0.5046390000000  0.5544320000000  0.6018850000000 1.0
C      1  0.5005430000000  0.4213070000000  0.5857600000000 1.0
C      1  0.5019810000000  0.3952160000000  0.4504550000000 1.0
C      1  0.5229810000000  0.4601390000000  0.5092230000000 1.0
C      1  0.5238610000000  0.4825130000000  0.4711510000000 1.0
C      1  0.5252010000000  0.5303420000000  0.4639420000000 1.0
C      1  0.5222250000000  0.5348200000000  0.5113130000000 1.0
C      1  0.5200620000000  0.4966000000000  0.5338660000000 1.0
C      1  0.5142120000000  0.3946660000000  0.5015360000000 1.0
C      1  0.5135790000000  0.4661400000000  0.4039980000000 1.0
C      1  0.5099500000000  0.5816210000000  0.4387900000000 1.0
C      1  0.5182220000000  0.5831130000000  0.5590230000000 1.0
C      1  0.5149700000000  0.4718930000000  0.5967840000000 1.0
C      1  0.4997850000000  0.5403790000000  0.4506640000000 1.0
C      1  0.4976900000000  0.5551090000000  0.5191140000000 1.0
C      1  0.5023990000000  0.4981350000000  0.5573140000000 1.0
C      1  0.5010700000000  0.4397300000000  0.5158970000000 1.0
C      1  0.5037640000000  0.4680920000000  0.4513150000000 1.0
C      1  0.4496350000000  0.5161750000000  0.5684320000000 1.0
C      1  0.4456010000000  0.4404060000000  0.5309980000000 1.0
C      1  0.4452920000000  0.4482840000000  0.4534240000000 1.0
C      1  0.4439770000000  0.5284700000000  0.4342800000000 1.0
C      1  0.4338150000000  0.5854240000000  0.4969520000000 1.0
C      1  0.4801140000000  0.5214260000000  0.4904060000000 1.0
C      1  0.4674000000000  0.5175230000000  0.5170090000000 1.0
C      1  0.4749400000000  0.4891380000000  0.5227210000000 1.0
C      1  0.4834230000000  0.4768790000000  0.4981620000000 1.0
C      1  0.4822650000000  0.4964720000000  0.4780020000000 1.0
C      1  0.4515260000000  0.4426020000000  0.5010590000000 1.0
C      1  0.4518160000000  0.4772190000000  0.4451320000000 1.0
C      1  0.4504040000000  0.5422230000000  0.4611200000000 1.0
C      1  0.4479990000000  0.5637590000000  0.5361860000000 1.0
C      1  0.4545750000000  0.4868770000000  0.5664250000000 1.0
C      1  0.5651040000000  0.5058110000000  0.4436510000000 1.0
C      1  0.5814170000000  0.5658990000000  0.4873450000000 1.0
C      1  0.5922230000000  0.5306500000000  0.5640560000000 1.0
C      1  0.5870940000000  0.4524420000000  0.5473850000000 1.0
C      1  0.5748000000000  0.4501190000000  0.4683660000000 1.0
C      1  0.5084530000000  0.5254110000000  0.6088080000000 1.0
C      1  0.5036700000000  0.4055350000000  0.5595440000000 1.0
C      1  0.5066090000000  0.4150330000000  0.4282980000000 1.0
C      1  0.5012520000000  0.5422170000000  0.3953280000000 1.0
C      1  0.5031010000000  0.6085270000000  0.5088170000000 1.0
C      1  0.5962160000000  0.4922800000000  0.4838400000000 1.0
C      1  0.5968600000000  0.5193770000000  0.4964160000000 1.0
C      1  0.5936950000000  0.5113950000000  0.5243230000000 1.0
C      1  0.6077840000000  0.4866310000000  0.5284820000000 1.0
C      1  0.6000040000000  0.4719990000000  0.5052470000000 1.0
C      1  0.4111340000000  0.4737940000000  0.5324320000000 1.0
C      1  0.4067730000000  0.4555310000000  0.4839530000000 1.0
C      1  0.4077390000000  0.4975130000000  0.4521610000000 1.0
C      1  0.4089970000000  0.5409130000000  0.4818600000000 1.0
C      1  0.4158190000000  0.5252250000000  0.5311870000000 1.0
C      1  0.4926900000000  0.4408100000000  0.4663970000000 1.0
C      1  0.4883990000000  0.5129160000000  0.4313870000000 1.0
C      1  0.4887360000000  0.5683720000000  0.4911940000000 1.0
C      1  0.4905340000000  0.5321530000000  0.5602360000000 1.0
C      1  0.4884060000000  0.4490790000000  0.5498260000000 1.0
C      1  0.3841950000000  0.4753100000000  0.4906760000000 1.0
C      1  0.3854260000000  0.4991570000000  0.4732020000000 1.0
C      1  0.3865670000000  0.5231870000000  0.4905870000000 1.0
C      1  0.3887400000000  0.5150930000000  0.5191230000000 1.0
C      1  0.3857910000000  0.4848850000000  0.5194950000000 1.0
C      1  0.4401070000000  0.4791200000000  0.4176410000000 1.0
C      1  0.4381680000000  0.5691760000000  0.4563050000000 1.0
C      1  0.4451800000000  0.5759050000000  0.5624320000000 1.0
C      1  0.4410420000000  0.4679190000000  0.5858600000000 1.0
C      1  0.4409650000000  0.4163530000000  0.4915330000000 1.0
C      1  0.4613000000000  0.5274940000000  0.5931300000000 1.0
C      1  0.4557380000000  0.4172250000000  0.5433180000000 1.0
C      1  0.4603060000000  0.4256670000000  0.4412260000000 1.0
C      1  0.4519190000000  0.5438770000000  0.4116900000000 1.0
C      1  0.4555320000000  0.5841680000000  0.5156720000000 1.0
C      1  0.4342010000000  0.5230880000000  0.4818980000000 1.0
C      1  0.4374630000000  0.5142270000000  0.5121190000000 1.0
C      1  0.4316970000000  0.4851890000000  0.5145610000000 1.0
C      1  0.4327520000000  0.4703730000000  0.4898810000000 1.0
C      1  0.4338550000000  0.4931530000000  0.4670190000000 1.0
C      1  0.5523910000000  0.5017230000000  0.3966390000000 1.0
C      1  0.5523430000000  0.6004480000000  0.4707840000000 1.0
C      1  0.5566490000000  0.5563770000000  0.5847780000000 1.0
C      1  0.5543630000000  0.4394070000000  0.5815430000000 1.0
C      1  0.5570580000000  0.4042570000000  0.4656500000000 1.0
C      1  0.5789310000000  0.5139460000000  0.5828990000000 1.0
C      1  0.5765580000000  0.4257920000000  0.5401650000000 1.0
C      1  0.5749820000000  0.4416850000000  0.4400160000000 1.0
C      1  0.5704340000000  0.5337490000000  0.4291410000000 1.0
C      1  0.5739750000000  0.5812930000000  0.5113300000000 1.0
C      1  0.4151310000000  0.5640700000000  0.5013900000000 1.0
C      1  0.4213040000000  0.5149370000000  0.5593940000000 1.0
C      1  0.4159150000000  0.4434290000000  0.5297670000000 1.0
C      1  0.4146800000000  0.4495580000000  0.4541150000000 1.0
C      1  0.4141530000000  0.5243240000000  0.4374070000000 1.0
C      1  0.5730300000000  0.4607490000000  0.5720860000000 1.0
C      1  0.5697910000000  0.4245580000000  0.4834160000000 1.0
C      1  0.5677220000000  0.4888140000000  0.4188540000000 1.0
C      1  0.5706710000000  0.5778520000000  0.4630920000000 1.0
C      1  0.5739650000000  0.5523550000000  0.5609700000000 1.0
C      1  0.4813870000000  0.4480620000000  0.4941730000000 1.0
C      1  0.4810740000000  0.4888860000000  0.4494830000000 1.0
C      1  0.4794450000000  0.5446860000000  0.4729610000000 1.0
C      1  0.4754050000000  0.5414330000000  0.5346640000000 1.0
C      1  0.4796280000000  0.4791150000000  0.5498070000000 1.0
C      1  0.5278240000000  0.4188380000000  0.5469410000000 1.0
C      1  0.5294880000000  0.4315390000000  0.4385170000000 1.0
C      1  0.5260260000000  0.5385600000000  0.4126250000000 1.0
C      1  0.5277200000000  0.5904860000000  0.5098040000000 1.0
C      1  0.5298150000000  0.5182240000000  0.5883720000000 1.0
C      1  0.5692550000000  0.4208980000000  0.5122610000000 1.0
C      1  0.5693150000000  0.4611290000000  0.4209560000000 1.0
C      1  0.5696960000000  0.5594650000000  0.4413140000000 1.0
C      1  0.5710290000000  0.5671430000000  0.5366150000000 1.0
C      1  0.5779070000000  0.4858310000000  0.5836110000000 1.0
C      1  0.5346390000000  0.5055340000000  0.4510390000000 1.0
C      1  0.5366170000000  0.5452430000000  0.4863510000000 1.0
C      1  0.5420110000000  0.5349960000000  0.5359980000000 1.0
C      1  0.5322210000000  0.4706680000000  0.5345540000000 1.0
C      1  0.5397250000000  0.4569750000000  0.4838910000000 1.0
C      1  0.5262870000000  0.5635130000000  0.5804040000000 1.0
C      1  0.5233390000000  0.4449070000000  0.5861910000000 1.0
C      1  0.5237880000000  0.3992330000000  0.4727190000000 1.0
C      1  0.5210760000000  0.4944650000000  0.3969000000000 1.0
C      1  0.5193090000000  0.5961310000000  0.4633900000000 1.0
C      1  0.4711520000000  0.5757670000000  0.5719590000000 1.0
C      1  0.4669680000000  0.4575800000000  0.5960830000000 1.0
C      1  0.4650800000000  0.4002850000000  0.4873270000000 1.0
C      1  0.4648570000000  0.4793550000000  0.4020040000000 1.0
C      1  0.4613760000000  0.5865100000000  0.4514460000000 1.0
C      1  0.5272380000000  0.5605800000000  0.4320250000000 1.0
C      1  0.5290450000000  0.5720130000000  0.5343240000000 1.0
C      1  0.5252290000000  0.4909600000000  0.5775720000000 1.0
C      1  0.5256410000000  0.4169600000000  0.5165200000000 1.0
C      1  0.5260950000000  0.4604530000000  0.4297580000000 1.0
C      1  0.4827500000000  0.4333310000000  0.4239200000000 1.0
C      1  0.4786950000000  0.5527320000000  0.4138230000000 1.0
C      1  0.4814180000000  0.5957540000000  0.5253540000000 1.0
C      1  0.4825430000000  0.5090520000000  0.6055070000000 1.0
C      1  0.4812910000000  0.4068770000000  0.5380620000000 1.0
C      1  0.5227670000000  0.5372040000000  0.5631530000000 1.0
C      1  0.5196290000000  0.4488670000000  0.5552050000000 1.0
C      1  0.5227270000000  0.4319690000000  0.4691550000000 1.0
C      1  0.5183270000000  0.5096320000000  0.4244970000000 1.0
C      1  0.5203310000000  0.5732380000000  0.4853630000000 1.0
C      1  0.5635520000000  0.5072690000000  0.5248870000000 1.0
C      1  0.5607310000000  0.4772020000000  0.5332550000000 1.0
C      1  0.5733640000000  0.4588530000000  0.5110690000000 1.0
C      1  0.5686110000000  0.4880080000000  0.4736120000000 1.0
C      1  0.5748700000000  0.5375110000000  0.4878300000000 1.0
C      1  0.5542710000000  0.5309960000000  0.4037940000000 1.0
C      1  0.5541020000000  0.6016770000000  0.5012020000000 1.0
C      1  0.5573220000000  0.5284780000000  0.5958080000000 1.0
C      1  0.5555330000000  0.4183060000000  0.5600480000000 1.0
C      1  0.5569030000000  0.4184160000000  0.4389290000000 1.0
C      1  0.4207920000000  0.5539080000000  0.5279690000000 1.0
C      1  0.4167270000000  0.4848020000000  0.5607960000000 1.0
C      1  0.4082770000000  0.4325910000000  0.5031530000000 1.0
C      1  0.4073420000000  0.4720580000000  0.4361550000000 1.0
C      1  0.4062580000000  0.5482260000000  0.4530430000000 1.0
C      1  0.5179070000000  0.5033470000000  0.5030810000000 1.0
C      1  0.5520460000000  0.5056760000000  0.4955130000000 1.0
END
