TITL C-3577078-809-735 1.47226378450819e-07 125000 -577.459376517519 0 0 93 (C1) n - 1
REM
REM in /home/bkarasulu/work/CARBON/AIRSS/Generating-Clusters/EDIP-Nigel-Params/with-SteepDescent/Higher-Symm/SD-CG/HFTN-CG
REM
REM
REM
REM
REM
REM ./C.cell (12c818d87b63d06a65506943cc24bca4)
REM
REM compiler GCC version 9.2.1 20190827 (Red Hat 9.2.1-1)
REM options -cpp -mtune=generic -march=x86-64 -g -O0 -fpre-include=/usr/include/finclude/math-vector-fortran.h
REM seed 290973432 -1397490912 420932890 -275010191 -1763054507 -905514883 -960944396 850851332 142649570 271373080 1798319031 -1972497215 -635105257 145432525 -490233492 -1255148493 -1339280451 -796175353 442104764 1039124415 1082940488 767245990 -1663027645 -510924291 1036229236 1710711528 -1303035791 1915380900 695932977 -79215875 1165981372 -1703521516 -1942875241
REM
CELL 1.54180   50.00000   50.00000   50.00000   90.00000   90.00000   90.00000
LATT -1
SFAC C  
C      1  0.4604800000000  0.4263710000000  0.4771340000000 1.0
C      1  0.4589910000000  0.5596220000000  0.4455410000000 1.0
C      1  0.4596120000000  0.5178230000000  0.5753050000000 1.0
C      1  0.5486080000000  0.5400070000000  0.5588730000000 1.0
C      1  0.5524940000000  0.4245840000000  0.4983070000000 1.0
C      1  0.5490360000000  0.5304760000000  0.4384700000000 1.0
C      1  0.4748950000000  0.5210100000000  0.5285910000000 1.0
C      1  0.4638770000000  0.4677740000000  0.5027160000000 1.0
C      1  0.4692730000000  0.5174560000000  0.4636790000000 1.0
C      1  0.4864130000000  0.5128620000000  0.4879040000000 1.0
C      1  0.4931150000000  0.4940320000000  0.5271380000000 1.0
C      1  0.4884710000000  0.4849760000000  0.4995860000000 1.0
C      1  0.5227970000000  0.5381020000000  0.4274480000000 1.0
C      1  0.5212130000000  0.5456090000000  0.5679600000000 1.0
C      1  0.5253870000000  0.4125390000000  0.4987420000000 1.0
C      1  0.5848420000000  0.4648880000000  0.5130200000000 1.0
C      1  0.5867070000000  0.5108320000000  0.4545890000000 1.0
C      1  0.5738810000000  0.5231680000000  0.5228380000000 1.0
C      1  0.5184400000000  0.4999740000000  0.4613280000000 1.0
C      1  0.5240260000000  0.5253780000000  0.5195150000000 1.0
C      1  0.5256630000000  0.4560300000000  0.5236500000000 1.0
C      1  0.4499900000000  0.4593580000000  0.5280110000000 1.0
C      1  0.4502530000000  0.4960430000000  0.4504260000000 1.0
C      1  0.4521660000000  0.5446940000000  0.5194710000000 1.0
C      1  0.4214470000000  0.5295850000000  0.4690970000000 1.0
C      1  0.4233020000000  0.5116760000000  0.5380640000000 1.0
C      1  0.4193700000000  0.4602060000000  0.4894690000000 1.0
C      1  0.4712860000000  0.4325040000000  0.5443220000000 1.0
C      1  0.4630340000000  0.4968120000000  0.4223710000000 1.0
C      1  0.4668720000000  0.5765600000000  0.5342670000000 1.0
C      1  0.5782310000000  0.4752800000000  0.5396950000000 1.0
C      1  0.5854560000000  0.4864050000000  0.4701670000000 1.0
C      1  0.5756940000000  0.5128170000000  0.4968750000000 1.0
C      1  0.4099870000000  0.4828660000000  0.4752010000000 1.0
C      1  0.4115240000000  0.5312310000000  0.4954050000000 1.0
C      1  0.4108520000000  0.4884680000000  0.5280670000000 1.0
C      1  0.5081460000000  0.4353480000000  0.5082170000000 1.0
C      1  0.5011210000000  0.5219860000000  0.4414760000000 1.0
C      1  0.5014570000000  0.5439670000000  0.5452830000000 1.0
C      1  0.5631390000000  0.4569030000000  0.5563270000000 1.0
C      1  0.5544270000000  0.4798850000000  0.4336160000000 1.0
C      1  0.5528740000000  0.5661110000000  0.5173550000000 1.0
C      1  0.5119050000000  0.5880430000000  0.5138690000000 1.0
C      1  0.5168030000000  0.4448850000000  0.5589410000000 1.0
C      1  0.5102220000000  0.4824980000000  0.4279260000000 1.0
C      1  0.4799340000000  0.4288150000000  0.5169210000000 1.0
C      1  0.4785300000000  0.5219100000000  0.4206960000000 1.0
C      1  0.4771960000000  0.5577110000000  0.5532420000000 1.0
C      1  0.4481610000000  0.4545230000000  0.4815170000000 1.0
C      1  0.4495990000000  0.5407450000000  0.4673740000000 1.0
C      1  0.4513560000000  0.5075410000000  0.5479920000000 1.0
C      1  0.5101340000000  0.5697270000000  0.4554340000000 1.0
C      1  0.5105110000000  0.5056350000000  0.5835570000000 1.0
C      1  0.5108170000000  0.4253530000000  0.4591550000000 1.0
C      1  0.5536400000000  0.4442120000000  0.5208100000000 1.0
C      1  0.5491350000000  0.5025750000000  0.4516320000000 1.0
C      1  0.5502890000000  0.5399340000000  0.5286750000000 1.0
C      1  0.5213080000000  0.4982550000000  0.5325100000000 1.0
C      1  0.5140620000000  0.4690620000000  0.4894770000000 1.0
C      1  0.5143320000000  0.5270850000000  0.4895260000000 1.0
C      1  0.4816790000000  0.5742710000000  0.4607420000000 1.0
C      1  0.4823650000000  0.4976320000000  0.5816190000000 1.0
C      1  0.4821380000000  0.4314130000000  0.4560720000000 1.0
C      1  0.5176890000000  0.4021540000000  0.4736780000000 1.0
C      1  0.5180870000000  0.5659600000000  0.4286560000000 1.0
C      1  0.5147760000000  0.5321510000000  0.5920150000000 1.0
C      1  0.4841190000000  0.5857750000000  0.5119380000000 1.0
C      1  0.4883690000000  0.4472480000000  0.5632330000000 1.0
C      1  0.4834270000000  0.4739350000000  0.4237900000000 1.0
C      1  0.4538600000000  0.4680030000000  0.4567080000000 1.0
C      1  0.4545510000000  0.5552380000000  0.4922680000000 1.0
C      1  0.4545020000000  0.4782540000000  0.5503740000000 1.0
C      1  0.5369630000000  0.4646930000000  0.5657360000000 1.0
C      1  0.5309150000000  0.4652240000000  0.4374310000000 1.0
C      1  0.5324860000000  0.5743060000000  0.5007430000000 1.0
C      1  0.4239540000000  0.5343750000000  0.5204940000000 1.0
C      1  0.4205090000000  0.4634250000000  0.5191920000000 1.0
C      1  0.4215180000000  0.5024580000000  0.4582440000000 1.0
C      1  0.4639560000000  0.5455730000000  0.5747490000000 1.0
C      1  0.4661780000000  0.4110970000000  0.5000100000000 1.0
C      1  0.4645040000000  0.5462440000000  0.4214830000000 1.0
C      1  0.5276670000000  0.4508420000000  0.4639800000000 1.0
C      1  0.5268000000000  0.5554040000000  0.4774600000000 1.0
C      1  0.5305400000000  0.4945250000000  0.5622160000000 1.0
C      1  0.5757220000000  0.5042080000000  0.5450520000000 1.0
C      1  0.5708240000000  0.4683660000000  0.4877930000000 1.0
C      1  0.5763880000000  0.5298330000000  0.4736530000000 1.0
C      1  0.4777930000000  0.4585940000000  0.4471580000000 1.0
C      1  0.4773070000000  0.5702330000000  0.4889930000000 1.0
C      1  0.4787980000000  0.4745870000000  0.5640200000000 1.0
C      1  0.5559880000000  0.5117140000000  0.5658090000000 1.0
C      1  0.5553030000000  0.4451480000000  0.4767520000000 1.0
C      1  0.5535420000000  0.5463850000000  0.4631700000000 1.0
END
