TITL C-3578202-4305-280 -6.23395988271726e-07 125000 -161.509923292981 0 0 28 (Td) n - 1
REM
REM in /home/bkarasulu/work/CARBON/AIRSS/Generating-Clusters/EDIP-Nigel-Params/with-SteepDescent/Higher-Symm/SD-CG/HFTN-CG
REM
REM
REM
REM
REM
REM ./C.cell (12c818d87b63d06a65506943cc24bca4)
REM
REM compiler GCC version 9.2.1 20190827 (Red Hat 9.2.1-1)
REM options -cpp -mtune=generic -march=x86-64 -g -O0 -fpre-include=/usr/include/finclude/math-vector-fortran.h
REM seed 512691976 2023845275 913571060 -264016884 289831752 1430752481 -1530172605 -543043486 -129487586 -1923854667 -1449460565 1326975095 52207853 -1769536778 -1173180965 -1847010360 2061339772 -1807209578 848957478 530468207 -1841031103 -2032512047 1302400556 1805408970 46249954 -1957832655 -2104034028 -67404754 -449961361 1054701171 324941115 82547646 1348044398
REM
CELL 1.54180   50.00000   50.00000   50.00000   90.00000   90.00000   90.00000
LATT -1
SFAC C  
C      1  0.4735840000000  0.5592270000000  0.5266880000000 1.0
C      1  0.5595590000000  0.5258330000000  0.4740060000000 1.0
C      1  0.5261690000000  0.4731560000000  0.5599860000000 1.0
C      1  0.4734910000000  0.4398780000000  0.4739640000000 1.0
C      1  0.5262040000000  0.5592320000000  0.4740400000000 1.0
C      1  0.5261390000000  0.4398040000000  0.5265830000000 1.0
C      1  0.5595380000000  0.4731590000000  0.5266000000000 1.0
C      1  0.4401840000000  0.5258720000000  0.5266710000000 1.0
C      1  0.4401350000000  0.4732780000000  0.4739980000000 1.0
C      1  0.5261730000000  0.5258800000000  0.4406370000000 1.0
C      1  0.4735040000000  0.4732810000000  0.4406110000000 1.0
C      1  0.4735710000000  0.5258240000000  0.5600400000000 1.0
C      1  0.4905560000000  0.5704400000000  0.5097220000000 1.0
C      1  0.5707630000000  0.5088430000000  0.4909600000000 1.0
C      1  0.5092140000000  0.4901280000000  0.5712150000000 1.0
C      1  0.4904580000000  0.4286430000000  0.4909200000000 1.0
C      1  0.5092460000000  0.5704420000000  0.4910230000000 1.0
C      1  0.5091570000000  0.4286170000000  0.5096100000000 1.0
C      1  0.5707560000000  0.4901340000000  0.5096400000000 1.0
C      1  0.4289570000000  0.5089220000000  0.5096920000000 1.0
C      1  0.4289400000000  0.4902420000000  0.4909830000000 1.0
C      1  0.5091890000000  0.5089300000000  0.4294180000000 1.0
C      1  0.4904820000000  0.4902480000000  0.4294090000000 1.0
C      1  0.4905320000000  0.5088350000000  0.5712340000000 1.0
C      1  0.5391040000000  0.4602150000000  0.5395440000000 1.0
C      1  0.5391350000000  0.5388040000000  0.4610730000000 1.0
C      1  0.4606260000000  0.5387970000000  0.5396240000000 1.0
C      1  0.4605530000000  0.4603260000000  0.4610340000000 1.0
END
