TITL C-3577084-3642-531 2.66557406561989e-06 125000 -603.528769320045 0 0 97 (C1) n - 1
REM
REM in /home/bkarasulu/work/CARBON/AIRSS/Generating-Clusters/EDIP-Nigel-Params/with-SteepDescent/Higher-Symm/SD-CG/HFTN-CG
REM
REM
REM
REM
REM
REM ./C.cell (12c818d87b63d06a65506943cc24bca4)
REM
REM compiler GCC version 9.2.1 20190827 (Red Hat 9.2.1-1)
REM options -cpp -mtune=generic -march=x86-64 -g -O0 -fpre-include=/usr/include/finclude/math-vector-fortran.h
REM seed -1174247073 1008753525 -1603276868 -311099961 466872499 1429763902 1626210425 -2136784832 -425969332 -776093354 -997454527 1158065989 18482005 -1815857505 1479077495 200007331 -61618974 460739635 195704022 1995189086 -650235843 -1563499279 -60676590 -1050805866 566421743 -1822197507 -1232413686 1579859282 370460275 1022945707 -190071662 1429217427 -826988787
REM
CELL 1.54180   50.00000   50.00000   50.00000   90.00000   90.00000   90.00000
LATT -1
SFAC C  
C      1  0.5661310000000  0.4886570000000  0.4518650000000 1.0
C      1  0.5143890000000  0.4367080000000  0.4519080000000 1.0
C      1  0.4489130000000  0.4725600000000  0.4484570000000 1.0
C      1  0.4544730000000  0.5404620000000  0.4522870000000 1.0
C      1  0.5408880000000  0.5627900000000  0.4481880000000 1.0
C      1  0.5524200000000  0.5014850000000  0.5374380000000 1.0
C      1  0.5213430000000  0.4355100000000  0.5594620000000 1.0
C      1  0.4567200000000  0.4654880000000  0.5438660000000 1.0
C      1  0.4498510000000  0.5365850000000  0.5503540000000 1.0
C      1  0.5140240000000  0.5506400000000  0.5351650000000 1.0
C      1  0.5652230000000  0.5196080000000  0.5162620000000 1.0
C      1  0.5440740000000  0.4377140000000  0.5113600000000 1.0
C      1  0.4589530000000  0.4420070000000  0.5232870000000 1.0
C      1  0.4286420000000  0.5235890000000  0.5108850000000 1.0
C      1  0.5005700000000  0.5742090000000  0.5199820000000 1.0
C      1  0.5531160000000  0.5216220000000  0.4884310000000 1.0
C      1  0.5420090000000  0.4396130000000  0.4799960000000 1.0
C      1  0.4557380000000  0.4427360000000  0.4938300000000 1.0
C      1  0.4290560000000  0.5287420000000  0.4797250000000 1.0
C      1  0.5017150000000  0.5748430000000  0.4896630000000 1.0
C      1  0.5237440000000  0.4823170000000  0.5199250000000 1.0
C      1  0.5192160000000  0.4500490000000  0.5241310000000 1.0
C      1  0.4692700000000  0.4963950000000  0.5230340000000 1.0
C      1  0.4556420000000  0.5254510000000  0.5230920000000 1.0
C      1  0.5047180000000  0.5303540000000  0.5102720000000 1.0
C      1  0.5510180000000  0.4950550000000  0.4768380000000 1.0
C      1  0.5072720000000  0.4646910000000  0.4789810000000 1.0
C      1  0.4645190000000  0.4936410000000  0.4763120000000 1.0
C      1  0.4595460000000  0.5250820000000  0.4783950000000 1.0
C      1  0.5224240000000  0.5584760000000  0.4750350000000 1.0
C      1  0.5048290000000  0.5238850000000  0.4302440000000 1.0
C      1  0.5272140000000  0.5065390000000  0.4185460000000 1.0
C      1  0.5162610000000  0.4794330000000  0.4250220000000 1.0
C      1  0.4877790000000  0.4795220000000  0.4175750000000 1.0
C      1  0.4799680000000  0.5110920000000  0.4192690000000 1.0
C      1  0.4973950000000  0.5211210000000  0.5696110000000 1.0
C      1  0.5230280000000  0.5098370000000  0.5786750000000 1.0
C      1  0.5169610000000  0.4814610000000  0.5727040000000 1.0
C      1  0.4892570000000  0.4774430000000  0.5834820000000 1.0
C      1  0.4749310000000  0.5072820000000  0.5824950000000 1.0
C      1  0.4363420000000  0.4977530000000  0.4425020000000 1.0
C      1  0.4774620000000  0.5602980000000  0.4494970000000 1.0
C      1  0.5604370000000  0.5384830000000  0.4424900000000 1.0
C      1  0.5572410000000  0.4611300000000  0.4423690000000 1.0
C      1  0.4844720000000  0.4398360000000  0.4509580000000 1.0
C      1  0.4357950000000  0.4896870000000  0.5504420000000 1.0
C      1  0.4702210000000  0.5582270000000  0.5557650000000 1.0
C      1  0.5429310000000  0.5464180000000  0.5466120000000 1.0
C      1  0.5575070000000  0.4710640000000  0.5456870000000 1.0
C      1  0.4921730000000  0.4360150000000  0.5564800000000 1.0
C      1  0.4514380000000  0.5755790000000  0.5149650000000 1.0
C      1  0.5619030000000  0.5671080000000  0.5058640000000 1.0
C      1  0.5846380000000  0.4635720000000  0.5047170000000 1.0
C      1  0.4943280000000  0.4088720000000  0.5152120000000 1.0
C      1  0.4226230000000  0.4800110000000  0.5036350000000 1.0
C      1  0.4531050000000  0.5749600000000  0.4879830000000 1.0
C      1  0.5649290000000  0.5663140000000  0.4783280000000 1.0
C      1  0.5842960000000  0.4656350000000  0.4771850000000 1.0
C      1  0.4911630000000  0.4107790000000  0.4874480000000 1.0
C      1  0.4082250000000  0.4858490000000  0.4802910000000 1.0
C      1  0.4189430000000  0.4986880000000  0.5254960000000 1.0
C      1  0.4733660000000  0.5765670000000  0.5323510000000 1.0
C      1  0.5641920000000  0.5475300000000  0.5260990000000 1.0
C      1  0.5666380000000  0.4528660000000  0.5234830000000 1.0
C      1  0.4781830000000  0.4226380000000  0.5344060000000 1.0
C      1  0.4170900000000  0.5064730000000  0.4636990000000 1.0
C      1  0.4771300000000  0.5763040000000  0.4738500000000 1.0
C      1  0.5701520000000  0.5390730000000  0.4704090000000 1.0
C      1  0.5672980000000  0.4457050000000  0.4648500000000 1.0
C      1  0.4707820000000  0.4262760000000  0.4738630000000 1.0
C      1  0.4785730000000  0.5093740000000  0.6132340000000 1.0
C      1  0.5002190000000  0.5272450000000  0.6191910000000 1.0
C      1  0.5225930000000  0.5119060000000  0.6098540000000 1.0
C      1  0.5184370000000  0.4862280000000  0.6220300000000 1.0
C      1  0.4910690000000  0.4812780000000  0.6148950000000 1.0
C      1  0.4807190000000  0.5126020000000  0.3884290000000 1.0
C      1  0.5042660000000  0.5266530000000  0.3799890000000 1.0
C      1  0.5245800000000  0.5079620000000  0.3877090000000 1.0
C      1  0.5153230000000  0.4831020000000  0.3767260000000 1.0
C      1  0.4881350000000  0.4827760000000  0.3859460000000 1.0
C      1  0.5546720000000  0.5108120000000  0.4324720000000 1.0
C      1  0.5286440000000  0.4594010000000  0.4407890000000 1.0
C      1  0.4710760000000  0.4609510000000  0.4351210000000 1.0
C      1  0.4537110000000  0.5191990000000  0.4318450000000 1.0
C      1  0.5048720000000  0.5509900000000  0.4416030000000 1.0
C      1  0.5453980000000  0.5196690000000  0.5603130000000 1.0
C      1  0.5351300000000  0.4609530000000  0.5635470000000 1.0
C      1  0.4749950000000  0.4576480000000  0.5663510000000 1.0
C      1  0.4478670000000  0.5121790000000  0.5677080000000 1.0
C      1  0.4966300000000  0.5467410000000  0.5585390000000 1.0
C      1  0.4975670000000  0.4456100000000  0.5025290000000 1.0
C      1  0.4736870000000  0.5431890000000  0.5030880000000 1.0
C      1  0.5251890000000  0.5331990000000  0.4887430000000 1.0
C      1  0.4528420000000  0.4795510000000  0.5011980000000 1.0
C      1  0.5342570000000  0.4750430000000  0.4906430000000 1.0
C      1  0.4934300000000  0.4908310000000  0.4822510000000 1.0
C      1  0.4982010000000  0.4995030000000  0.5109980000000 1.0
END
