TITL C-3577083-591-392 -1.2104139881887e-05 125000 -486.706790362752 0 0 79 (C1) n - 1
REM
REM in /home/bkarasulu/work/CARBON/AIRSS/Generating-Clusters/EDIP-Nigel-Params/with-SteepDescent/Higher-Symm/SD-CG/HFTN-CG
REM
REM
REM
REM
REM
REM ./C.cell (12c818d87b63d06a65506943cc24bca4)
REM
REM compiler GCC version 9.2.1 20190827 (Red Hat 9.2.1-1)
REM options -cpp -mtune=generic -march=x86-64 -g -O0 -fpre-include=/usr/include/finclude/math-vector-fortran.h
REM seed -456591716 -259936618 -75903474 -1209943966 -806047346 -1816105075 -618415514 107674076 763203207 2138435546 2050688741 1338440573 1176868216 -1341084222 -346051205 -212325959 -23130996 -1242752877 -1453031796 275493571 -1618435013 -1481444289 -1092340175 2025682260 -1257639517 1002095631 -26849936 -730151853 1482387240 -1491787174 281975665 -481672464 -867495643
REM
CELL 1.54180   50.00000   50.00000   50.00000   90.00000   90.00000   90.00000
LATT -1
SFAC C  
C      1  0.5509320000000  0.4382870000000  0.5020880000000 1.0
C      1  0.5540080000000  0.4769550000000  0.4370490000000 1.0
C      1  0.5541440000000  0.5459350000000  0.4667040000000 1.0
C      1  0.5515260000000  0.5521240000000  0.5340140000000 1.0
C      1  0.5468930000000  0.4860310000000  0.5583180000000 1.0
C      1  0.4938410000000  0.5295500000000  0.5757340000000 1.0
C      1  0.4970480000000  0.4439420000000  0.5397380000000 1.0
C      1  0.5033930000000  0.4327690000000  0.4435910000000 1.0
C      1  0.4981340000000  0.5254730000000  0.4338670000000 1.0
C      1  0.5072850000000  0.5911110000000  0.5059750000000 1.0
C      1  0.4461510000000  0.5511830000000  0.4810060000000 1.0
C      1  0.4405150000000  0.5391330000000  0.5280140000000 1.0
C      1  0.4345150000000  0.4960480000000  0.5528140000000 1.0
C      1  0.4413420000000  0.4309110000000  0.4927430000000 1.0
C      1  0.4426450000000  0.4708170000000  0.4614580000000 1.0
C      1  0.4839670000000  0.5441450000000  0.5022750000000 1.0
C      1  0.4787380000000  0.5086320000000  0.5328290000000 1.0
C      1  0.4583380000000  0.4606140000000  0.5276420000000 1.0
C      1  0.4921740000000  0.4629220000000  0.4733930000000 1.0
C      1  0.4633690000000  0.5143290000000  0.4590060000000 1.0
C      1  0.4312130000000  0.4727400000000  0.5341560000000 1.0
C      1  0.4351710000000  0.4582350000000  0.4871230000000 1.0
C      1  0.4391710000000  0.4992090000000  0.4664710000000 1.0
C      1  0.4343300000000  0.5335910000000  0.5001950000000 1.0
C      1  0.4263460000000  0.5210880000000  0.5438040000000 1.0
C      1  0.5272520000000  0.4314400000000  0.4858710000000 1.0
C      1  0.5249860000000  0.4863060000000  0.4370700000000 1.0
C      1  0.5289960000000  0.5605250000000  0.4722040000000 1.0
C      1  0.5222230000000  0.5470240000000  0.5368360000000 1.0
C      1  0.5169720000000  0.4793150000000  0.5566780000000 1.0
C      1  0.5296900000000  0.5030240000000  0.5201360000000 1.0
C      1  0.5234610000000  0.4746660000000  0.5112230000000 1.0
C      1  0.5404630000000  0.4778140000000  0.4850160000000 1.0
C      1  0.5088390000000  0.5099820000000  0.4764350000000 1.0
C      1  0.5287230000000  0.5219790000000  0.4942150000000 1.0
C      1  0.4563230000000  0.4327920000000  0.5165950000000 1.0
C      1  0.4713850000000  0.4726100000000  0.4521760000000 1.0
C      1  0.4570720000000  0.5435660000000  0.4559070000000 1.0
C      1  0.4706970000000  0.5379360000000  0.5308220000000 1.0
C      1  0.4644020000000  0.4937210000000  0.5546860000000 1.0
C      1  0.4788930000000  0.5027580000000  0.5802170000000 1.0
C      1  0.4857130000000  0.4274630000000  0.5177690000000 1.0
C      1  0.4901770000000  0.4518030000000  0.4258220000000 1.0
C      1  0.4855230000000  0.5503320000000  0.4462540000000 1.0
C      1  0.5000290000000  0.5901560000000  0.5329910000000 1.0
C      1  0.4886060000000  0.4692680000000  0.5046930000000 1.0
C      1  0.5163050000000  0.4829050000000  0.4665020000000 1.0
C      1  0.4819490000000  0.5166650000000  0.4847460000000 1.0
C      1  0.5146960000000  0.5476280000000  0.5061870000000 1.0
C      1  0.5087680000000  0.5066240000000  0.5411420000000 1.0
C      1  0.5277340000000  0.4406330000000  0.4587210000000 1.0
C      1  0.5264980000000  0.5161870000000  0.4361850000000 1.0
C      1  0.5358680000000  0.5852060000000  0.5000180000000 1.0
C      1  0.5242950000000  0.5279790000000  0.5709830000000 1.0
C      1  0.5244700000000  0.4432780000000  0.5454510000000 1.0
C      1  0.4863500000000  0.4256900000000  0.4664200000000 1.0
C      1  0.4814840000000  0.5007860000000  0.4271780000000 1.0
C      1  0.4885300000000  0.5789930000000  0.4871740000000 1.0
C      1  0.4823900000000  0.5508500000000  0.5565920000000 1.0
C      1  0.4789860000000  0.4577580000000  0.5600330000000 1.0
C      1  0.5008140000000  0.4781730000000  0.4204050000000 1.0
C      1  0.5012720000000  0.5681280000000  0.4637580000000 1.0
C      1  0.5052700000000  0.5685270000000  0.5497160000000 1.0
C      1  0.4960950000000  0.4771970000000  0.5794020000000 1.0
C      1  0.4998570000000  0.4236730000000  0.4919110000000 1.0
C      1  0.5699490000000  0.4991340000000  0.4466780000000 1.0
C      1  0.5726630000000  0.5516020000000  0.4873660000000 1.0
C      1  0.5673410000000  0.5308940000000  0.5439540000000 1.0
C      1  0.5625040000000  0.4709380000000  0.5401090000000 1.0
C      1  0.5661860000000  0.4526330000000  0.4803620000000 1.0
C      1  0.5558640000000  0.5640790000000  0.5072740000000 1.0
C      1  0.5485970000000  0.5151740000000  0.5583610000000 1.0
C      1  0.5420230000000  0.4554250000000  0.5259710000000 1.0
C      1  0.5545210000000  0.4512150000000  0.4525780000000 1.0
C      1  0.5526260000000  0.5221490000000  0.4489680000000 1.0
C      1  0.4724060000000  0.4964730000000  0.5058170000000 1.0
C      1  0.4394450000000  0.5031840000000  0.4960160000000 1.0
C      1  0.5543900000000  0.5043950000000  0.4894820000000 1.0
C      1  0.4240670000000  0.4790530000000  0.5064210000000 1.0
END
