TITL C-3578195-8548-278 -2.57732499276057e-06 125000 -805.911105203856 0 0 130 (C1) n - 1
REM
REM in /home/bkarasulu/work/CARBON/AIRSS/Generating-Clusters/EDIP-Nigel-Params/with-SteepDescent/Higher-Symm/SD-CG/HFTN-CG
REM
REM
REM
REM
REM
REM ./C.cell (12c818d87b63d06a65506943cc24bca4)
REM
REM compiler GCC version 9.2.1 20190827 (Red Hat 9.2.1-1)
REM options -cpp -mtune=generic -march=x86-64 -g -O0 -fpre-include=/usr/include/finclude/math-vector-fortran.h
REM seed -537662679 1276958636 -974980800 1374192055 66967386 1216219165 2094001199 -1398161180 599379524 -55462588 -776571379 761882038 -1046058716 456970939 666155554 1613966402 966756720 -2073832872 -1618014712 -1192165241 -79650212 -1124695940 427179411 513415641 -536097812 1187044145 1541941305 1451490873 -250536560 -57249387 1586829359 -1183494093 -1256229276
REM
CELL 1.54180   50.00000   50.00000   50.00000   90.00000   90.00000   90.00000
LATT -1
SFAC C  
C      1  0.5095970000000  0.4986690000000  0.5757080000000 1.0
C      1  0.4878340000000  0.5151240000000  0.5889850000000 1.0
C      1  0.5124600000000  0.5103920000000  0.4147680000000 1.0
C      1  0.4888500000000  0.4919690000000  0.4138510000000 1.0
C      1  0.5606350000000  0.6173010000000  0.4918250000000 1.0
C      1  0.4345350000000  0.3936680000000  0.4990880000000 1.0
C      1  0.5562840000000  0.3796580000000  0.5029000000000 1.0
C      1  0.4422580000000  0.6024350000000  0.5199190000000 1.0
C      1  0.5379220000000  0.5799750000000  0.5001830000000 1.0
C      1  0.4661530000000  0.4275070000000  0.5024780000000 1.0
C      1  0.5378420000000  0.4198500000000  0.4977570000000 1.0
C      1  0.4653470000000  0.5696630000000  0.5006070000000 1.0
C      1  0.4604940000000  0.4235610000000  0.4727420000000 1.0
C      1  0.5394600000000  0.5828470000000  0.4697950000000 1.0
C      1  0.4730400000000  0.5740150000000  0.5349820000000 1.0
C      1  0.5345220000000  0.4109360000000  0.5266170000000 1.0
C      1  0.5012480000000  0.5838020000000  0.5353830000000 1.0
C      1  0.5056780000000  0.4148770000000  0.5344300000000 1.0
C      1  0.4974450000000  0.4246970000000  0.4601660000000 1.0
C      1  0.5026360000000  0.5723720000000  0.4614400000000 1.0
C      1  0.5217760000000  0.4565200000000  0.4251310000000 1.0
C      1  0.4782310000000  0.5464980000000  0.4285050000000 1.0
C      1  0.5192750000000  0.5509890000000  0.5718620000000 1.0
C      1  0.4787700000000  0.4560200000000  0.5725110000000 1.0
C      1  0.5365530000000  0.5289580000000  0.5026310000000 1.0
C      1  0.4664220000000  0.4702370000000  0.4912130000000 1.0
C      1  0.5388160000000  0.4712370000000  0.4957830000000 1.0
C      1  0.4734380000000  0.5131960000000  0.4993760000000 1.0
C      1  0.5499790000000  0.6096530000000  0.4679100000000 1.0
C      1  0.4455110000000  0.3989510000000  0.4745410000000 1.0
C      1  0.5462620000000  0.3853390000000  0.5275930000000 1.0
C      1  0.4537020000000  0.5941460000000  0.5431160000000 1.0
C      1  0.5843130000000  0.4969340000000  0.5746650000000 1.0
C      1  0.4149950000000  0.5100230000000  0.5707320000000 1.0
C      1  0.5843070000000  0.5099870000000  0.4441630000000 1.0
C      1  0.4186540000000  0.4881670000000  0.4403620000000 1.0
C      1  0.5055340000000  0.5394340000000  0.4175000000000 1.0
C      1  0.4948130000000  0.4634520000000  0.4135040000000 1.0
C      1  0.5060880000000  0.4678880000000  0.5771940000000 1.0
C      1  0.4905370000000  0.5436560000000  0.5792300000000 1.0
C      1  0.4600190000000  0.5031100000000  0.5867190000000 1.0
C      1  0.5369640000000  0.5061530000000  0.5858540000000 1.0
C      1  0.4622290000000  0.4998150000000  0.4225780000000 1.0
C      1  0.5413310000000  0.5015770000000  0.4200050000000 1.0
C      1  0.4329810000000  0.5323110000000  0.4464520000000 1.0
C      1  0.5604200000000  0.4711920000000  0.4519540000000 1.0
C      1  0.4295540000000  0.4673930000000  0.5618600000000 1.0
C      1  0.5580740000000  0.5276550000000  0.5475860000000 1.0
C      1  0.5579250000000  0.4867990000000  0.5770140000000 1.0
C      1  0.4399690000000  0.5219140000000  0.5759040000000 1.0
C      1  0.5599800000000  0.5195280000000  0.4338550000000 1.0
C      1  0.4413330000000  0.4800180000000  0.4266780000000 1.0
C      1  0.3942860000000  0.5095360000000  0.4760970000000 1.0
C      1  0.6024140000000  0.4776420000000  0.4767620000000 1.0
C      1  0.3994790000000  0.4948620000000  0.5264070000000 1.0
C      1  0.6001580000000  0.5033590000000  0.5271710000000 1.0
C      1  0.5519080000000  0.3985740000000  0.4826830000000 1.0
C      1  0.4470040000000  0.5920410000000  0.4946030000000 1.0
C      1  0.5546020000000  0.6005830000000  0.5136750000000 1.0
C      1  0.4445640000000  0.4139480000000  0.5163360000000 1.0
C      1  0.4501220000000  0.4545670000000  0.4364160000000 1.0
C      1  0.5483160000000  0.5441710000000  0.4429160000000 1.0
C      1  0.4504380000000  0.5327690000000  0.5515550000000 1.0
C      1  0.5492590000000  0.4706980000000  0.5544390000000 1.0
C      1  0.5703180000000  0.4603850000000  0.5380150000000 1.0
C      1  0.4313870000000  0.5384330000000  0.5315380000000 1.0
C      1  0.5605940000000  0.5621140000000  0.4616640000000 1.0
C      1  0.4414460000000  0.4465800000000  0.4638310000000 1.0
C      1  0.5463750000000  0.4733600000000  0.4254180000000 1.0
C      1  0.4557580000000  0.5270440000000  0.4289810000000 1.0
C      1  0.5429510000000  0.5322560000000  0.5741930000000 1.0
C      1  0.4574260000000  0.4770780000000  0.5705750000000 1.0
C      1  0.4485370000000  0.4254210000000  0.5434030000000 1.0
C      1  0.5498330000000  0.5781010000000  0.5431270000000 1.0
C      1  0.4510620000000  0.5774480000000  0.4596340000000 1.0
C      1  0.5470270000000  0.4223080000000  0.4533560000000 1.0
C      1  0.4918640000000  0.4597330000000  0.4861130000000 1.0
C      1  0.5119350000000  0.5335540000000  0.4902130000000 1.0
C      1  0.4903870000000  0.5337810000000  0.5080890000000 1.0
C      1  0.5120020000000  0.4648490000000  0.5060040000000 1.0
C      1  0.4755300000000  0.5474260000000  0.5524540000000 1.0
C      1  0.5239280000000  0.4570060000000  0.5561690000000 1.0
C      1  0.4763080000000  0.4468860000000  0.4283780000000 1.0
C      1  0.5260990000000  0.5553920000000  0.4292760000000 1.0
C      1  0.5801510000000  0.4522880000000  0.5121340000000 1.0
C      1  0.4228650000000  0.5397430000000  0.5043690000000 1.0
C      1  0.5732740000000  0.5475420000000  0.4850640000000 1.0
C      1  0.4234620000000  0.4602660000000  0.4951620000000 1.0
C      1  0.4658310000000  0.5143570000000  0.4700020000000 1.0
C      1  0.5392260000000  0.4874050000000  0.4685510000000 1.0
C      1  0.4573700000000  0.4829310000000  0.5321690000000 1.0
C      1  0.5387590000000  0.5108960000000  0.5286540000000 1.0
C      1  0.3988150000000  0.4796960000000  0.5007410000000 1.0
C      1  0.5934500000000  0.5205250000000  0.5042600000000 1.0
C      1  0.3983520000000  0.5233770000000  0.5012290000000 1.0
C      1  0.6005300000000  0.4728970000000  0.5048420000000 1.0
C      1  0.5096080000000  0.5407090000000  0.4614050000000 1.0
C      1  0.4955890000000  0.4635000000000  0.4576000000000 1.0
C      1  0.5027020000000  0.4573660000000  0.5339720000000 1.0
C      1  0.4985260000000  0.5343740000000  0.5365420000000 1.0
C      1  0.5222240000000  0.5648040000000  0.5451580000000 1.0
C      1  0.4767900000000  0.4336550000000  0.5510550000000 1.0
C      1  0.5213150000000  0.4310420000000  0.4420820000000 1.0
C      1  0.4766860000000  0.5714860000000  0.4451990000000 1.0
C      1  0.5839570000000  0.5116260000000  0.5508710000000 1.0
C      1  0.4100890000000  0.4884180000000  0.5535400000000 1.0
C      1  0.5873590000000  0.4839210000000  0.4533760000000 1.0
C      1  0.4136730000000  0.5114210000000  0.4541590000000 1.0
C      1  0.5637450000000  0.5540540000000  0.5338890000000 1.0
C      1  0.4278610000000  0.4408690000000  0.5536250000000 1.0
C      1  0.5628410000000  0.4439420000000  0.4644200000000 1.0
C      1  0.4293340000000  0.5593210000000  0.4547660000000 1.0
C      1  0.4909790000000  0.5792400000000  0.4881090000000 1.0
C      1  0.5097470000000  0.4191150000000  0.4869110000000 1.0
C      1  0.4922550000000  0.4154900000000  0.5089070000000 1.0
C      1  0.5099890000000  0.5863010000000  0.5079470000000 1.0
C      1  0.5557630000000  0.4461940000000  0.4932260000000 1.0
C      1  0.4474010000000  0.5450860000000  0.4856840000000 1.0
C      1  0.5526760000000  0.5533390000000  0.5063310000000 1.0
C      1  0.4495990000000  0.4579820000000  0.5132030000000 1.0
C      1  0.4499280000000  0.5075380000000  0.5160100000000 1.0
C      1  0.5554030000000  0.4883590000000  0.5150180000000 1.0
C      1  0.4504060000000  0.4841840000000  0.4693490000000 1.0
C      1  0.5510370000000  0.5164580000000  0.4768660000000 1.0
C      1  0.5077480000000  0.5055820000000  0.5449510000000 1.0
C      1  0.4875060000000  0.4829140000000  0.5382580000000 1.0
C      1  0.5128130000000  0.4879600000000  0.4502960000000 1.0
C      1  0.4919880000000  0.5156610000000  0.4512470000000 1.0
C      1  0.5721230000000  0.5040860000000  0.4936200000000 1.0
C      1  0.4319390000000  0.4981040000000  0.4923110000000 1.0
END
