TITL C-3577083-591-490 4.91575626936864e-07 125000 -1238.13561337311 0 0 196 (C1) n - 1
REM
REM in /home/bkarasulu/work/CARBON/AIRSS/Generating-Clusters/EDIP-Nigel-Params/with-SteepDescent/Higher-Symm/SD-CG/HFTN-CG
REM
REM
REM
REM
REM
REM ./C.cell (12c818d87b63d06a65506943cc24bca4)
REM
REM compiler GCC version 9.2.1 20190827 (Red Hat 9.2.1-1)
REM options -cpp -mtune=generic -march=x86-64 -g -O0 -fpre-include=/usr/include/finclude/math-vector-fortran.h
REM seed -427912084 -738553370 1503719629 835025845 -824171059 294727496 72304011 -572508929 49689743 754309129 -299707859 1454003569 959285961 1595460637 1286760012 -1214465881 -353369458 1568354286 228541053 -119308183 -988424009 -2139473682 736030100 -294615959 -954347107 877267372 -1139764256 -987586253 -1759874027 1564283351 731024177 -1193643712 1458965936
REM
CELL 1.54180   50.00000   50.00000   50.00000   90.00000   90.00000   90.00000
LATT -1
SFAC C  
C      1  0.5134960000000  0.4846980000000  0.5702690000000 1.0
C      1  0.4814500000000  0.5149470000000  0.5639380000000 1.0
C      1  0.5167070000000  0.5131520000000  0.5602110000000 1.0
C      1  0.4839630000000  0.4840170000000  0.5700180000000 1.0
C      1  0.4690450000000  0.6099650000000  0.5146890000000 1.0
C      1  0.5331470000000  0.3881310000000  0.5182240000000 1.0
C      1  0.4694480000000  0.3893940000000  0.5170370000000 1.0
C      1  0.5287260000000  0.6107990000000  0.5121650000000 1.0
C      1  0.4666370000000  0.5788100000000  0.5834690000000 1.0
C      1  0.5303590000000  0.4242580000000  0.5851170000000 1.0
C      1  0.4678190000000  0.4235400000000  0.5853410000000 1.0
C      1  0.5298110000000  0.5794920000000  0.5819660000000 1.0
C      1  0.5137820000000  0.6002970000000  0.4873330000000 1.0
C      1  0.4864170000000  0.3857120000000  0.4921420000000 1.0
C      1  0.5157490000000  0.3912830000000  0.4936400000000 1.0
C      1  0.4845200000000  0.6003790000000  0.4913850000000 1.0
C      1  0.5545790000000  0.5588610000000  0.5240550000000 1.0
C      1  0.4446020000000  0.4400270000000  0.5252570000000 1.0
C      1  0.5580940000000  0.4403620000000  0.5245660000000 1.0
C      1  0.4411720000000  0.5598870000000  0.5249010000000 1.0
C      1  0.6132690000000  0.5556630000000  0.5050980000000 1.0
C      1  0.3983090000000  0.4413440000000  0.5056980000000 1.0
C      1  0.6014610000000  0.4406630000000  0.5058680000000 1.0
C      1  0.3938490000000  0.5561360000000  0.5071720000000 1.0
C      1  0.5262670000000  0.5574640000000  0.4571650000000 1.0
C      1  0.4846970000000  0.4414670000000  0.4552400000000 1.0
C      1  0.5165150000000  0.4470830000000  0.4526210000000 1.0
C      1  0.4678650000000  0.5412110000000  0.4526680000000 1.0
C      1  0.5975350000000  0.5342850000000  0.4343780000000 1.0
C      1  0.4139720000000  0.4671520000000  0.4372440000000 1.0
C      1  0.5891640000000  0.4659870000000  0.4346630000000 1.0
C      1  0.4077290000000  0.5325280000000  0.4371670000000 1.0
C      1  0.5254360000000  0.4054130000000  0.4587490000000 1.0
C      1  0.4656360000000  0.5893260000000  0.4526100000000 1.0
C      1  0.5407180000000  0.6008550000000  0.4448590000000 1.0
C      1  0.4676800000000  0.4007950000000  0.4572660000000 1.0
C      1  0.4315310000000  0.4870110000000  0.4247620000000 1.0
C      1  0.5777640000000  0.5156450000000  0.4212670000000 1.0
C      1  0.4276390000000  0.5154830000000  0.4235510000000 1.0
C      1  0.5710680000000  0.4873790000000  0.4254860000000 1.0
C      1  0.4244220000000  0.4836190000000  0.5073600000000 1.0
C      1  0.5771560000000  0.5162530000000  0.5038990000000 1.0
C      1  0.4217720000000  0.5140140000000  0.5076200000000 1.0
C      1  0.5764580000000  0.4850510000000  0.5026940000000 1.0
C      1  0.5624560000000  0.4711250000000  0.5261700000000 1.0
C      1  0.4361020000000  0.5291650000000  0.5310350000000 1.0
C      1  0.5598000000000  0.5278530000000  0.5264040000000 1.0
C      1  0.4385810000000  0.4700280000000  0.5308920000000 1.0
C      1  0.4417440000000  0.6010800000000  0.5025510000000 1.0
C      1  0.5582390000000  0.3980730000000  0.5018600000000 1.0
C      1  0.4446320000000  0.4006270000000  0.5040880000000 1.0
C      1  0.5558450000000  0.6024190000000  0.5021640000000 1.0
C      1  0.5602340000000  0.4294480000000  0.4963020000000 1.0
C      1  0.4425290000000  0.5701130000000  0.4947320000000 1.0
C      1  0.5520400000000  0.5725050000000  0.4964300000000 1.0
C      1  0.4469200000000  0.4315900000000  0.4945360000000 1.0
C      1  0.5935580000000  0.4654690000000  0.4652940000000 1.0
C      1  0.4034780000000  0.5317230000000  0.4677310000000 1.0
C      1  0.6014900000000  0.5315510000000  0.4655200000000 1.0
C      1  0.4090990000000  0.4671490000000  0.4675990000000 1.0
C      1  0.5929110000000  0.4360380000000  0.4763120000000 1.0
C      1  0.4033020000000  0.5596330000000  0.4792080000000 1.0
C      1  0.6092820000000  0.5598910000000  0.4759100000000 1.0
C      1  0.4074590000000  0.4384210000000  0.4774520000000 1.0
C      1  0.4816590000000  0.4861280000000  0.4888650000000 1.0
C      1  0.5219760000000  0.5133490000000  0.4777850000000 1.0
C      1  0.4703790000000  0.5137140000000  0.4910280000000 1.0
C      1  0.5106400000000  0.4864360000000  0.4787700000000 1.0
C      1  0.4547760000000  0.5366540000000  0.4791860000000 1.0
C      1  0.5462890000000  0.4530290000000  0.4775230000000 1.0
C      1  0.4628600000000  0.4629850000000  0.4784740000000 1.0
C      1  0.5624650000000  0.5564370000000  0.4722710000000 1.0
C      1  0.6026180000000  0.4219600000000  0.5265300000000 1.0
C      1  0.3941450000000  0.5762990000000  0.5261140000000 1.0
C      1  0.6010530000000  0.5730140000000  0.5229020000000 1.0
C      1  0.3984370000000  0.4210500000000  0.5246240000000 1.0
C      1  0.5673390000000  0.4745310000000  0.4760850000000 1.0
C      1  0.4284710000000  0.5228830000000  0.4799970000000 1.0
C      1  0.5738290000000  0.5291410000000  0.4769660000000 1.0
C      1  0.4349900000000  0.4755310000000  0.4805570000000 1.0
C      1  0.4657400000000  0.5647900000000  0.4343220000000 1.0
C      1  0.5265930000000  0.4352650000000  0.4267610000000 1.0
C      1  0.4738360000000  0.4327800000000  0.4281340000000 1.0
C      1  0.5347010000000  0.5740010000000  0.4329780000000 1.0
C      1  0.3885460000000  0.4694600000000  0.5113790000000 1.0
C      1  0.6141410000000  0.5258800000000  0.5109380000000 1.0
C      1  0.3856300000000  0.5273190000000  0.5124010000000 1.0
C      1  0.6110000000000  0.4687740000000  0.5107550000000 1.0
C      1  0.5120550000000  0.5534950000000  0.5081530000000 1.0
C      1  0.4865990000000  0.4484180000000  0.5130280000000 1.0
C      1  0.5142690000000  0.4422030000000  0.5076720000000 1.0
C      1  0.4822800000000  0.5525910000000  0.5095420000000 1.0
C      1  0.4442310000000  0.4731030000000  0.5956660000000 1.0
C      1  0.5532570000000  0.5280920000000  0.5916400000000 1.0
C      1  0.4447160000000  0.5281090000000  0.5935100000000 1.0
C      1  0.5537360000000  0.4743950000000  0.5956820000000 1.0
C      1  0.5675740000000  0.6176230000000  0.4818920000000 1.0
C      1  0.4318880000000  0.3847490000000  0.4845450000000 1.0
C      1  0.5640130000000  0.3834020000000  0.4785870000000 1.0
C      1  0.4334040000000  0.6163580000000  0.4805460000000 1.0
C      1  0.4787380000000  0.5244090000000  0.5148240000000 1.0
C      1  0.5269490000000  0.4678160000000  0.4968710000000 1.0
C      1  0.4836060000000  0.4762150000000  0.5156220000000 1.0
C      1  0.5215300000000  0.5256670000000  0.5043850000000 1.0
C      1  0.5329310000000  0.5119260000000  0.5288740000000 1.0
C      1  0.4645370000000  0.4843830000000  0.5363110000000 1.0
C      1  0.5366710000000  0.4828820000000  0.5218550000000 1.0
C      1  0.4634180000000  0.5153270000000  0.5375680000000 1.0
C      1  0.4404290000000  0.4299570000000  0.5797650000000 1.0
C      1  0.5572870000000  0.5722070000000  0.5770130000000 1.0
C      1  0.4391670000000  0.5713320000000  0.5789720000000 1.0
C      1  0.5578800000000  0.4308650000000  0.5806800000000 1.0
C      1  0.4842900000000  0.5558720000000  0.5857510000000 1.0
C      1  0.5138680000000  0.4459320000000  0.5956840000000 1.0
C      1  0.4846170000000  0.4460540000000  0.5933930000000 1.0
C      1  0.5132500000000  0.5558630000000  0.5842070000000 1.0
C      1  0.4816840000000  0.5926750000000  0.5369330000000 1.0
C      1  0.5195880000000  0.4076780000000  0.5379800000000 1.0
C      1  0.4837100000000  0.4075390000000  0.5379150000000 1.0
C      1  0.5161720000000  0.5926770000000  0.5351500000000 1.0
C      1  0.6173370000000  0.5113060000000  0.4835510000000 1.0
C      1  0.3870760000000  0.4837450000000  0.4838490000000 1.0
C      1  0.6150670000000  0.4816290000000  0.4827560000000 1.0
C      1  0.3842640000000  0.5135440000000  0.4843180000000 1.0
C      1  0.4464850000000  0.5307690000000  0.4072400000000 1.0
C      1  0.5472620000000  0.4771890000000  0.4118270000000 1.0
C      1  0.4536890000000  0.4755090000000  0.4096760000000 1.0
C      1  0.5536720000000  0.5309950000000  0.4148580000000 1.0
C      1  0.4883740000000  0.5667190000000  0.4174840000000 1.0
C      1  0.5137670000000  0.4363770000000  0.4017270000000 1.0
C      1  0.4860960000000  0.4341330000000  0.4025370000000 1.0
C      1  0.5132410000000  0.5755690000000  0.4144880000000 1.0
C      1  0.5152040000000  0.4034440000000  0.5689300000000 1.0
C      1  0.4803220000000  0.6007160000000  0.5674580000000 1.0
C      1  0.5148090000000  0.6004860000000  0.5656510000000 1.0
C      1  0.4829610000000  0.4020700000000  0.5698690000000 1.0
C      1  0.5793080000000  0.5609020000000  0.5626260000000 1.0
C      1  0.4192180000000  0.4394460000000  0.5634610000000 1.0
C      1  0.5800920000000  0.4394840000000  0.5652670000000 1.0
C      1  0.4175210000000  0.5603090000000  0.5639810000000 1.0
C      1  0.4222970000000  0.4243340000000  0.5390090000000 1.0
C      1  0.5773150000000  0.5737010000000  0.5372270000000 1.0
C      1  0.4187930000000  0.5748100000000  0.5391340000000 1.0
C      1  0.5785310000000  0.4251600000000  0.5404310000000 1.0
C      1  0.5270210000000  0.5305290000000  0.5825000000000 1.0
C      1  0.4720830000000  0.4723240000000  0.5948230000000 1.0
C      1  0.5259210000000  0.4725660000000  0.5935400000000 1.0
C      1  0.4718770000000  0.5301520000000  0.5874640000000 1.0
C      1  0.5292950000000  0.4350620000000  0.5321280000000 1.0
C      1  0.4704180000000  0.5652590000000  0.5334420000000 1.0
C      1  0.5255390000000  0.5643470000000  0.5325390000000 1.0
C      1  0.4731020000000  0.4349750000000  0.5341760000000 1.0
C      1  0.6044710000000  0.5135400000000  0.5379620000000 1.0
C      1  0.3944450000000  0.4833260000000  0.5394180000000 1.0
C      1  0.6028280000000  0.4836820000000  0.5375510000000 1.0
C      1  0.3929090000000  0.5137980000000  0.5401040000000 1.0
C      1  0.4172660000000  0.5603350000000  0.4325610000000 1.0
C      1  0.5741360000000  0.4407830000000  0.4294370000000 1.0
C      1  0.4265690000000  0.4410570000000  0.4324280000000 1.0
C      1  0.5853960000000  0.5622270000000  0.4317100000000 1.0
C      1  0.5164780000000  0.5288540000000  0.4518590000000 1.0
C      1  0.4849710000000  0.4904010000000  0.4415720000000 1.0
C      1  0.5104970000000  0.4771880000000  0.4506140000000 1.0
C      1  0.4873840000000  0.5218390000000  0.4420490000000 1.0
C      1  0.4897960000000  0.6066080000000  0.4475830000000 1.0
C      1  0.5047190000000  0.3857130000000  0.4490480000000 1.0
C      1  0.4824350000000  0.3753630000000  0.4635250000000 1.0
C      1  0.5160800000000  0.6114370000000  0.4590770000000 1.0
C      1  0.4184120000000  0.5756430000000  0.4581290000000 1.0
C      1  0.5717550000000  0.4250400000000  0.4545560000000 1.0
C      1  0.4249950000000  0.4248040000000  0.4572900000000 1.0
C      1  0.5829370000000  0.5742320000000  0.4591400000000 1.0
C      1  0.5180540000000  0.4202620000000  0.4868820000000 1.0
C      1  0.4712570000000  0.5763120000000  0.4803290000000 1.0
C      1  0.5229530000000  0.5709490000000  0.4859720000000 1.0
C      1  0.4749310000000  0.4221340000000  0.4796530000000 1.0
C      1  0.5555990000000  0.3999470000000  0.4575150000000 1.0
C      1  0.4367030000000  0.5994360000000  0.4583370000000 1.0
C      1  0.5670360000000  0.6013420000000  0.4592110000000 1.0
C      1  0.4376270000000  0.3981070000000  0.4604300000000 1.0
C      1  0.4280810000000  0.4857240000000  0.5770020000000 1.0
C      1  0.5734760000000  0.5146600000000  0.5785350000000 1.0
C      1  0.4274300000000  0.5141490000000  0.5769380000000 1.0
C      1  0.5730720000000  0.4861470000000  0.5796370000000 1.0
C      1  0.4164420000000  0.5295920000000  0.5546680000000 1.0
C      1  0.5843860000000  0.4694790000000  0.5586200000000 1.0
C      1  0.4184750000000  0.4695780000000  0.5543110000000 1.0
C      1  0.5843050000000  0.5298830000000  0.5562260000000 1.0
C      1  0.5207150000000  0.4914650000000  0.4163850000000 1.0
C      1  0.4745840000000  0.5206180000000  0.4065340000000 1.0
C      1  0.5287890000000  0.5187040000000  0.4258000000000 1.0
C      1  0.4813010000000  0.4911360000000  0.4117640000000 1.0
C      1  0.5582500000000  0.5596230000000  0.4202680000000 1.0
C      1  0.4506990000000  0.4454880000000  0.4139490000000 1.0
C      1  0.5495580000000  0.4474530000000  0.4125620000000 1.0
C      1  0.4422560000000  0.5594140000000  0.4163110000000 1.0
END
