TITL C-3578207-9274-655 -3.97883996019076e-07 125000 -656.853277168583 0 0 103 (Cs) n - 1
REM
REM in /home/bkarasulu/work/CARBON/AIRSS/Generating-Clusters/EDIP-Nigel-Params/with-SteepDescent/Higher-Symm/SD-CG/HFTN-CG
REM
REM
REM
REM
REM
REM ./C.cell (12c818d87b63d06a65506943cc24bca4)
REM
REM compiler GCC version 9.2.1 20190827 (Red Hat 9.2.1-1)
REM options -cpp -mtune=generic -march=x86-64 -g -O0 -fpre-include=/usr/include/finclude/math-vector-fortran.h
REM seed -1706691361 917957549 -1861546240 -177803645 714134098 1514415789 13119587 1508888014 -874004060 -1991531409 -457053540 -1661802223 -1751275693 2005523287 -1770017245 485389180 -1532551479 610658656 2030363839 1153739370 -617323621 526463802 -760035282 73341524 742618787 -1190983736 -795653641 1485705798 873995011 1281640810 -1648202970 -1799046933 -615652532
REM
CELL 1.54180   50.00000   50.00000   50.00000   90.00000   90.00000   90.00000
LATT -1
SFAC C  
C      1  0.5481820000000  0.4829540000000  0.4269330000000 1.0
C      1  0.5098520000000  0.4487590000000  0.4262230000000 1.0
C      1  0.4609310000000  0.4656310000000  0.4259630000000 1.0
C      1  0.4510440000000  0.5167710000000  0.4257400000000 1.0
C      1  0.4897340000000  0.5541150000000  0.4237870000000 1.0
C      1  0.5375110000000  0.5329750000000  0.4272640000000 1.0
C      1  0.5478250000000  0.4825360000000  0.5716090000000 1.0
C      1  0.5094930000000  0.4483380000000  0.5719310000000 1.0
C      1  0.4605710000000  0.4652080000000  0.5720470000000 1.0
C      1  0.4506820000000  0.5163460000000  0.5725180000000 1.0
C      1  0.4893610000000  0.5536780000000  0.5748770000000 1.0
C      1  0.5371550000000  0.5325570000000  0.5715140000000 1.0
C      1  0.4714030000000  0.4980130000000  0.5271460000000 1.0
C      1  0.4845620000000  0.5214420000000  0.5383350000000 1.0
C      1  0.5124220000000  0.5257790000000  0.5254270000000 1.0
C      1  0.5285700000000  0.5006310000000  0.5245770000000 1.0
C      1  0.5151850000000  0.4750850000000  0.5254930000000 1.0
C      1  0.4865610000000  0.4737400000000  0.5263440000000 1.0
C      1  0.4715410000000  0.4981750000000  0.4711060000000 1.0
C      1  0.4847550000000  0.5216680000000  0.4601180000000 1.0
C      1  0.5125510000000  0.5259300000000  0.4731880000000 1.0
C      1  0.5286950000000  0.5007770000000  0.4739730000000 1.0
C      1  0.5153150000000  0.4752370000000  0.4728430000000 1.0
C      1  0.4866960000000  0.4738980000000  0.4718430000000 1.0
C      1  0.4710260000000  0.5477110000000  0.5299510000000 1.0
C      1  0.5299390000000  0.5524020000000  0.5272320000000 1.0
C      1  0.5584970000000  0.4999320000000  0.5261190000000 1.0
C      1  0.5294640000000  0.4487390000000  0.5260400000000 1.0
C      1  0.4707220000000  0.4483090000000  0.5260390000000 1.0
C      1  0.4412390000000  0.4990210000000  0.5266560000000 1.0
C      1  0.4711780000000  0.5478890000000  0.4685870000000 1.0
C      1  0.5300770000000  0.5525630000000  0.4716240000000 1.0
C      1  0.5586290000000  0.5000870000000  0.4725740000000 1.0
C      1  0.5295970000000  0.4488950000000  0.4722140000000 1.0
C      1  0.4708560000000  0.4484650000000  0.4719230000000 1.0
C      1  0.4413760000000  0.4991810000000  0.4714540000000 1.0
C      1  0.4802190000000  0.5226700000000  0.3886140000000 1.0
C      1  0.5100040000000  0.5284190000000  0.3888370000000 1.0
C      1  0.5297880000000  0.5054420000000  0.3895640000000 1.0
C      1  0.5201360000000  0.4766330000000  0.3891100000000 1.0
C      1  0.4902860000000  0.4708640000000  0.3889470000000 1.0
C      1  0.4704820000000  0.4939060000000  0.3890260000000 1.0
C      1  0.4796730000000  0.5220300000000  0.6098210000000 1.0
C      1  0.5094590000000  0.5277800000000  0.6097780000000 1.0
C      1  0.5292470000000  0.5048070000000  0.6090160000000 1.0
C      1  0.5195930000000  0.4759970000000  0.6092560000000 1.0
C      1  0.4897430000000  0.4702270000000  0.6092370000000 1.0
C      1  0.4699390000000  0.4932690000000  0.6091940000000 1.0
C      1  0.5093290000000  0.5931200000000  0.4860330000000 1.0
C      1  0.5828030000000  0.5394440000000  0.4860890000000 1.0
C      1  0.5759110000000  0.4466760000000  0.4858250000000 1.0
C      1  0.4917780000000  0.4070700000000  0.4855040000000 1.0
C      1  0.4160110000000  0.4604960000000  0.4854660000000 1.0
C      1  0.4256110000000  0.5527270000000  0.4857880000000 1.0
C      1  0.5092630000000  0.5930420000000  0.5129560000000 1.0
C      1  0.5827360000000  0.5393670000000  0.5129510000000 1.0
C      1  0.5758450000000  0.4465980000000  0.5126450000000 1.0
C      1  0.4917120000000  0.4069920000000  0.5123210000000 1.0
C      1  0.4159450000000  0.4604190000000  0.5122950000000 1.0
C      1  0.4255450000000  0.5526500000000  0.5125540000000 1.0
C      1  0.5322870000000  0.4615550000000  0.5861080000000 1.0
C      1  0.4834300000000  0.4519620000000  0.5862060000000 1.0
C      1  0.4508300000000  0.4897100000000  0.5863410000000 1.0
C      1  0.4665290000000  0.5373730000000  0.5875610000000 1.0
C      1  0.5160390000000  0.5465770000000  0.5872850000000 1.0
C      1  0.5476510000000  0.5087540000000  0.5856790000000 1.0
C      1  0.5327160000000  0.4620580000000  0.4122360000000 1.0
C      1  0.4838600000000  0.4524670000000  0.4118410000000 1.0
C      1  0.4512600000000  0.4902150000000  0.4117630000000 1.0
C      1  0.4669650000000  0.5378840000000  0.4108970000000 1.0
C      1  0.5164730000000  0.5470850000000  0.4114700000000 1.0
C      1  0.5480770000000  0.5092540000000  0.4130130000000 1.0
C      1  0.4411760000000  0.5472370000000  0.4633340000000 1.0
C      1  0.5126110000000  0.5763300000000  0.4638030000000 1.0
C      1  0.5702160000000  0.5270570000000  0.4644460000000 1.0
C      1  0.5588770000000  0.4520000000000  0.4643710000000 1.0
C      1  0.4880440000000  0.4245410000000  0.4640650000000 1.0
C      1  0.4290740000000  0.4723270000000  0.4638150000000 1.0
C      1  0.4409990000000  0.5470290000000  0.5350520000000 1.0
C      1  0.5124350000000  0.5761230000000  0.5351040000000 1.0
C      1  0.5700430000000  0.5268540000000  0.5344600000000 1.0
C      1  0.5587050000000  0.4517980000000  0.5340450000000 1.0
C      1  0.4878720000000  0.4243390000000  0.5338420000000 1.0
C      1  0.4289010000000  0.4721240000000  0.5340780000000 1.0
C      1  0.5133080000000  0.4326490000000  0.5466610000000 1.0
C      1  0.4487110000000  0.4540650000000  0.5467850000000 1.0
C      1  0.4347370000000  0.5209420000000  0.5474200000000 1.0
C      1  0.4865660000000  0.5674730000000  0.5477300000000 1.0
C      1  0.5504190000000  0.5444120000000  0.5479500000000 1.0
C      1  0.5639090000000  0.4779780000000  0.5468640000000 1.0
C      1  0.5135430000000  0.4329250000000  0.4514210000000 1.0
C      1  0.4489480000000  0.4543420000000  0.4511020000000 1.0
C      1  0.4349760000000  0.5212210000000  0.4507850000000 1.0
C      1  0.4868050000000  0.5677530000000  0.4510000000000 1.0
C      1  0.5506580000000  0.5446920000000  0.4509620000000 1.0
C      1  0.5641440000000  0.4782530000000  0.4517300000000 1.0
C      1  0.4781570000000  0.5497360000000  0.4992920000000 1.0
C      1  0.5683940000000  0.4932440000000  0.4993510000000 1.0
C      1  0.5281750000000  0.4373720000000  0.4990900000000 1.0
C      1  0.4331840000000  0.5058320000000  0.4990540000000 1.0
C      1  0.5406020000000  0.5567650000000  0.4994660000000 1.0
C      1  0.4603700000000  0.4443240000000  0.4989430000000 1.0
C      1  0.5016690000000  0.5324570000000  0.4993000000000 1.0
END
