TITL C-3577085-527-492 2.28687201450695e-07 125000 -161.954048050215 0 0 28 (C2) n - 1
REM
REM in /home/bkarasulu/work/CARBON/AIRSS/Generating-Clusters/EDIP-Nigel-Params/with-SteepDescent/Higher-Symm/SD-CG/HFTN-CG
REM
REM
REM
REM
REM
REM ./C.cell (12c818d87b63d06a65506943cc24bca4)
REM
REM compiler GCC version 9.2.1 20190827 (Red Hat 9.2.1-1)
REM options -cpp -mtune=generic -march=x86-64 -g -O0 -fpre-include=/usr/include/finclude/math-vector-fortran.h
REM seed 1101881152 426877440 1780512939 723634978 -1335902439 949383020 716400087 -830230298 -1075631085 -1062677252 1083130891 -745890065 -1275846192 -662685499 1825959436 262749050 1368110154 419861349 1405573937 1133641143 -1009068207 -22930257 -1355828884 300633536 -853595305 865366394 -1845981555 1369829646 -1506695458 -1344574092 46458820 324207368 -55147020
REM
CELL 1.54180   50.00000   50.00000   50.00000   90.00000   90.00000   90.00000
LATT -1
SFAC C  
C      1  0.5062320000000  0.5361330000000  0.5295840000000 1.0
C      1  0.4937680000000  0.4638660000000  0.5295830000000 1.0
C      1  0.5062990000000  0.5360960000000  0.4708520000000 1.0
C      1  0.4937010000000  0.4639040000000  0.4708520000000 1.0
C      1  0.5048110000000  0.5124310000000  0.5729660000000 1.0
C      1  0.4951890000000  0.4875680000000  0.5729660000000 1.0
C      1  0.5048600000000  0.5124140000000  0.4274660000000 1.0
C      1  0.4951400000000  0.4875870000000  0.4274660000000 1.0
C      1  0.5083620000000  0.4860850000000  0.4839670000000 1.0
C      1  0.4916380000000  0.5139150000000  0.4839670000000 1.0
C      1  0.5083750000000  0.4860720000000  0.5164410000000 1.0
C      1  0.4916250000000  0.5139280000000  0.5164410000000 1.0
C      1  0.4418470000000  0.5087500000000  0.5122200000000 1.0
C      1  0.5581530000000  0.4912500000000  0.5122200000000 1.0
C      1  0.4404210000000  0.5085810000000  0.4853660000000 1.0
C      1  0.5595790000000  0.4914190000000  0.4853660000000 1.0
C      1  0.4888870000000  0.4675810000000  0.5564420000000 1.0
C      1  0.5111130000000  0.5324190000000  0.5564430000000 1.0
C      1  0.4887810000000  0.4676240000000  0.4440000000000 1.0
C      1  0.5112190000000  0.5323760000000  0.4440000000000 1.0
C      1  0.4780980000000  0.4477610000000  0.4868630000000 1.0
C      1  0.5219020000000  0.5522390000000  0.4868630000000 1.0
C      1  0.4781270000000  0.4477360000000  0.5135960000000 1.0
C      1  0.5218730000000  0.5522640000000  0.5135970000000 1.0
C      1  0.4647980000000  0.5111670000000  0.4742760000000 1.0
C      1  0.5352020000000  0.4888330000000  0.4742760000000 1.0
C      1  0.4647280000000  0.5111970000000  0.5259590000000 1.0
C      1  0.5352720000000  0.4888030000000  0.5259590000000 1.0
END
