TITL C-3577078-809-704 -2.16517175465183e-06 125000 -991.538043059541 0 0 154 (C1) n - 1
REM
REM in /home/bkarasulu/work/CARBON/AIRSS/Generating-Clusters/EDIP-Nigel-Params/with-SteepDescent/Higher-Symm/SD-CG/HFTN-CG
REM
REM
REM
REM
REM
REM ./C.cell (12c818d87b63d06a65506943cc24bca4)
REM
REM compiler GCC version 9.2.1 20190827 (Red Hat 9.2.1-1)
REM options -cpp -mtune=generic -march=x86-64 -g -O0 -fpre-include=/usr/include/finclude/math-vector-fortran.h
REM seed -1390172697 18602412 -1730686793 244027694 1165365034 -1487184264 -753559719 -801508307 -95675205 -1495151045 -405186496 592393356 -1664399780 210649566 -1208776762 1440864447 -1482717794 1509208131 1811322280 -1208020047 421361554 235931187 -1317566441 -793481720 -768442187 2067518189 922808527 1748484194 -433385013 948496958 928979904 -1224913391 28372859
REM
CELL 1.54180   50.00000   50.00000   50.00000   90.00000   90.00000   90.00000
LATT -1
SFAC C  
C      1  0.4637010000000  0.4454640000000  0.4585890000000 1.0
C      1  0.4604300000000  0.5761060000000  0.4671470000000 1.0
C      1  0.4612850000000  0.4940850000000  0.5836240000000 1.0
C      1  0.5331870000000  0.5580140000000  0.4538100000000 1.0
C      1  0.5393490000000  0.4236770000000  0.4635950000000 1.0
C      1  0.5378240000000  0.5097610000000  0.5666990000000 1.0
C      1  0.5213120000000  0.4474460000000  0.4251430000000 1.0
C      1  0.5170640000000  0.5934560000000  0.4902550000000 1.0
C      1  0.5220280000000  0.4565230000000  0.5908070000000 1.0
C      1  0.4778960000000  0.5575410000000  0.4185420000000 1.0
C      1  0.4784520000000  0.4010580000000  0.4925540000000 1.0
C      1  0.4783080000000  0.5394160000000  0.5842030000000 1.0
C      1  0.5207570000000  0.5102600000000  0.4618960000000 1.0
C      1  0.5146080000000  0.5177730000000  0.5265380000000 1.0
C      1  0.5229620000000  0.4459290000000  0.5055380000000 1.0
C      1  0.4805360000000  0.4884370000000  0.4662260000000 1.0
C      1  0.4782700000000  0.4678230000000  0.5452330000000 1.0
C      1  0.4795030000000  0.5444950000000  0.5063730000000 1.0
C      1  0.4698570000000  0.4960850000000  0.5524030000000 1.0
C      1  0.4576480000000  0.4726060000000  0.4706370000000 1.0
C      1  0.4648810000000  0.5470670000000  0.4807300000000 1.0
C      1  0.5429020000000  0.5132700000000  0.5363490000000 1.0
C      1  0.5415390000000  0.5304820000000  0.4638100000000 1.0
C      1  0.5326480000000  0.4514570000000  0.4780410000000 1.0
C      1  0.5049750000000  0.5052080000000  0.6063430000000 1.0
C      1  0.5155280000000  0.4047450000000  0.4611070000000 1.0
C      1  0.5038960000000  0.5894320000000  0.4431490000000 1.0
C      1  0.4841880000000  0.4864520000000  0.6026490000000 1.0
C      1  0.4832030000000  0.5958080000000  0.4614320000000 1.0
C      1  0.4948840000000  0.4114590000000  0.4430790000000 1.0
C      1  0.4340600000000  0.4416110000000  0.4306940000000 1.0
C      1  0.4348360000000  0.5889850000000  0.4790630000000 1.0
C      1  0.4348210000000  0.4771060000000  0.5833750000000 1.0
C      1  0.5653180000000  0.5606050000000  0.4279040000000 1.0
C      1  0.5658230000000  0.4148690000000  0.4782360000000 1.0
C      1  0.5661700000000  0.5302220000000  0.5839170000000 1.0
C      1  0.4685260000000  0.4591720000000  0.5149890000000 1.0
C      1  0.4697990000000  0.5157910000000  0.4575450000000 1.0
C      1  0.4709010000000  0.5182940000000  0.5200150000000 1.0
C      1  0.5305710000000  0.5397190000000  0.5103760000000 1.0
C      1  0.5380100000000  0.4838150000000  0.4696440000000 1.0
C      1  0.5322380000000  0.4657960000000  0.5281370000000 1.0
C      1  0.5000320000000  0.5926930000000  0.5372020000000 1.0
C      1  0.5004790000000  0.4221010000000  0.5622280000000 1.0
C      1  0.5000270000000  0.4867120000000  0.4055540000000 1.0
C      1  0.4999890000000  0.4076350000000  0.5375210000000 1.0
C      1  0.5000920000000  0.5746510000000  0.5596880000000 1.0
C      1  0.5004970000000  0.5157480000000  0.4037150000000 1.0
C      1  0.4505440000000  0.4867980000000  0.4131970000000 1.0
C      1  0.4519140000000  0.5844990000000  0.5294560000000 1.0
C      1  0.4521030000000  0.4343150000000  0.5558290000000 1.0
C      1  0.5502910000000  0.5155610000000  0.4102720000000 1.0
C      1  0.5474540000000  0.4181750000000  0.5293990000000 1.0
C      1  0.5489140000000  0.5676460000000  0.5538990000000 1.0
C      1  0.5575280000000  0.4962840000000  0.4916880000000 1.0
C      1  0.5539290000000  0.5276380000000  0.4903430000000 1.0
C      1  0.5539190000000  0.4886400000000  0.5218390000000 1.0
C      1  0.4431460000000  0.5233410000000  0.4788040000000 1.0
C      1  0.4467140000000  0.4762690000000  0.4980540000000 1.0
C      1  0.4455080000000  0.5069950000000  0.5053960000000 1.0
C      1  0.4175290000000  0.5688200000000  0.4624120000000 1.0
C      1  0.4172700000000  0.4998200000000  0.5723890000000 1.0
C      1  0.4204850000000  0.4367490000000  0.4582560000000 1.0
C      1  0.5828370000000  0.4365740000000  0.4643030000000 1.0
C      1  0.5804130000000  0.5036870000000  0.5748100000000 1.0
C      1  0.5770160000000  0.5646160000000  0.4560250000000 1.0
C      1  0.4076370000000  0.5491950000000  0.4819120000000 1.0
C      1  0.4083660000000  0.4926570000000  0.5449110000000 1.0
C      1  0.4067440000000  0.4620010000000  0.4660080000000 1.0
C      1  0.5921850000000  0.4563480000000  0.4843490000000 1.0
C      1  0.5919670000000  0.5096750000000  0.5480040000000 1.0
C      1  0.5930310000000  0.5410220000000  0.4637450000000 1.0
C      1  0.4140050000000  0.4823490000000  0.4458430000000 1.0
C      1  0.4173040000000  0.5567110000000  0.5079680000000 1.0
C      1  0.4176760000000  0.4656800000000  0.5402090000000 1.0
C      1  0.5872340000000  0.5207410000000  0.4434650000000 1.0
C      1  0.5827280000000  0.4463590000000  0.5098700000000 1.0
C      1  0.5811480000000  0.5352070000000  0.5389610000000 1.0
C      1  0.5229460000000  0.5918520000000  0.5191080000000 1.0
C      1  0.5252380000000  0.4348020000000  0.5713330000000 1.0
C      1  0.5247370000000  0.4721880000000  0.4104740000000 1.0
C      1  0.4758630000000  0.4077300000000  0.5207250000000 1.0
C      1  0.4749980000000  0.5642710000000  0.5696620000000 1.0
C      1  0.4758070000000  0.5300960000000  0.4095180000000 1.0
C      1  0.5921710000000  0.5322190000000  0.4911400000000 1.0
C      1  0.5918850000000  0.4884560000000  0.5290000000000 1.0
C      1  0.5911160000000  0.4847690000000  0.4778620000000 1.0
C      1  0.4090780000000  0.4697980000000  0.4935850000000 1.0
C      1  0.4126130000000  0.5120960000000  0.5240740000000 1.0
C      1  0.4046790000000  0.5218340000000  0.4741090000000 1.0
C      1  0.4965650000000  0.4322220000000  0.4241190000000 1.0
C      1  0.4940640000000  0.6109620000000  0.4831710000000 1.0
C      1  0.4946250000000  0.4597170000000  0.6019360000000 1.0
C      1  0.5036570000000  0.5700700000000  0.4227290000000 1.0
C      1  0.5050110000000  0.3913610000000  0.4842100000000 1.0
C      1  0.5033090000000  0.5320170000000  0.5974020000000 1.0
C      1  0.5488380000000  0.4344290000000  0.5538850000000 1.0
C      1  0.5493500000000  0.4870430000000  0.4160890000000 1.0
C      1  0.5465240000000  0.5770290000000  0.5266070000000 1.0
C      1  0.4510550000000  0.5672060000000  0.5528450000000 1.0
C      1  0.4521240000000  0.5153340000000  0.4180360000000 1.0
C      1  0.4515880000000  0.4213350000000  0.5295120000000 1.0
C      1  0.4147520000000  0.5397580000000  0.5307850000000 1.0
C      1  0.4147350000000  0.4521130000000  0.5149980000000 1.0
C      1  0.4132980000000  0.5113530000000  0.4493260000000 1.0
C      1  0.5857930000000  0.4614190000000  0.5341770000000 1.0
C      1  0.5846120000000  0.5483110000000  0.5131940000000 1.0
C      1  0.5867070000000  0.4922750000000  0.4502660000000 1.0
C      1  0.4709060000000  0.4458510000000  0.4200200000000 1.0
C      1  0.4760250000000  0.6173780000000  0.5032950000000 1.0
C      1  0.4749430000000  0.4401360000000  0.5989590000000 1.0
C      1  0.5292730000000  0.5575790000000  0.4148730000000 1.0
C      1  0.5237940000000  0.3844010000000  0.5035560000000 1.0
C      1  0.5289760000000  0.5416370000000  0.5869970000000 1.0
C      1  0.4329730000000  0.5274460000000  0.4359260000000 1.0
C      1  0.4321220000000  0.5452080000000  0.5530960000000 1.0
C      1  0.4340500000000  0.4318650000000  0.5086360000000 1.0
C      1  0.5666400000000  0.4764480000000  0.4369550000000 1.0
C      1  0.5664160000000  0.4576600000000  0.5549510000000 1.0
C      1  0.5645870000000  0.5676400000000  0.5060560000000 1.0
C      1  0.5261050000000  0.5302350000000  0.4042230000000 1.0
C      1  0.5255160000000  0.5650160000000  0.5700610000000 1.0
C      1  0.5258070000000  0.3988020000000  0.5271110000000 1.0
C      1  0.4745470000000  0.4722930000000  0.4079780000000 1.0
C      1  0.4756390000000  0.4327080000000  0.5722490000000 1.0
C      1  0.4744800000000  0.6021640000000  0.5264160000000 1.0
C      1  0.4306760000000  0.5266450000000  0.5753850000000 1.0
C      1  0.4342660000000  0.4219730000000  0.4809990000000 1.0
C      1  0.4324300000000  0.5561940000000  0.4396080000000 1.0
C      1  0.5656660000000  0.4773900000000  0.5765390000000 1.0
C      1  0.5633450000000  0.5780060000000  0.4787550000000 1.0
C      1  0.5690380000000  0.4479020000000  0.4401430000000 1.0
C      1  0.5039070000000  0.4696120000000  0.4592090000000 1.0
C      1  0.5065620000000  0.5567940000000  0.4977120000000 1.0
C      1  0.5095170000000  0.4701070000000  0.5515420000000 1.0
C      1  0.4976090000000  0.5284890000000  0.4582930000000 1.0
C      1  0.4924530000000  0.4416750000000  0.4991980000000 1.0
C      1  0.4951510000000  0.5160350000000  0.5507710000000 1.0
C      1  0.4587210000000  0.4096630000000  0.4732670000000 1.0
C      1  0.4552410000000  0.5709290000000  0.4303080000000 1.0
C      1  0.4552830000000  0.5226160000000  0.5905370000000 1.0
C      1  0.5395440000000  0.5916000000000  0.4712760000000 1.0
C      1  0.5444960000000  0.4328900000000  0.4356500000000 1.0
C      1  0.5420650000000  0.4769380000000  0.5920090000000 1.0
C      1  0.4307890000000  0.5822270000000  0.5086090000000 1.0
C      1  0.4318380000000  0.4547080000000  0.5626900000000 1.0
C      1  0.4286990000000  0.4702500000000  0.4239830000000 1.0
C      1  0.5683900000000  0.4212080000000  0.5082750000000 1.0
C      1  0.5704670000000  0.5494650000000  0.5613200000000 1.0
C      1  0.5721580000000  0.5323310000000  0.4209500000000 1.0
C      1  0.5109400000000  0.4963650000000  0.5690830000000 1.0
C      1  0.5042050000000  0.5575320000000  0.4654630000000 1.0
C      1  0.4920590000000  0.4415760000000  0.4674590000000 1.0
C      1  0.4992470000000  0.4785740000000  0.5137990000000 1.0
END
