TITL C-3578208-4450-211 -2.3617710273787e-08 125000 -21.8093223926394 0 0 5 (D(inf)h) n - 1
REM
REM in /home/bkarasulu/work/CARBON/AIRSS/Generating-Clusters/EDIP-Nigel-Params/with-SteepDescent/Higher-Symm/SD-CG/HFTN-CG
REM
REM
REM
REM
REM
REM ./C.cell (12c818d87b63d06a65506943cc24bca4)
REM
REM compiler GCC version 9.2.1 20190827 (Red Hat 9.2.1-1)
REM options -cpp -mtune=generic -march=x86-64 -g -O0 -fpre-include=/usr/include/finclude/math-vector-fortran.h
REM seed -487810368 972188115 -2077022175 1000395440 -236157738 840033869 -1450524273 1151899229 573302237 -1791124596 -449577923 1230888746 -1115148190 -1699369005 -1860110349 110060542 1726144856 -2128137153 -262928747 802852887 1013016100 242919335 -1287286020 1603590541 1770183758 -357439903 1881896158 1066852010 -1839628270 -1267857898 353293506 -1696843525 435229207
REM
CELL 1.54180   50.00000   50.00000   50.00000   90.00000   90.00000   90.00000
LATT -1
SFAC C  
C      1  0.4974900000000  0.4480440000000  0.5009570000000 1.0
C      1  0.4974900000000  0.5263850000000  0.5009570000000 1.0
C      1  0.4974900000000  0.4736150000000  0.5009570000000 1.0
C      1  0.4974900000000  0.5000000000000  0.5009570000000 1.0
C      1  0.4974900000000  0.5519560000000  0.5009570000000 1.0
END
