TITL C-3577091-527-625 3.42652861393421e-07 125000 -1027.56222507544 0 0 166 (C1) n - 1
REM
REM in /home/bkarasulu/work/CARBON/AIRSS/Generating-Clusters/EDIP-Nigel-Params/with-SteepDescent/Higher-Symm/SD-CG/HFTN-CG
REM
REM
REM
REM
REM
REM ./C.cell (12c818d87b63d06a65506943cc24bca4)
REM
REM compiler GCC version 9.2.1 20190827 (Red Hat 9.2.1-1)
REM options -cpp -mtune=generic -march=x86-64 -g -O0 -fpre-include=/usr/include/finclude/math-vector-fortran.h
REM seed -78148463 768147286 -29332559 -564935210 -232447009 1632471786 -2067326323 -581838688 387801501 912983791 63426791 1560821563 798560175 1604868739 873583924 -1312488675 -1015086051 1601391449 600523552 1889160433 -1504256598 614712527 1013671364 1839372667 1927669081 -1655157383 1334757585 2030893747 -303980395 -282602617 -701737156 -459359162 1570731164
REM
CELL 1.54180   50.00000   50.00000   50.00000   90.00000   90.00000   90.00000
LATT -1
SFAC C  
C      1  0.5646270000000  0.5143010000000  0.4359910000000 1.0
C      1  0.5253800000000  0.5166510000000  0.5987370000000 1.0
C      1  0.4082110000000  0.5168050000000  0.4730210000000 1.0
C      1  0.5684790000000  0.4412990000000  0.4802080000000 1.0
C      1  0.4828080000000  0.4461390000000  0.5632340000000 1.0
C      1  0.4517390000000  0.4416180000000  0.4494220000000 1.0
C      1  0.5351490000000  0.5540190000000  0.5690760000000 1.0
C      1  0.4262210000000  0.5505670000000  0.4992700000000 1.0
C      1  0.5392560000000  0.5542880000000  0.4343390000000 1.0
C      1  0.5695400000000  0.5184490000000  0.5767710000000 1.0
C      1  0.4007150000000  0.5183240000000  0.5210000000000 1.0
C      1  0.5309210000000  0.5178010000000  0.4036620000000 1.0
C      1  0.5736580000000  0.4270330000000  0.5053740000000 1.0
C      1  0.4606690000000  0.4330710000000  0.5521580000000 1.0
C      1  0.4743360000000  0.4299610000000  0.4366110000000 1.0
C      1  0.5487440000000  0.5328440000000  0.4202050000000 1.0
C      1  0.5451800000000  0.5334350000000  0.5855670000000 1.0
C      1  0.4044750000000  0.5338020000000  0.4968180000000 1.0
C      1  0.5820130000000  0.4752160000000  0.4471500000000 1.0
C      1  0.5072110000000  0.4763610000000  0.5983290000000 1.0
C      1  0.4154980000000  0.4771320000000  0.4560490000000 1.0
C      1  0.5179660000000  0.5707990000000  0.5539500000000 1.0
C      1  0.4497660000000  0.5640630000000  0.4943320000000 1.0
C      1  0.5237060000000  0.5670990000000  0.4530030000000 1.0
C      1  0.5507990000000  0.4758010000000  0.6044690000000 1.0
C      1  0.3871810000000  0.4770220000000  0.4897430000000 1.0
C      1  0.5655040000000  0.4769900000000  0.4062930000000 1.0
C      1  0.4828850000000  0.3972840000000  0.5303600000000 1.0
C      1  0.4808060000000  0.3939390000000  0.4658240000000 1.0
C      1  0.5355140000000  0.3979090000000  0.4980020000000 1.0
C      1  0.5397890000000  0.4855920000000  0.4921210000000 1.0
C      1  0.4974770000000  0.4942280000000  0.5434510000000 1.0
C      1  0.4772500000000  0.4961130000000  0.4709010000000 1.0
C      1  0.4942350000000  0.4727320000000  0.4192000000000 1.0
C      1  0.5709140000000  0.4721830000000  0.5346220000000 1.0
C      1  0.4372000000000  0.4771590000000  0.5408480000000 1.0
C      1  0.5078070000000  0.6083030000000  0.4703980000000 1.0
C      1  0.5181510000000  0.6075910000000  0.5207700000000 1.0
C      1  0.4707290000000  0.6058510000000  0.5050890000000 1.0
C      1  0.5100400000000  0.4296670000000  0.4042220000000 1.0
C      1  0.5767950000000  0.4282070000000  0.5548300000000 1.0
C      1  0.4161790000000  0.4319180000000  0.5346960000000 1.0
C      1  0.4500840000000  0.4014800000000  0.5094160000000 1.0
C      1  0.5150240000000  0.4043820000000  0.4499860000000 1.0
C      1  0.5361230000000  0.4031830000000  0.5367360000000 1.0
C      1  0.4375130000000  0.5061790000000  0.4088640000000 1.0
C      1  0.6149560000000  0.5027660000000  0.4897570000000 1.0
C      1  0.4513590000000  0.5022230000000  0.6055020000000 1.0
C      1  0.5073660000000  0.4095550000000  0.5404090000000 1.0
C      1  0.4604860000000  0.4068330000000  0.4822130000000 1.0
C      1  0.5282230000000  0.4136300000000  0.4748590000000 1.0
C      1  0.4300080000000  0.4467420000000  0.4950000000000 1.0
C      1  0.5391550000000  0.4484850000000  0.4393240000000 1.0
C      1  0.5323720000000  0.4443010000000  0.5667930000000 1.0
C      1  0.5633060000000  0.5866150000000  0.5369630000000 1.0
C      1  0.4368700000000  0.5831060000000  0.5382140000000 1.0
C      1  0.4984710000000  0.5918490000000  0.4221630000000 1.0
C      1  0.6167200000000  0.5107690000000  0.5164160000000 1.0
C      1  0.4308410000000  0.5128760000000  0.5896560000000 1.0
C      1  0.4581950000000  0.5160570000000  0.3924910000000 1.0
C      1  0.6104660000000  0.4741500000000  0.4845420000000 1.0
C      1  0.4586940000000  0.4743110000000  0.6006580000000 1.0
C      1  0.4350840000000  0.4773250000000  0.4137970000000 1.0
C      1  0.4185970000000  0.5319610000000  0.4487230000000 1.0
C      1  0.5750230000000  0.5263010000000  0.4614360000000 1.0
C      1  0.4982880000000  0.5266800000000  0.5966900000000 1.0
C      1  0.5615650000000  0.4009460000000  0.5078460000000 1.0
C      1  0.4613780000000  0.4054410000000  0.5460500000000 1.0
C      1  0.4783410000000  0.4019340000000  0.4390600000000 1.0
C      1  0.5846430000000  0.5553980000000  0.5413720000000 1.0
C      1  0.4228160000000  0.5557840000000  0.5511380000000 1.0
C      1  0.4964510000000  0.5581120000000  0.4032540000000 1.0
C      1  0.4637810000000  0.5892450000000  0.4571050000000 1.0
C      1  0.5528340000000  0.5959240000000  0.4876200000000 1.0
C      1  0.4827470000000  0.5977330000000  0.5526340000000 1.0
C      1  0.4904330000000  0.5396080000000  0.4598870000000 1.0
C      1  0.5289390000000  0.5537150000000  0.5151750000000 1.0
C      1  0.4631040000000  0.5512520000000  0.5345130000000 1.0
C      1  0.4670970000000  0.4959290000000  0.5418180000000 1.0
C      1  0.4821350000000  0.4921990000000  0.4397600000000 1.0
C      1  0.5620320000000  0.4906010000000  0.5124470000000 1.0
C      1  0.5169650000000  0.5940230000000  0.4449000000000 1.0
C      1  0.5336690000000  0.5902880000000  0.5392690000000 1.0
C      1  0.4498120000000  0.5864340000000  0.5114340000000 1.0
C      1  0.4671490000000  0.5407800000000  0.5624380000000 1.0
C      1  0.4657740000000  0.5322400000000  0.4312140000000 1.0
C      1  0.5556160000000  0.5406780000000  0.5073000000000 1.0
C      1  0.4712220000000  0.5847540000000  0.4292630000000 1.0
C      1  0.5727250000000  0.5896580000000  0.5078690000000 1.0
C      1  0.4557360000000  0.5914810000000  0.5612910000000 1.0
C      1  0.4968530000000  0.5175250000000  0.4801830000000 1.0
C      1  0.5119020000000  0.5303530000000  0.5215570000000 1.0
C      1  0.4882410000000  0.5277330000000  0.5063040000000 1.0
C      1  0.5875300000000  0.4450250000000  0.5748730000000 1.0
C      1  0.3920550000000  0.4465680000000  0.5350730000000 1.0
C      1  0.5223770000000  0.4460590000000  0.3846110000000 1.0
C      1  0.5117860000000  0.5187900000000  0.5481550000000 1.0
C      1  0.4513660000000  0.5087850000000  0.4726880000000 1.0
C      1  0.5298710000000  0.5088780000000  0.4756140000000 1.0
C      1  0.4736140000000  0.4756120000000  0.4925190000000 1.0
C      1  0.5246030000000  0.4603280000000  0.4884240000000 1.0
C      1  0.5106440000000  0.4687710000000  0.5368610000000 1.0
C      1  0.4775570000000  0.5617950000000  0.4799310000000 1.0
C      1  0.5288560000000  0.5668940000000  0.4828930000000 1.0
C      1  0.4913560000000  0.5679780000000  0.5308340000000 1.0
C      1  0.5300570000000  0.4556960000000  0.5949640000000 1.0
C      1  0.4069250000000  0.4568650000000  0.4774120000000 1.0
C      1  0.5667700000000  0.4558130000000  0.4286580000000 1.0
C      1  0.4751620000000  0.5166240000000  0.6088150000000 1.0
C      1  0.4183470000000  0.5213890000000  0.4227650000000 1.0
C      1  0.5991030000000  0.5183620000000  0.4729300000000 1.0
C      1  0.5065960000000  0.4312340000000  0.5598760000000 1.0
C      1  0.4555260000000  0.4359470000000  0.4781050000000 1.0
C      1  0.5399970000000  0.4408430000000  0.4711050000000 1.0
C      1  0.4130600000000  0.4820740000000  0.5589750000000 1.0
C      1  0.4931870000000  0.4827330000000  0.3897500000000 1.0
C      1  0.5980290000000  0.4803190000000  0.5470330000000 1.0
C      1  0.5274540000000  0.6093490000000  0.4929760000000 1.0
C      1  0.4894560000000  0.6115950000000  0.5275340000000 1.0
C      1  0.4793150000000  0.6052610000000  0.4762800000000 1.0
C      1  0.5494240000000  0.4194120000000  0.5598520000000 1.0
C      1  0.4247690000000  0.4198510000000  0.5095300000000 1.0
C      1  0.5270710000000  0.4226930000000  0.4277040000000 1.0
C      1  0.4472130000000  0.5612400000000  0.5715490000000 1.0
C      1  0.4702680000000  0.5581960000000  0.4159390000000 1.0
C      1  0.5795850000000  0.5595060000000  0.5121640000000 1.0
C      1  0.5365610000000  0.4868060000000  0.4033510000000 1.0
C      1  0.5657240000000  0.4865470000000  0.5799820000000 1.0
C      1  0.3996140000000  0.4882520000000  0.5153920000000 1.0
C      1  0.3859070000000  0.4983140000000  0.4697850000000 1.0
C      1  0.5816960000000  0.4989530000000  0.4172420000000 1.0
C      1  0.5346300000000  0.4967530000000  0.6169880000000 1.0
C      1  0.4837400000000  0.4678190000000  0.6153960000000 1.0
C      1  0.4092140000000  0.4712950000000  0.4271140000000 1.0
C      1  0.6100580000000  0.4682930000000  0.4555150000000 1.0
C      1  0.4853640000000  0.5113640000000  0.3863420000000 1.0
C      1  0.6055180000000  0.5084430000000  0.5418440000000 1.0
C      1  0.4138340000000  0.5098940000000  0.5676480000000 1.0
C      1  0.4624120000000  0.5200270000000  0.5207450000000 1.0
C      1  0.5006090000000  0.5162040000000  0.4358490000000 1.0
C      1  0.5594360000000  0.5169180000000  0.5269380000000 1.0
C      1  0.5110120000000  0.4503400000000  0.5132560000000 1.0
C      1  0.4750040000000  0.4628890000000  0.5229440000000 1.0
C      1  0.4818330000000  0.4487320000000  0.4871080000000 1.0
C      1  0.5285320000000  0.5027010000000  0.4451230000000 1.0
C      1  0.5407170000000  0.5085110000000  0.5503590000000 1.0
C      1  0.4388110000000  0.5097000000000  0.4999600000000 1.0
C      1  0.5721820000000  0.4427450000000  0.5298010000000 1.0
C      1  0.4387950000000  0.4479110000000  0.5436250000000 1.0
C      1  0.4866610000000  0.4437860000000  0.4154100000000 1.0
C      1  0.5237230000000  0.4753760000000  0.4292120000000 1.0
C      1  0.5486120000000  0.4779640000000  0.5555210000000 1.0
C      1  0.4286860000000  0.4811730000000  0.5115880000000 1.0
C      1  0.5056160000000  0.5308400000000  0.3953520000000 1.0
C      1  0.5814850000000  0.5258010000000  0.5474310000000 1.0
C      1  0.4156230000000  0.5277660000000  0.5447960000000 1.0
C      1  0.4447470000000  0.4698090000000  0.4434610000000 1.0
C      1  0.5785580000000  0.4693070000000  0.4784340000000 1.0
C      1  0.4807430000000  0.4726450000000  0.5771390000000 1.0
C      1  0.5206680000000  0.4739140000000  0.3814240000000 1.0
C      1  0.5919150000000  0.4726710000000  0.5750690000000 1.0
C      1  0.3909330000000  0.4740570000000  0.5403080000000 1.0
C      1  0.4471550000000  0.5319560000000  0.4552260000000 1.0
C      1  0.5519040000000  0.5300230000000  0.4793270000000 1.0
C      1  0.4949260000000  0.5365040000000  0.5695440000000 1.0
C      1  0.5005190000000  0.5744340000000  0.4980840000000 1.0
END
