TITL C-3578201-9217-70 -9.0937328968898e-07 125000 -150.245766313205 0 0 27 (C2) n - 1
REM
REM in /home/bkarasulu/work/CARBON/AIRSS/Generating-Clusters/EDIP-Nigel-Params/with-SteepDescent/Higher-Symm/SD-CG/HFTN-CG
REM
REM
REM
REM
REM
REM ./C.cell (12c818d87b63d06a65506943cc24bca4)
REM
REM compiler GCC version 9.2.1 20190827 (Red Hat 9.2.1-1)
REM options -cpp -mtune=generic -march=x86-64 -g -O0 -fpre-include=/usr/include/finclude/math-vector-fortran.h
REM seed 379743956 -988235986 156899110 -1749617200 -1331078442 -222602619 -579610946 -149329007 1863256236 434782618 -315477199 -1948216859 477902109 -1175410348 -1730046269 -1331696481 1346178341 -968902663 1969045784 -1536619563 -759937438 -493610908 711934525 -449999973 -2128537409 214691807 -1287233590 2037208581 293582054 -1013885959 1442967564 142236388 248055244
REM
CELL 1.54180   50.00000   50.00000   50.00000   90.00000   90.00000   90.00000
LATT -1
SFAC C  
C      1  0.5375200000000  0.4790050000000  0.5361300000000 1.0
C      1  0.4794920000000  0.4580080000000  0.5411950000000 1.0
C      1  0.4574090000000  0.5195460000000  0.5320530000000 1.0
C      1  0.5243400000000  0.5273670000000  0.5312160000000 1.0
C      1  0.5428940000000  0.5213970000000  0.4567860000000 1.0
C      1  0.4813570000000  0.5434870000000  0.4659210000000 1.0
C      1  0.4735290000000  0.4765570000000  0.4667630000000 1.0
C      1  0.5218900000000  0.4633720000000  0.4618530000000 1.0
C      1  0.5300100000000  0.4978600000000  0.4464310000000 1.0
C      1  0.4962180000000  0.4667500000000  0.4475630000000 1.0
C      1  0.4783730000000  0.5060410000000  0.4557460000000 1.0
C      1  0.5081730000000  0.5383950000000  0.4595680000000 1.0
C      1  0.5341440000000  0.5046790000000  0.5504180000000 1.0
C      1  0.4948550000000  0.5225270000000  0.5422310000000 1.0
C      1  0.4624980000000  0.4927290000000  0.5384090000000 1.0
C      1  0.5030300000000  0.4708900000000  0.5515500000000 1.0
C      1  0.5302700000000  0.5362620000000  0.4792990000000 1.0
C      1  0.5285020000000  0.4780040000000  0.4853980000000 1.0
C      1  0.4827590000000  0.4758270000000  0.4950760000000 1.0
C      1  0.4680190000000  0.5284610000000  0.4853430000000 1.0
C      1  0.5228890000000  0.4723930000000  0.5125850000000 1.0
C      1  0.5250710000000  0.5181350000000  0.5029040000000 1.0
C      1  0.4724370000000  0.5328810000000  0.5126320000000 1.0
C      1  0.4646300000000  0.4706310000000  0.5186800000000 1.0
C      1  0.5056580000000  0.4989370000000  0.5597160000000 1.0
C      1  0.5019630000000  0.4952340000000  0.4382630000000 1.0
C      1  0.4998090000000  0.5010880000000  0.4989900000000 1.0
END
