TITL C-3577090-796-254 1.79066291442101e-06 125000 -335.962377618071 0 0 58 (C3) n - 1
REM
REM in /home/bkarasulu/work/CARBON/AIRSS/Generating-Clusters/EDIP-Nigel-Params/with-SteepDescent/Higher-Symm/SD-CG/HFTN-CG
REM
REM
REM
REM
REM
REM ./C.cell (12c818d87b63d06a65506943cc24bca4)
REM
REM compiler GCC version 9.2.1 20190827 (Red Hat 9.2.1-1)
REM options -cpp -mtune=generic -march=x86-64 -g -O0 -fpre-include=/usr/include/finclude/math-vector-fortran.h
REM seed 1073582353 788016306 -2095086368 2142005432 -1790571277 -264130915 2068722227 -730573959 -1624119501 -1788098543 -14177606 -1528980496 1613021997 -1005048118 1698774728 1819656311 2006918211 -767517972 360851392 -226746529 -1113581504 -1193629936 1210850726 -529534994 -964500457 377988835 660686708 -660150953 -288895057 374113215 -1079629003 -1110470686 -773259546
REM
CELL 1.54180   50.00000   50.00000   50.00000   90.00000   90.00000   90.00000
LATT -1
SFAC C  
C      1  0.5584560000000  0.5014340000000  0.4638600000000 1.0
C      1  0.4400610000000  0.5014310000000  0.4682690000000 1.0
C      1  0.5030770000000  0.5014150000000  0.5685980000000 1.0
C      1  0.4600340000000  0.5020780000000  0.4468270000000 1.0
C      1  0.4745210000000  0.5020570000000  0.5620220000000 1.0
C      1  0.5670390000000  0.5020720000000  0.4918780000000 1.0
C      1  0.4516120000000  0.5580640000000  0.5163820000000 1.0
C      1  0.5389580000000  0.5580620000000  0.5345520000000 1.0
C      1  0.5110210000000  0.5580770000000  0.4498240000000 1.0
C      1  0.4895020000000  0.5374060000000  0.5308790000000 1.0
C      1  0.5325720000000  0.5374140000000  0.4944850000000 1.0
C      1  0.4795190000000  0.5374160000000  0.4753820000000 1.0
C      1  0.4535170000000  0.5503740000000  0.4677530000000 1.0
C      1  0.4958930000000  0.5503590000000  0.5572150000000 1.0
C      1  0.5521810000000  0.5503750000000  0.4757850000000 1.0
C      1  0.5398210000000  0.4540550000000  0.4677030000000 1.0
C      1  0.4527150000000  0.4540500000000  0.4824750000000 1.0
C      1  0.5090610000000  0.4540390000000  0.5505240000000 1.0
C      1  0.5386260000000  0.5454860000000  0.4510080000000 1.0
C      1  0.4388370000000  0.5454770000000  0.4918800000000 1.0
C      1  0.5241280000000  0.5454670000000  0.5578640000000 1.0
C      1  0.4687130000000  0.5293760000000  0.4392380000000 1.0
C      1  0.4636040000000  0.5293550000000  0.5583080000000 1.0
C      1  0.5692760000000  0.5293670000000  0.5031970000000 1.0
C      1  0.5181420000000  0.4782820000000  0.5618980000000 1.0
C      1  0.5451250000000  0.4783020000000  0.4541570000000 1.0
C      1  0.4383280000000  0.4782940000000  0.4846600000000 1.0
C      1  0.4987430000000  0.5333860000000  0.4360880000000 1.0
C      1  0.4458600000000  0.5333670000000  0.5338770000000 1.0
C      1  0.5569890000000  0.5333700000000  0.5307800000000 1.0
C      1  0.5206060000000  0.5602490000000  0.5106100000000 1.0
C      1  0.4994620000000  0.5602540000000  0.4776890000000 1.0
C      1  0.4815230000000  0.5602480000000  0.5124600000000 1.0
C      1  0.4768810000000  0.5129840000000  0.4962000000000 1.0
C      1  0.5088540000000  0.5129790000000  0.5227490000000 1.0
C      1  0.5158590000000  0.5129870000000  0.4817850000000 1.0
C      1  0.4937830000000  0.4408880000000  0.4723370000000 1.0
C      1  0.4797500000000  0.4408790000000  0.5200250000000 1.0
C      1  0.5280650000000  0.4408820000000  0.5083330000000 1.0
C      1  0.4525620000000  0.4366270000000  0.5053320000000 1.0
C      1  0.5289360000000  0.4366220000000  0.5392240000000 1.0
C      1  0.5201000000000  0.4366370000000  0.4561370000000 1.0
C      1  0.5487560000000  0.4857390000000  0.5076890000000 1.0
C      1  0.4828710000000  0.4857470000000  0.4547510000000 1.0
C      1  0.4699680000000  0.4857320000000  0.5382780000000 1.0
C      1  0.4373120000000  0.4487840000000  0.5275610000000 1.0
C      1  0.5558090000000  0.4487840000000  0.5413190000000 1.0
C      1  0.5084760000000  0.4488030000000  0.4318190000000 1.0
C      1  0.4767770000000  0.4836120000000  0.4836570000000 1.0
C      1  0.4980480000000  0.4836040000000  0.5291020000000 1.0
C      1  0.5267690000000  0.4836120000000  0.4879580000000 1.0
C      1  0.4611470000000  0.4584300000000  0.5420750000000 1.0
C      1  0.5564600000000  0.4584370000000  0.5134230000000 1.0
C      1  0.4839900000000  0.4584480000000  0.4452060000000 1.0
C      1  0.5249470000000  0.5169190000000  0.4522360000000 1.0
C      1  0.4467460000000  0.5169080000000  0.5031050000000 1.0
C      1  0.5299010000000  0.5169020000000  0.5453940000000 1.0
C      1  0.5005320000000  0.4525010000000  0.5002340000000 1.0
END
