TITL C-3578209-2550-450 -4.79341380228375e-07 125000 -434.790784019012 0 0 70 (C1) n - 1
REM
REM in /home/bkarasulu/work/CARBON/AIRSS/Generating-Clusters/EDIP-Nigel-Params/with-SteepDescent/Higher-Symm/SD-CG/HFTN-CG
REM
REM
REM
REM
REM
REM ./C.cell (12c818d87b63d06a65506943cc24bca4)
REM
REM compiler GCC version 9.2.1 20190827 (Red Hat 9.2.1-1)
REM options -cpp -mtune=generic -march=x86-64 -g -O0 -fpre-include=/usr/include/finclude/math-vector-fortran.h
REM seed -528390727 -1689808319 121967648 713446015 -1884953237 522562308 -1449859885 2113524998 -2109644537 180858713 -983266945 1571680046 -485360482 2117788373 -1400919509 2077150680 -402916226 -287102847 310423997 -225556181 295570583 -1001277858 1947403685 -116701375 -1698682360 -340808985 -1802633420 -1766215576 -845364791 -1313753296 287660011 1948796489 -1465240491
REM
CELL 1.54180   50.00000   50.00000   50.00000   90.00000   90.00000   90.00000
LATT -1
SFAC C  
C      1  0.5605260000000  0.4845150000000  0.4950580000000 1.0
C      1  0.4509570000000  0.5095200000000  0.5086460000000 1.0
C      1  0.5318110000000  0.4682510000000  0.4269670000000 1.0
C      1  0.4666820000000  0.5333670000000  0.4286640000000 1.0
C      1  0.4933180000000  0.5760680000000  0.5036450000000 1.0
C      1  0.5071510000000  0.4235630000000  0.5005260000000 1.0
C      1  0.5572170000000  0.4709630000000  0.4375880000000 1.0
C      1  0.4424280000000  0.5265810000000  0.4406500000000 1.0
C      1  0.4658130000000  0.4943250000000  0.5304030000000 1.0
C      1  0.5461250000000  0.4988290000000  0.5403100000000 1.0
C      1  0.5117740000000  0.5392840000000  0.5463670000000 1.0
C      1  0.4833790000000  0.4588010000000  0.5499850000000 1.0
C      1  0.4663480000000  0.5536660000000  0.5568970000000 1.0
C      1  0.5304850000000  0.4528470000000  0.5491740000000 1.0
C      1  0.4395180000000  0.4642950000000  0.4913250000000 1.0
C      1  0.5594770000000  0.5355610000000  0.4921970000000 1.0
C      1  0.4516890000000  0.4483130000000  0.5125820000000 1.0
C      1  0.5486040000000  0.5531830000000  0.5130630000000 1.0
C      1  0.4381540000000  0.4604640000000  0.5356140000000 1.0
C      1  0.5593900000000  0.5428410000000  0.5388210000000 1.0
C      1  0.4464210000000  0.5328080000000  0.5520140000000 1.0
C      1  0.5522640000000  0.4699940000000  0.5406750000000 1.0
C      1  0.4937480000000  0.4877910000000  0.4481720000000 1.0
C      1  0.5051040000000  0.5135480000000  0.4489270000000 1.0
C      1  0.4418920000000  0.5391700000000  0.4653600000000 1.0
C      1  0.5617230000000  0.4517680000000  0.4572530000000 1.0
C      1  0.5265590000000  0.4808520000000  0.4798450000000 1.0
C      1  0.4728150000000  0.5164710000000  0.4850160000000 1.0
C      1  0.4723680000000  0.5706370000000  0.5242890000000 1.0
C      1  0.5285930000000  0.4294750000000  0.5202200000000 1.0
C      1  0.5212000000000  0.5119120000000  0.4738890000000 1.0
C      1  0.4791520000000  0.4874960000000  0.4744590000000 1.0
C      1  0.4186590000000  0.4797300000000  0.5277400000000 1.0
C      1  0.5692920000000  0.5151350000000  0.5323380000000 1.0
C      1  0.5431690000000  0.5323800000000  0.4678090000000 1.0
C      1  0.4571280000000  0.4671320000000  0.4678720000000 1.0
C      1  0.4859200000000  0.5123850000000  0.5721770000000 1.0
C      1  0.5095480000000  0.4959020000000  0.5655270000000 1.0
C      1  0.5709030000000  0.5110200000000  0.5032650000000 1.0
C      1  0.4291700000000  0.4891630000000  0.5030660000000 1.0
C      1  0.4565170000000  0.4677240000000  0.5574010000000 1.0
C      1  0.5378980000000  0.5384310000000  0.5601010000000 1.0
C      1  0.4552460000000  0.5567640000000  0.4826550000000 1.0
C      1  0.5449070000000  0.4407210000000  0.4769380000000 1.0
C      1  0.4973060000000  0.5604240000000  0.4567270000000 1.0
C      1  0.5014390000000  0.4401250000000  0.4547070000000 1.0
C      1  0.5152900000000  0.5549850000000  0.4971940000000 1.0
C      1  0.4848350000000  0.4442020000000  0.4969090000000 1.0
C      1  0.4425050000000  0.4746950000000  0.4443080000000 1.0
C      1  0.5589650000000  0.5228230000000  0.4456670000000 1.0
C      1  0.5148370000000  0.4674050000000  0.4507550000000 1.0
C      1  0.4844600000000  0.5337660000000  0.4518570000000 1.0
C      1  0.5254090000000  0.5589820000000  0.4678350000000 1.0
C      1  0.4744150000000  0.4411510000000  0.4679060000000 1.0
C      1  0.5656530000000  0.4972040000000  0.4408800000000 1.0
C      1  0.4351990000000  0.4999400000000  0.4390340000000 1.0
C      1  0.5640740000000  0.4629050000000  0.5146500000000 1.0
C      1  0.4393170000000  0.5337700000000  0.5229690000000 1.0
C      1  0.4795000000000  0.5726440000000  0.4771560000000 1.0
C      1  0.5198510000000  0.4260900000000  0.4732130000000 1.0
C      1  0.4598590000000  0.5061270000000  0.5589460000000 1.0
C      1  0.5365290000000  0.5085000000000  0.5666990000000 1.0
C      1  0.4976490000000  0.4733680000000  0.4963110000000 1.0
C      1  0.5044390000000  0.5248100000000  0.4968740000000 1.0
C      1  0.5129180000000  0.5119700000000  0.5247620000000 1.0
C      1  0.4947270000000  0.4862060000000  0.5249340000000 1.0
C      1  0.4491760000000  0.5588550000000  0.5108450000000 1.0
C      1  0.5520910000000  0.4380030000000  0.5047900000000 1.0
C      1  0.5079270000000  0.4666100000000  0.5616690000000 1.0
C      1  0.4905900000000  0.5407910000000  0.5669130000000 1.0
END
