TITL C-3577084-3642-746 -1.38257633215415e-06 125000 -611.99280030525 0 0 97 (C1) n - 1
REM
REM in /home/bkarasulu/work/CARBON/AIRSS/Generating-Clusters/EDIP-Nigel-Params/with-SteepDescent/Higher-Symm/SD-CG/HFTN-CG
REM
REM
REM
REM
REM
REM ./C.cell (12c818d87b63d06a65506943cc24bca4)
REM
REM compiler GCC version 9.2.1 20190827 (Red Hat 9.2.1-1)
REM options -cpp -mtune=generic -march=x86-64 -g -O0 -fpre-include=/usr/include/finclude/math-vector-fortran.h
REM seed -1928451558 1045272997 -1400366682 -849669272 1827562237 1979803378 675452299 1614409580 1410136660 -648712121 -19991614 1988357238 1580155051 522326255 -345145268 -1013778357 -1333644848 1968290613 691556455 575786966 -1527758128 1631561434 302695971 1122457084 692521364 -945405117 105632220 25411347 1476279568 1619773490 -1973409601 -1401174418 -1240856745
REM
CELL 1.54180   50.00000   50.00000   50.00000   90.00000   90.00000   90.00000
LATT -1
SFAC C  
C      1  0.4612520000000  0.5808850000000  0.5182780000000 1.0
C      1  0.5671770000000  0.5350820000000  0.5250600000000 1.0
C      1  0.5476630000000  0.4648180000000  0.4365010000000 1.0
C      1  0.5610570000000  0.5588140000000  0.4791570000000 1.0
C      1  0.5529150000000  0.4878450000000  0.4557200000000 1.0
C      1  0.5156210000000  0.4198930000000  0.5383780000000 1.0
C      1  0.4489440000000  0.5466330000000  0.5308540000000 1.0
C      1  0.4541310000000  0.4414950000000  0.4488420000000 1.0
C      1  0.5215820000000  0.4815900000000  0.5844190000000 1.0
C      1  0.4171130000000  0.4769830000000  0.5235370000000 1.0
C      1  0.4450870000000  0.5196930000000  0.5440470000000 1.0
C      1  0.4196940000000  0.5221560000000  0.5008200000000 1.0
C      1  0.4377960000000  0.5637690000000  0.4863810000000 1.0
C      1  0.5094240000000  0.4665650000000  0.4703590000000 1.0
C      1  0.5777380000000  0.4829700000000  0.5245570000000 1.0
C      1  0.5122290000000  0.5498150000000  0.4408240000000 1.0
C      1  0.4376850000000  0.4812600000000  0.4231900000000 1.0
C      1  0.4608900000000  0.4967540000000  0.4984570000000 1.0
C      1  0.4375300000000  0.5078230000000  0.4811860000000 1.0
C      1  0.4829540000000  0.4406040000000  0.4379580000000 1.0
C      1  0.5167690000000  0.5433290000000  0.4942870000000 1.0
C      1  0.4795400000000  0.5686330000000  0.4713690000000 1.0
C      1  0.5415000000000  0.4928100000000  0.5651220000000 1.0
C      1  0.4410380000000  0.4755790000000  0.5418210000000 1.0
C      1  0.5394370000000  0.4454610000000  0.5019590000000 1.0
C      1  0.4242170000000  0.4809740000000  0.4718210000000 1.0
C      1  0.4533790000000  0.4505820000000  0.5489050000000 1.0
C      1  0.4745780000000  0.5885490000000  0.4918360000000 1.0
C      1  0.5459380000000  0.5391300000000  0.5464010000000 1.0
C      1  0.5279690000000  0.5025560000000  0.4178800000000 1.0
C      1  0.5226160000000  0.4387050000000  0.4680940000000 1.0
C      1  0.4930350000000  0.4280390000000  0.5010650000000 1.0
C      1  0.4479500000000  0.4463590000000  0.4979500000000 1.0
C      1  0.4520350000000  0.5265140000000  0.4588460000000 1.0
C      1  0.5533520000000  0.4467370000000  0.5552230000000 1.0
C      1  0.4596170000000  0.4963150000000  0.5292890000000 1.0
C      1  0.5271380000000  0.5220260000000  0.5153340000000 1.0
C      1  0.4535570000000  0.4266830000000  0.4746640000000 1.0
C      1  0.5062460000000  0.5184080000000  0.4086670000000 1.0
C      1  0.5226120000000  0.5297600000000  0.4607620000000 1.0
C      1  0.5254330000000  0.4407530000000  0.5559600000000 1.0
C      1  0.4297660000000  0.5484870000000  0.5082850000000 1.0
C      1  0.4810450000000  0.4721000000000  0.5627520000000 1.0
C      1  0.5796990000000  0.4870160000000  0.4717130000000 1.0
C      1  0.4539770000000  0.5556310000000  0.4648740000000 1.0
C      1  0.4987690000000  0.5095260000000  0.4663280000000 1.0
C      1  0.5072010000000  0.4585240000000  0.5721940000000 1.0
C      1  0.5464220000000  0.4388370000000  0.4503240000000 1.0
C      1  0.5304230000000  0.4887760000000  0.4755870000000 1.0
C      1  0.4601460000000  0.4873370000000  0.4085000000000 1.0
C      1  0.5677900000000  0.4423950000000  0.4927510000000 1.0
C      1  0.4748560000000  0.4891800000000  0.4335290000000 1.0
C      1  0.5009650000000  0.5633170000000  0.5468260000000 1.0
C      1  0.5332380000000  0.4715170000000  0.5189540000000 1.0
C      1  0.5132590000000  0.5307750000000  0.5836780000000 1.0
C      1  0.5229630000000  0.5747000000000  0.4985930000000 1.0
C      1  0.4989990000000  0.4224130000000  0.4554080000000 1.0
C      1  0.4662770000000  0.4684760000000  0.4918850000000 1.0
C      1  0.5223930000000  0.4730490000000  0.4224110000000 1.0
C      1  0.4886670000000  0.5387900000000  0.5025780000000 1.0
C      1  0.4927620000000  0.4592310000000  0.4961190000000 1.0
C      1  0.4851600000000  0.5121600000000  0.4922030000000 1.0
C      1  0.5396710000000  0.4968790000000  0.5035190000000 1.0
C      1  0.4942550000000  0.5531450000000  0.5757200000000 1.0
C      1  0.5433800000000  0.5767090000000  0.5198560000000 1.0
C      1  0.5826080000000  0.5137570000000  0.4828090000000 1.0
C      1  0.5691690000000  0.4335920000000  0.4660150000000 1.0
C      1  0.4143640000000  0.5064830000000  0.5241580000000 1.0
C      1  0.4873050000000  0.5396050000000  0.5323380000000 1.0
C      1  0.4547320000000  0.4337880000000  0.5257360000000 1.0
C      1  0.4968240000000  0.4679340000000  0.4398940000000 1.0
C      1  0.4886440000000  0.4891540000000  0.5379940000000 1.0
C      1  0.4678560000000  0.5447900000000  0.5805570000000 1.0
C      1  0.4916170000000  0.5349090000000  0.4258880000000 1.0
C      1  0.5319250000000  0.5647170000000  0.5439550000000 1.0
C      1  0.5368360000000  0.5761310000000  0.4716090000000 1.0
C      1  0.5653900000000  0.5601910000000  0.5087250000000 1.0
C      1  0.4780270000000  0.5162870000000  0.4455350000000 1.0
C      1  0.4809720000000  0.4141240000000  0.4774440000000 1.0
C      1  0.5003370000000  0.5945850000000  0.5064130000000 1.0
C      1  0.5016260000000  0.5037190000000  0.5928580000000 1.0
C      1  0.4870600000000  0.5873610000000  0.5340920000000 1.0
C      1  0.5056700000000  0.5156320000000  0.5380370000000 1.0
C      1  0.4585220000000  0.5199360000000  0.5715400000000 1.0
C      1  0.5218180000000  0.4217540000000  0.5089790000000 1.0
C      1  0.4392210000000  0.4681930000000  0.4486410000000 1.0
C      1  0.4794450000000  0.4196730000000  0.5257210000000 1.0
C      1  0.5038240000000  0.4712810000000  0.5203910000000 1.0
C      1  0.5526370000000  0.4734870000000  0.5434130000000 1.0
C      1  0.5031180000000  0.5731140000000  0.4549480000000 1.0
C      1  0.5822520000000  0.4680150000000  0.4966480000000 1.0
C      1  0.5435270000000  0.5134790000000  0.4417830000000 1.0
C      1  0.4753180000000  0.4965480000000  0.5803400000000 1.0
C      1  0.5275090000000  0.5189350000000  0.5596840000000 1.0
C      1  0.5690890000000  0.5086180000000  0.5093790000000 1.0
C      1  0.4223280000000  0.4626790000000  0.4962670000000 1.0
C      1  0.5719070000000  0.5352100000000  0.4678410000000 1.0
END
