TITL C-3578196-9646-384 1.01224882507119e-06 125000 -106.977802518784 0 0 19 (C1) n - 1
REM
REM in /home/bkarasulu/work/CARBON/AIRSS/Generating-Clusters/EDIP-Nigel-Params/with-SteepDescent/Higher-Symm/SD-CG/HFTN-CG
REM
REM
REM
REM
REM
REM ./C.cell (12c818d87b63d06a65506943cc24bca4)
REM
REM compiler GCC version 9.2.1 20190827 (Red Hat 9.2.1-1)
REM options -cpp -mtune=generic -march=x86-64 -g -O0 -fpre-include=/usr/include/finclude/math-vector-fortran.h
REM seed -876484836 -2146622081 835487984 -1698834827 -1207919145 -993116108 -1699778654 904505772 536830650 1636917968 487981820 -1802483820 935169601 -1278871056 -829412151 1814621108 -2035709766 1033560609 -2096761065 -1326148682 -695192937 -591461394 1884207262 -1883335804 1330360000 2075494868 -1095069431 -398875479 -1569306972 1423781667 201715966 242462826 -37720571
REM
CELL 1.54180   50.00000   50.00000   50.00000   90.00000   90.00000   90.00000
LATT -1
SFAC C  
C      1  0.5185040000000  0.4867730000000  0.4868180000000 1.0
C      1  0.4901220000000  0.5196120000000  0.5487060000000 1.0
C      1  0.5727950000000  0.4436070000000  0.4809640000000 1.0
C      1  0.5103020000000  0.5033360000000  0.5339690000000 1.0
C      1  0.4475920000000  0.5031490000000  0.5657790000000 1.0
C      1  0.5528340000000  0.4494980000000  0.5001870000000 1.0
C      1  0.5037400000000  0.4982980000000  0.4636520000000 1.0
C      1  0.5541080000000  0.4560520000000  0.4636850000000 1.0
C      1  0.4553830000000  0.4987650000000  0.5187040000000 1.0
C      1  0.4884050000000  0.5442630000000  0.4760040000000 1.0
C      1  0.4621090000000  0.5092910000000  0.5443270000000 1.0
C      1  0.4771980000000  0.5054810000000  0.5009270000000 1.0
C      1  0.5319950000000  0.4614860000000  0.4827510000000 1.0
C      1  0.5011750000000  0.4904430000000  0.5100030000000 1.0
C      1  0.4980660000000  0.5395770000000  0.5278200000000 1.0
C      1  0.4699960000000  0.5274700000000  0.4592350000000 1.0
C      1  0.4827320000000  0.5347270000000  0.5038560000000 1.0
C      1  0.4742660000000  0.5008830000000  0.4708780000000 1.0
C      1  0.5086790000000  0.5272920000000  0.4617350000000 1.0
END
