TITL C-3577079-311-757 -4.99214296601633e-06 125000 -556.591314405938 0 0 89 (C1) n - 1
REM
REM in /home/bkarasulu/work/CARBON/AIRSS/Generating-Clusters/EDIP-Nigel-Params/with-SteepDescent/Higher-Symm/SD-CG/HFTN-CG
REM
REM
REM
REM
REM
REM ./C.cell (12c818d87b63d06a65506943cc24bca4)
REM
REM compiler GCC version 9.2.1 20190827 (Red Hat 9.2.1-1)
REM options -cpp -mtune=generic -march=x86-64 -g -O0 -fpre-include=/usr/include/finclude/math-vector-fortran.h
REM seed 649075089 -492906413 -1674875066 -2124106773 -1183416330 -526110502 127427534 469796938 2022767854 651064862 1227125602 -1914435359 -809118333 -1138292321 -1071025430 249938329 -926572748 1159081837 2139667583 1692042681 365560853 -880012383 -128979705 -1949523684 2090655707 864158101 1104085600 -920931344 1138918509 2006094461 1148227278 -1359123469 1887460069
REM
CELL 1.54180   50.00000   50.00000   50.00000   90.00000   90.00000   90.00000
LATT -1
SFAC C  
C      1  0.5253060000000  0.4229450000000  0.5462310000000 1.0
C      1  0.5235680000000  0.4272730000000  0.4364860000000 1.0
C      1  0.5298570000000  0.5336000000000  0.4145690000000 1.0
C      1  0.5272610000000  0.5948300000000  0.5073460000000 1.0
C      1  0.5235680000000  0.5232140000000  0.5928160000000 1.0
C      1  0.4082880000000  0.4972170000000  0.4712860000000 1.0
C      1  0.4088190000000  0.5244370000000  0.4847650000000 1.0
C      1  0.4066070000000  0.5181330000000  0.5141260000000 1.0
C      1  0.4031950000000  0.4753190000000  0.5374520000000 1.0
C      1  0.3959500000000  0.4789460000000  0.4888130000000 1.0
C      1  0.5713040000000  0.5058730000000  0.4613510000000 1.0
C      1  0.5671610000000  0.5399580000000  0.4964620000000 1.0
C      1  0.5656400000000  0.5139470000000  0.5352660000000 1.0
C      1  0.5706790000000  0.4667610000000  0.5312290000000 1.0
C      1  0.5785450000000  0.4642390000000  0.4821660000000 1.0
C      1  0.4488070000000  0.5345680000000  0.5427570000000 1.0
C      1  0.4479660000000  0.4631740000000  0.5541990000000 1.0
C      1  0.4497060000000  0.4495800000000  0.4823090000000 1.0
C      1  0.4521190000000  0.4991730000000  0.4422200000000 1.0
C      1  0.4538100000000  0.5554390000000  0.4756290000000 1.0
C      1  0.5231190000000  0.4532180000000  0.4264490000000 1.0
C      1  0.5289580000000  0.5523170000000  0.4350140000000 1.0
C      1  0.5245140000000  0.5768660000000  0.5287140000000 1.0
C      1  0.5228500000000  0.4980220000000  0.5804810000000 1.0
C      1  0.5234300000000  0.4332070000000  0.5203410000000 1.0
C      1  0.5478910000000  0.5612790000000  0.5373660000000 1.0
C      1  0.5474480000000  0.4828230000000  0.5730810000000 1.0
C      1  0.5472280000000  0.4327580000000  0.5036860000000 1.0
C      1  0.5477190000000  0.4695510000000  0.4292010000000 1.0
C      1  0.5523380000000  0.5541500000000  0.4526790000000 1.0
C      1  0.4876560000000  0.5057650000000  0.4750520000000 1.0
C      1  0.4895350000000  0.5253240000000  0.4983940000000 1.0
C      1  0.4787590000000  0.5071430000000  0.5233820000000 1.0
C      1  0.4954460000000  0.4810900000000  0.5205730000000 1.0
C      1  0.4906630000000  0.4777280000000  0.4881320000000 1.0
C      1  0.4500750000000  0.4336560000000  0.5055680000000 1.0
C      1  0.4523470000000  0.4732750000000  0.4325510000000 1.0
C      1  0.4584290000000  0.5558520000000  0.4482840000000 1.0
C      1  0.4529550000000  0.5605810000000  0.5336700000000 1.0
C      1  0.4504700000000  0.4851730000000  0.5713600000000 1.0
C      1  0.4363400000000  0.5342230000000  0.4821180000000 1.0
C      1  0.4355540000000  0.5168180000000  0.5226410000000 1.0
C      1  0.4297140000000  0.4677230000000  0.5318950000000 1.0
C      1  0.4551540000000  0.4789340000000  0.4886000000000 1.0
C      1  0.4397350000000  0.4982770000000  0.4691180000000 1.0
C      1  0.5044960000000  0.5526470000000  0.4506500000000 1.0
C      1  0.4996820000000  0.5623340000000  0.5337930000000 1.0
C      1  0.4971140000000  0.4846170000000  0.5759660000000 1.0
C      1  0.4979680000000  0.4305060000000  0.5064250000000 1.0
C      1  0.4997830000000  0.4685570000000  0.4336670000000 1.0
C      1  0.4755680000000  0.5687430000000  0.5190400000000 1.0
C      1  0.4730710000000  0.5015050000000  0.5733710000000 1.0
C      1  0.4734440000000  0.4356830000000  0.5210310000000 1.0
C      1  0.4737330000000  0.4562230000000  0.4386540000000 1.0
C      1  0.4804280000000  0.5410810000000  0.4392370000000 1.0
C      1  0.4974160000000  0.4605850000000  0.5595030000000 1.0
C      1  0.4973570000000  0.4353540000000  0.4777760000000 1.0
C      1  0.4998520000000  0.4964550000000  0.4274300000000 1.0
C      1  0.5011720000000  0.5680880000000  0.4749200000000 1.0
C      1  0.4973190000000  0.5429960000000  0.5550240000000 1.0
C      1  0.5684260000000  0.4524110000000  0.5068790000000 1.0
C      1  0.5526270000000  0.4798110000000  0.4584320000000 1.0
C      1  0.5556200000000  0.5296690000000  0.4718720000000 1.0
C      1  0.5512410000000  0.5355610000000  0.5203710000000 1.0
C      1  0.5590790000000  0.4877910000000  0.5460190000000 1.0
C      1  0.5274430000000  0.4870920000000  0.4754850000000 1.0
C      1  0.5297110000000  0.5168440000000  0.4813780000000 1.0
C      1  0.5233520000000  0.5225910000000  0.5103650000000 1.0
C      1  0.5216980000000  0.4955170000000  0.5239180000000 1.0
C      1  0.5299940000000  0.4734390000000  0.5033800000000 1.0
C      1  0.5437750000000  0.5555640000000  0.5644200000000 1.0
C      1  0.5422000000000  0.4554100000000  0.5764650000000 1.0
C      1  0.5429080000000  0.4227390000000  0.4782240000000 1.0
C      1  0.5465410000000  0.4900220000000  0.4101520000000 1.0
C      1  0.5484930000000  0.5775350000000  0.4678740000000 1.0
C      1  0.4753730000000  0.5221770000000  0.5510590000000 1.0
C      1  0.4734950000000  0.4522990000000  0.5451110000000 1.0
C      1  0.4717460000000  0.4407700000000  0.4640360000000 1.0
C      1  0.4798200000000  0.5111360000000  0.4451400000000 1.0
C      1  0.4791790000000  0.5558590000000  0.4919410000000 1.0
C      1  0.5260060000000  0.5796060000000  0.4843420000000 1.0
C      1  0.5210300000000  0.5414060000000  0.5719100000000 1.0
C      1  0.5205570000000  0.4439340000000  0.5633290000000 1.0
C      1  0.5197320000000  0.4236570000000  0.4636120000000 1.0
C      1  0.5256270000000  0.5066310000000  0.4179950000000 1.0
C      1  0.5851550000000  0.4928380000000  0.4841480000000 1.0
C      1  0.3954560000000  0.4903340000000  0.5147330000000 1.0
C      1  0.4476810000000  0.4885850000000  0.5179980000000 1.0
C      1  0.5595920000000  0.4952330000000  0.5027880000000 1.0
END
