TITL C-3577079-311-186 -8.47893538265208e-07 125000 -545.020508502276 0 0 88 (C1) n - 1
REM
REM in /home/bkarasulu/work/CARBON/AIRSS/Generating-Clusters/EDIP-Nigel-Params/with-SteepDescent/Higher-Symm/SD-CG/HFTN-CG
REM
REM
REM
REM
REM
REM ./C.cell (12c818d87b63d06a65506943cc24bca4)
REM
REM compiler GCC version 9.2.1 20190827 (Red Hat 9.2.1-1)
REM options -cpp -mtune=generic -march=x86-64 -g -O0 -fpre-include=/usr/include/finclude/math-vector-fortran.h
REM seed 781886138 -1362008373 -1536411112 1411366782 1202660256 -1528363178 90710453 722838425 2135165806 -1172100599 -230085086 1894465455 -1862233526 -533494930 -1545565047 1076723153 1725435393 -1022824877 -60506810 -588691917 1933483029 1929879536 1819309468 -1909930440 -1602097310 1095098564 386353384 -625330012 -1742785470 958749427 -1673709482 -1524145144 -75435721
REM
CELL 1.54180   50.00000   50.00000   50.00000   90.00000   90.00000   90.00000
LATT -1
SFAC C  
C      1  0.5658290000000  0.4458540000000  0.5125770000000 1.0
C      1  0.5664070000000  0.5532070000000  0.5130220000000 1.0
C      1  0.5421540000000  0.4869960000000  0.4935800000000 1.0
C      1  0.5396540000000  0.5150570000000  0.4918670000000 1.0
C      1  0.4433010000000  0.4854490000000  0.5489860000000 1.0
C      1  0.4414710000000  0.5149410000000  0.5498090000000 1.0
C      1  0.4860810000000  0.5155310000000  0.5358300000000 1.0
C      1  0.4844790000000  0.4817370000000  0.5325170000000 1.0
C      1  0.5399530000000  0.4344470000000  0.5069040000000 1.0
C      1  0.5409240000000  0.5659650000000  0.5077420000000 1.0
C      1  0.5495800000000  0.5470570000000  0.5619140000000 1.0
C      1  0.5490390000000  0.4514280000000  0.5612600000000 1.0
C      1  0.4659650000000  0.5101380000000  0.5121970000000 1.0
C      1  0.4613100000000  0.4781420000000  0.5101320000000 1.0
C      1  0.4440070000000  0.5174960000000  0.4271240000000 1.0
C      1  0.4425320000000  0.4870320000000  0.4295050000000 1.0
C      1  0.4761750000000  0.5536070000000  0.5559050000000 1.0
C      1  0.4742780000000  0.4466570000000  0.5571930000000 1.0
C      1  0.5177940000000  0.4405840000000  0.5256920000000 1.0
C      1  0.5187080000000  0.5601550000000  0.5269440000000 1.0
C      1  0.5265560000000  0.5655370000000  0.5551220000000 1.0
C      1  0.5251060000000  0.4345650000000  0.5539180000000 1.0
C      1  0.5015420000000  0.4427480000000  0.5708060000000 1.0
C      1  0.5023220000000  0.5572490000000  0.5709110000000 1.0
C      1  0.4311330000000  0.4732940000000  0.4787310000000 1.0
C      1  0.4299390000000  0.5271830000000  0.4758610000000 1.0
C      1  0.4933190000000  0.4267600000000  0.5168190000000 1.0
C      1  0.4949750000000  0.5760870000000  0.5177500000000 1.0
C      1  0.4186220000000  0.4853180000000  0.5020320000000 1.0
C      1  0.4206880000000  0.5147790000000  0.5014590000000 1.0
C      1  0.5109320000000  0.5223240000000  0.4849570000000 1.0
C      1  0.5131780000000  0.4796630000000  0.4871270000000 1.0
C      1  0.5655990000000  0.5390250000000  0.5382490000000 1.0
C      1  0.5644800000000  0.4604710000000  0.5375620000000 1.0
C      1  0.4719440000000  0.5626210000000  0.5284280000000 1.0
C      1  0.4700840000000  0.4397960000000  0.5287400000000 1.0
C      1  0.4710000000000  0.4504470000000  0.4439770000000 1.0
C      1  0.4701430000000  0.5553980000000  0.4389080000000 1.0
C      1  0.4689610000000  0.4776710000000  0.4388170000000 1.0
C      1  0.4692830000000  0.5274820000000  0.4367870000000 1.0
C      1  0.4945580000000  0.4877150000000  0.4299300000000 1.0
C      1  0.4945490000000  0.5160570000000  0.4279410000000 1.0
C      1  0.5662930000000  0.5165170000000  0.4471610000000 1.0
C      1  0.5662620000000  0.4853630000000  0.4485150000000 1.0
C      1  0.5348460000000  0.4845600000000  0.5369040000000 1.0
C      1  0.5358240000000  0.5151310000000  0.5358350000000 1.0
C      1  0.5667680000000  0.5197510000000  0.4783300000000 1.0
C      1  0.5685200000000  0.4810580000000  0.4797520000000 1.0
C      1  0.4492080000000  0.5527920000000  0.5123670000000 1.0
C      1  0.4429550000000  0.4439270000000  0.5156720000000 1.0
C      1  0.4636720000000  0.4371410000000  0.4678350000000 1.0
C      1  0.4599090000000  0.5688020000000  0.4623910000000 1.0
C      1  0.4831940000000  0.4149360000000  0.4675470000000 1.0
C      1  0.4840930000000  0.5864060000000  0.4672870000000 1.0
C      1  0.5027550000000  0.4199770000000  0.4453900000000 1.0
C      1  0.5043020000000  0.5818670000000  0.4454340000000 1.0
C      1  0.5115940000000  0.4712290000000  0.5213090000000 1.0
C      1  0.5116430000000  0.5288910000000  0.5225430000000 1.0
C      1  0.5464340000000  0.4422520000000  0.4402350000000 1.0
C      1  0.5464930000000  0.5590350000000  0.4385200000000 1.0
C      1  0.5801100000000  0.5424960000000  0.4908070000000 1.0
C      1  0.5798440000000  0.4563970000000  0.4905050000000 1.0
C      1  0.5004420000000  0.5777380000000  0.4895450000000 1.0
C      1  0.5011690000000  0.4181280000000  0.4899150000000 1.0
C      1  0.5434210000000  0.5313120000000  0.4350310000000 1.0
C      1  0.5433530000000  0.4700140000000  0.4367200000000 1.0
C      1  0.5089890000000  0.4683790000000  0.5834570000000 1.0
C      1  0.5091480000000  0.5309450000000  0.5832310000000 1.0
C      1  0.4407970000000  0.5248620000000  0.5211640000000 1.0
C      1  0.4278740000000  0.4697920000000  0.5271230000000 1.0
C      1  0.4864520000000  0.4853130000000  0.5760580000000 1.0
C      1  0.4852630000000  0.5136090000000  0.5798620000000 1.0
C      1  0.5355570000000  0.4745330000000  0.5733830000000 1.0
C      1  0.5353510000000  0.5235930000000  0.5726190000000 1.0
C      1  0.5287490000000  0.4232310000000  0.4826200000000 1.0
C      1  0.5279280000000  0.5726700000000  0.4824770000000 1.0
C      1  0.5014470000000  0.5466480000000  0.4592570000000 1.0
C      1  0.5040720000000  0.4535180000000  0.4633970000000 1.0
C      1  0.4217180000000  0.4825330000000  0.4525650000000 1.0
C      1  0.4217520000000  0.5140280000000  0.4492990000000 1.0
C      1  0.4620620000000  0.4713980000000  0.5677000000000 1.0
C      1  0.4640740000000  0.5283860000000  0.5652340000000 1.0
C      1  0.5167040000000  0.4783150000000  0.4479930000000 1.0
C      1  0.5169920000000  0.5222430000000  0.4463640000000 1.0
C      1  0.4483150000000  0.5500170000000  0.4827030000000 1.0
C      1  0.4423930000000  0.4470820000000  0.4854290000000 1.0
C      1  0.5316800000000  0.5771620000000  0.4538790000000 1.0
C      1  0.5310230000000  0.4223530000000  0.4531090000000 1.0
END
