TITL C-3577086-586-171 -4.58443354384208e-08 125000 -451.62133260122 0 0 75 (C1) n - 1
REM
REM in /home/bkarasulu/work/CARBON/AIRSS/Generating-Clusters/EDIP-Nigel-Params/with-SteepDescent/Higher-Symm/SD-CG/HFTN-CG
REM
REM
REM
REM
REM
REM ./C.cell (12c818d87b63d06a65506943cc24bca4)
REM
REM compiler GCC version 9.2.1 20190827 (Red Hat 9.2.1-1)
REM options -cpp -mtune=generic -march=x86-64 -g -O0 -fpre-include=/usr/include/finclude/math-vector-fortran.h
REM seed -324187788 1257117160 1884536087 -1395007888 -1791434513 1161743311 492500408 1353446969 247470835 308864976 743871439 -573769875 1278843969 932205112 -590069872 110292828 -837332138 1261911263 580812387 419652818 1993092370 460012553 1495276783 1499987212 -1908430916 1772488064 -1918906252 192133346 260413317 -481995863 178382661 -1899213862 548106559
REM
CELL 1.54180   50.00000   50.00000   50.00000   90.00000   90.00000   90.00000
LATT -1
SFAC C  
C      1  0.5335120000000  0.5678320000000  0.5038590000000 1.0
C      1  0.5193550000000  0.4344980000000  0.5261920000000 1.0
C      1  0.4981670000000  0.5687800000000  0.5354770000000 1.0
C      1  0.4744340000000  0.4338220000000  0.5140870000000 1.0
C      1  0.4694040000000  0.5663280000000  0.4968080000000 1.0
C      1  0.4827370000000  0.4375700000000  0.4706630000000 1.0
C      1  0.5047160000000  0.5676570000000  0.4662680000000 1.0
C      1  0.5306840000000  0.4353330000000  0.4808270000000 1.0
C      1  0.5491490000000  0.4387610000000  0.5254040000000 1.0
C      1  0.5222160000000  0.5621880000000  0.5496240000000 1.0
C      1  0.4755270000000  0.4374090000000  0.5443650000000 1.0
C      1  0.4556310000000  0.5569400000000  0.5206680000000 1.0
C      1  0.4519820000000  0.4372990000000  0.4703810000000 1.0
C      1  0.4803640000000  0.5592790000000  0.4519920000000 1.0
C      1  0.5286300000000  0.4358810000000  0.4516070000000 1.0
C      1  0.5477790000000  0.5567560000000  0.4807700000000 1.0
C      1  0.5188840000000  0.5152420000000  0.4123740000000 1.0
C      1  0.5668760000000  0.4895140000000  0.4570380000000 1.0
C      1  0.5901400000000  0.5134070000000  0.5180670000000 1.0
C      1  0.5477110000000  0.4935730000000  0.5719640000000 1.0
C      1  0.4837460000000  0.5170890000000  0.5882350000000 1.0
C      1  0.4332210000000  0.4944150000000  0.5470500000000 1.0
C      1  0.4133080000000  0.5145490000000  0.4830470000000 1.0
C      1  0.4555190000000  0.4929990000000  0.4313800000000 1.0
C      1  0.4377090000000  0.5044810000000  0.4729760000000 1.0
C      1  0.4822550000000  0.5000200000000  0.4362460000000 1.0
C      1  0.5285060000000  0.5046420000000  0.4367590000000 1.0
C      1  0.5631070000000  0.4980010000000  0.4835380000000 1.0
C      1  0.5653280000000  0.5072770000000  0.5301700000000 1.0
C      1  0.5209410000000  0.5008330000000  0.5668710000000 1.0
C      1  0.4756630000000  0.5055270000000  0.5635410000000 1.0
C      1  0.4372760000000  0.4989640000000  0.5195500000000 1.0
C      1  0.4608730000000  0.5513220000000  0.4731230000000 1.0
C      1  0.5000760000000  0.4416320000000  0.4465260000000 1.0
C      1  0.5277240000000  0.5503940000000  0.4598280000000 1.0
C      1  0.5522200000000  0.4465890000000  0.4967540000000 1.0
C      1  0.5416760000000  0.5542480000000  0.5286630000000 1.0
C      1  0.5047270000000  0.4429910000000  0.5504610000000 1.0
C      1  0.4759030000000  0.5516750000000  0.5412180000000 1.0
C      1  0.4494790000000  0.4426580000000  0.4997080000000 1.0
C      1  0.4740680000000  0.4753670000000  0.4717750000000 1.0
C      1  0.4880700000000  0.5106930000000  0.4662520000000 1.0
C      1  0.5165990000000  0.4806540000000  0.4814570000000 1.0
C      1  0.5367390000000  0.5144330000000  0.4882460000000 1.0
C      1  0.5185900000000  0.4858240000000  0.5252910000000 1.0
C      1  0.5166940000000  0.5131920000000  0.5377450000000 1.0
C      1  0.4762380000000  0.4776490000000  0.5185800000000 1.0
C      1  0.4643260000000  0.5138050000000  0.5131670000000 1.0
C      1  0.5036090000000  0.4720470000000  0.4529930000000 1.0
C      1  0.5206670000000  0.5207020000000  0.4621610000000 1.0
C      1  0.5489040000000  0.4763090000000  0.5027180000000 1.0
C      1  0.5407320000000  0.5243430000000  0.5222660000000 1.0
C      1  0.5007780000000  0.4729800000000  0.5482800000000 1.0
C      1  0.4821640000000  0.5223900000000  0.5382770000000 1.0
C      1  0.4551180000000  0.4722230000000  0.4974560000000 1.0
C      1  0.4627530000000  0.5214640000000  0.4805120000000 1.0
C      1  0.5713680000000  0.5419520000000  0.4847870000000 1.0
C      1  0.5594300000000  0.4593520000000  0.5419060000000 1.0
C      1  0.5187700000000  0.5456740000000  0.5721530000000 1.0
C      1  0.4604410000000  0.4588950000000  0.5549770000000 1.0
C      1  0.4314600000000  0.5428750000000  0.5173910000000 1.0
C      1  0.4383700000000  0.4575570000000  0.4559550000000 1.0
C      1  0.4841350000000  0.5445050000000  0.4283170000000 1.0
C      1  0.5422200000000  0.4565840000000  0.4381430000000 1.0
C      1  0.4538800000000  0.4851940000000  0.5627740000000 1.0
C      1  0.4184950000000  0.5193090000000  0.5100010000000 1.0
C      1  0.4370610000000  0.4852920000000  0.4503010000000 1.0
C      1  0.4918870000000  0.5202430000000  0.4173880000000 1.0
C      1  0.5493340000000  0.4836830000000  0.4369820000000 1.0
C      1  0.5837030000000  0.5178460000000  0.4913810000000 1.0
C      1  0.5635930000000  0.4858330000000  0.5505710000000 1.0
C      1  0.5109980000000  0.5219940000000  0.5845150000000 1.0
C      1  0.5016940000000  0.4463300000000  0.5029240000000 1.0
C      1  0.5013580000000  0.5711710000000  0.4973560000000 1.0
C      1  0.4999020000000  0.4900460000000  0.5036250000000 1.0
END
