TITL C-3578197-9521-201 -2.34780409529188e-06 125000 -642.421128727858 0 0 104 (C1) n - 1
REM
REM in /home/bkarasulu/work/CARBON/AIRSS/Generating-Clusters/EDIP-Nigel-Params/with-SteepDescent/Higher-Symm/SD-CG/HFTN-CG
REM
REM
REM
REM
REM
REM ./C.cell (12c818d87b63d06a65506943cc24bca4)
REM
REM compiler GCC version 9.2.1 20190827 (Red Hat 9.2.1-1)
REM options -cpp -mtune=generic -march=x86-64 -g -O0 -fpre-include=/usr/include/finclude/math-vector-fortran.h
REM seed -1662336895 599965628 -691835135 -581432997 -980809640 -412573137 804267609 1962265329 214887315 820770699 313851438 1697983346 -416283487 -1004288792 1277199912 469432867 -1672453848 -241338526 961190966 -597917788 -892009951 -1023727249 1400559765 1518141098 -216318310 1469087358 725989348 919430188 688528732 114829710 2118497490 1785131958 986926670
REM
CELL 1.54180   50.00000   50.00000   50.00000   90.00000   90.00000   90.00000
LATT -1
SFAC C  
C      1  0.5172270000000  0.5334730000000  0.4150360000000 1.0
C      1  0.4915800000000  0.5335560000000  0.4300060000000 1.0
C      1  0.5015620000000  0.4294760000000  0.5612860000000 1.0
C      1  0.5044230000000  0.5588710000000  0.4638390000000 1.0
C      1  0.4276630000000  0.4494460000000  0.4969820000000 1.0
C      1  0.5909460000000  0.5316980000000  0.5231660000000 1.0
C      1  0.4579870000000  0.4943650000000  0.5068500000000 1.0
C      1  0.4326300000000  0.5622730000000  0.4647830000000 1.0
C      1  0.5269700000000  0.4244000000000  0.4779560000000 1.0
C      1  0.5444310000000  0.5434100000000  0.5283550000000 1.0
C      1  0.4562000000000  0.4393480000000  0.5316270000000 1.0
C      1  0.5211520000000  0.4817730000000  0.5362670000000 1.0
C      1  0.4773240000000  0.4481670000000  0.4871700000000 1.0
C      1  0.5266050000000  0.4802740000000  0.5662490000000 1.0
C      1  0.5232460000000  0.5015700000000  0.4591720000000 1.0
C      1  0.4626470000000  0.5841190000000  0.5211230000000 1.0
C      1  0.4953540000000  0.5105680000000  0.5418180000000 1.0
C      1  0.5086280000000  0.5699670000000  0.5083230000000 1.0
C      1  0.4264500000000  0.5103160000000  0.4412070000000 1.0
C      1  0.5724010000000  0.5576950000000  0.4875500000000 1.0
C      1  0.5264570000000  0.4313270000000  0.5482670000000 1.0
C      1  0.5490610000000  0.5695560000000  0.4741770000000 1.0
C      1  0.5052130000000  0.4584840000000  0.4964950000000 1.0
C      1  0.5710150000000  0.5538080000000  0.5177860000000 1.0
C      1  0.4863410000000  0.4133620000000  0.5131290000000 1.0
C      1  0.5652090000000  0.4568380000000  0.4641360000000 1.0
C      1  0.5159150000000  0.4571140000000  0.4468830000000 1.0
C      1  0.4902170000000  0.5360810000000  0.4741670000000 1.0
C      1  0.4750890000000  0.4617970000000  0.5317870000000 1.0
C      1  0.4790180000000  0.5600240000000  0.4347330000000 1.0
C      1  0.5061600000000  0.4570580000000  0.5275590000000 1.0
C      1  0.4217720000000  0.5686380000000  0.4956980000000 1.0
C      1  0.4656670000000  0.5082360000000  0.5471820000000 1.0
C      1  0.5350290000000  0.4953950000000  0.4296240000000 1.0
C      1  0.5584680000000  0.4829960000000  0.5682840000000 1.0
C      1  0.5078590000000  0.5556700000000  0.5560230000000 1.0
C      1  0.4294120000000  0.4959230000000  0.5239740000000 1.0
C      1  0.4305030000000  0.4731400000000  0.5441700000000 1.0
C      1  0.5721380000000  0.4917160000000  0.5247720000000 1.0
C      1  0.4868080000000  0.5725930000000  0.5642950000000 1.0
C      1  0.5515040000000  0.4393990000000  0.4837420000000 1.0
C      1  0.5090390000000  0.5072730000000  0.5704660000000 1.0
C      1  0.4629760000000  0.5185460000000  0.5759850000000 1.0
C      1  0.4862370000000  0.4639710000000  0.4420970000000 1.0
C      1  0.4469860000000  0.4333370000000  0.4529350000000 1.0
C      1  0.5217880000000  0.5347010000000  0.5718780000000 1.0
C      1  0.5332100000000  0.4223930000000  0.5226270000000 1.0
C      1  0.5792990000000  0.5297430000000  0.4760130000000 1.0
C      1  0.5588280000000  0.5137670000000  0.4315630000000 1.0
C      1  0.5191670000000  0.5061970000000  0.4076350000000 1.0
C      1  0.4235590000000  0.5322600000000  0.4603130000000 1.0
C      1  0.5343800000000  0.5479920000000  0.4603590000000 1.0
C      1  0.5017620000000  0.4569800000000  0.5760620000000 1.0
C      1  0.5041740000000  0.5150270000000  0.5117870000000 1.0
C      1  0.4871310000000  0.5915790000000  0.5050140000000 1.0
C      1  0.4476860000000  0.4902270000000  0.4361120000000 1.0
C      1  0.4912290000000  0.5403560000000  0.5024640000000 1.0
C      1  0.4718210000000  0.4873380000000  0.4547750000000 1.0
C      1  0.4393890000000  0.4266300000000  0.4818300000000 1.0
C      1  0.4515040000000  0.5669430000000  0.4990130000000 1.0
C      1  0.5744220000000  0.4831690000000  0.4725510000000 1.0
C      1  0.4210440000000  0.5220790000000  0.4882080000000 1.0
C      1  0.4839610000000  0.5011890000000  0.5871290000000 1.0
C      1  0.5756010000000  0.4704320000000  0.5455720000000 1.0
C      1  0.4100730000000  0.4947360000000  0.4991540000000 1.0
C      1  0.4121120000000  0.5437570000000  0.5082100000000 1.0
C      1  0.5429000000000  0.4936390000000  0.5184970000000 1.0
C      1  0.5951910000000  0.5166470000000  0.4977100000000 1.0
C      1  0.5466430000000  0.5322670000000  0.5567260000000 1.0
C      1  0.5762800000000  0.5076260000000  0.4552390000000 1.0
C      1  0.4155600000000  0.4756860000000  0.4534140000000 1.0
C      1  0.4622390000000  0.4134310000000  0.4960920000000 1.0
C      1  0.5244370000000  0.4721570000000  0.4721180000000 1.0
C      1  0.4764860000000  0.4728380000000  0.5798390000000 1.0
C      1  0.5134760000000  0.4277960000000  0.4530780000000 1.0
C      1  0.5409770000000  0.5221610000000  0.4766690000000 1.0
C      1  0.4164920000000  0.4722210000000  0.4827010000000 1.0
C      1  0.4771370000000  0.4386930000000  0.4576110000000 1.0
C      1  0.5902180000000  0.5159740000000  0.5480320000000 1.0
C      1  0.5669510000000  0.5124500000000  0.5652740000000 1.0
C      1  0.4301090000000  0.5291940000000  0.5312910000000 1.0
C      1  0.4507090000000  0.5197280000000  0.4932000000000 1.0
C      1  0.5877840000000  0.4878470000000  0.4986620000000 1.0
C      1  0.4611660000000  0.4781740000000  0.5528090000000 1.0
C      1  0.5297810000000  0.5797230000000  0.4914640000000 1.0
C      1  0.4292110000000  0.4478900000000  0.5271770000000 1.0
C      1  0.4485780000000  0.5438960000000  0.5515250000000 1.0
C      1  0.4629320000000  0.5713650000000  0.4571670000000 1.0
C      1  0.4605860000000  0.4747860000000  0.4828540000000 1.0
C      1  0.5137400000000  0.4154810000000  0.5027440000000 1.0
C      1  0.4937370000000  0.5135500000000  0.4546550000000 1.0
C      1  0.5605050000000  0.4541650000000  0.4365730000000 1.0
C      1  0.4665150000000  0.5670940000000  0.5453800000000 1.0
C      1  0.4612330000000  0.5410180000000  0.5099690000000 1.0
C      1  0.5564700000000  0.4351520000000  0.5124720000000 1.0
C      1  0.4958460000000  0.4901690000000  0.4921230000000 1.0
C      1  0.5713960000000  0.4457200000000  0.5335170000000 1.0
C      1  0.5370220000000  0.4651350000000  0.4268460000000 1.0
C      1  0.5422880000000  0.5405820000000  0.4315960000000 1.0
C      1  0.4830060000000  0.4143510000000  0.5429330000000 1.0
C      1  0.4811610000000  0.5875290000000  0.4753050000000 1.0
C      1  0.4322470000000  0.4553950000000  0.4398700000000 1.0
C      1  0.5340760000000  0.5198880000000  0.5082560000000 1.0
C      1  0.5232610000000  0.5640390000000  0.5332090000000 1.0
END
