TITL C-3577083-591-141 5.348784576699e-07 125000 -300.5209186941 0 0 50 (C1) n - 1
REM
REM in /home/bkarasulu/work/CARBON/AIRSS/Generating-Clusters/EDIP-Nigel-Params/with-SteepDescent/Higher-Symm/SD-CG/HFTN-CG
REM
REM
REM
REM
REM
REM ./C.cell (12c818d87b63d06a65506943cc24bca4)
REM
REM compiler GCC version 9.2.1 20190827 (Red Hat 9.2.1-1)
REM options -cpp -mtune=generic -march=x86-64 -g -O0 -fpre-include=/usr/include/finclude/math-vector-fortran.h
REM seed 2127395946 -440017301 -1643760881 1441068130 1620025585 -2082935777 1611387333 -2062091212 -1867383268 -1369432462 -1483366535 945101325 625383841 965893302 1137794011 940830073 -877590377 -1754927605 736925692 -539553857 -861916589 1341154673 -854048561 -1523735735 -708215830 1103420493 499949370 -1624647198 -1732735160 327236443 -2033800483 -1696101911 -211236746
REM
CELL 1.54180   50.00000   50.00000   50.00000   90.00000   90.00000   90.00000
LATT -1
SFAC C  
C      1  0.5355490000000  0.4699330000000  0.5263420000000 1.0
C      1  0.4776170000000  0.4490450000000  0.4910460000000 1.0
C      1  0.5402780000000  0.5592460000000  0.4717450000000 1.0
C      1  0.5188910000000  0.5222880000000  0.4486860000000 1.0
C      1  0.4948820000000  0.4988800000000  0.5477640000000 1.0
C      1  0.5028360000000  0.4289820000000  0.5350800000000 1.0
C      1  0.5104890000000  0.4336220000000  0.4622630000000 1.0
C      1  0.4620940000000  0.4493580000000  0.5523100000000 1.0
C      1  0.5494300000000  0.5481900000000  0.5229050000000 1.0
C      1  0.4897310000000  0.4456770000000  0.5538070000000 1.0
C      1  0.4610180000000  0.4753390000000  0.4506170000000 1.0
C      1  0.5495880000000  0.4607200000000  0.4808480000000 1.0
C      1  0.4972080000000  0.4883730000000  0.4214590000000 1.0
C      1  0.5584970000000  0.5030450000000  0.5082770000000 1.0
C      1  0.5177250000000  0.4897710000000  0.4848260000000 1.0
C      1  0.5404080000000  0.4480340000000  0.5067390000000 1.0
C      1  0.5222820000000  0.4962000000000  0.4327040000000 1.0
C      1  0.5334400000000  0.4727470000000  0.4477060000000 1.0
C      1  0.4787450000000  0.5217090000000  0.4824170000000 1.0
C      1  0.5150080000000  0.5699920000000  0.4756850000000 1.0
C      1  0.5410650000000  0.5398590000000  0.4513760000000 1.0
C      1  0.4463960000000  0.4966020000000  0.4612220000000 1.0
C      1  0.4527790000000  0.4639090000000  0.5304390000000 1.0
C      1  0.5308950000000  0.5633820000000  0.5375080000000 1.0
C      1  0.5321900000000  0.4634050000000  0.5538200000000 1.0
C      1  0.5163080000000  0.4287600000000  0.5098370000000 1.0
C      1  0.5043510000000  0.5717520000000  0.5392760000000 1.0
C      1  0.4716600000000  0.4700710000000  0.5084720000000 1.0
C      1  0.4672890000000  0.5084630000000  0.5339160000000 1.0
C      1  0.4865610000000  0.4705510000000  0.4401930000000 1.0
C      1  0.4748360000000  0.5487050000000  0.4950310000000 1.0
C      1  0.5447100000000  0.5196100000000  0.5266660000000 1.0
C      1  0.4713100000000  0.5002810000000  0.5041110000000 1.0
C      1  0.4961070000000  0.5861680000000  0.5165890000000 1.0
C      1  0.4934220000000  0.5709990000000  0.4931320000000 1.0
C      1  0.5117170000000  0.4856970000000  0.5154500000000 1.0
C      1  0.4609480000000  0.5201970000000  0.4595340000000 1.0
C      1  0.4640180000000  0.5384100000000  0.5368430000000 1.0
C      1  0.5537860000000  0.5546590000000  0.4958070000000 1.0
C      1  0.4276410000000  0.4967160000000  0.5119350000000 1.0
C      1  0.4418080000000  0.4908330000000  0.5358270000000 1.0
C      1  0.5487670000000  0.4905460000000  0.4848210000000 1.0
C      1  0.4854770000000  0.5528390000000  0.5479110000000 1.0
C      1  0.5075730000000  0.5159850000000  0.4753890000000 1.0
C      1  0.5159760000000  0.5133600000000  0.5288330000000 1.0
C      1  0.5081640000000  0.4623770000000  0.4586480000000 1.0
C      1  0.4317510000000  0.4939060000000  0.4850700000000 1.0
C      1  0.4540570000000  0.5505350000000  0.5138230000000 1.0
C      1  0.5050170000000  0.4701620000000  0.5584190000000 1.0
C      1  0.4977070000000  0.4301110000000  0.4868760000000 1.0
END
