TITL C-3577084-3642-559 -3.40235622779592e-07 125000 -770.452236458294 0 0 124 (C1) n - 1
REM
REM in /home/bkarasulu/work/CARBON/AIRSS/Generating-Clusters/EDIP-Nigel-Params/with-SteepDescent/Higher-Symm/SD-CG/HFTN-CG
REM
REM
REM
REM
REM
REM ./C.cell (12c818d87b63d06a65506943cc24bca4)
REM
REM compiler GCC version 9.2.1 20190827 (Red Hat 9.2.1-1)
REM options -cpp -mtune=generic -march=x86-64 -g -O0 -fpre-include=/usr/include/finclude/math-vector-fortran.h
REM seed 1625288962 -1705926355 489949128 338664598 1992147047 1813327100 -1131858844 -1714272020 -618825607 1947825810 -834609887 1498556707 -365615340 -785111153 -1610307148 -83791719 389271889 -732122820 367484996 557670390 547398324 1160986920 1236558388 -358783213 -1416726008 -813435085 599197180 1855504198 -111213410 1731578779 -1765983309 1175987066 67266406
REM
CELL 1.54180   50.00000   50.00000   50.00000   90.00000   90.00000   90.00000
LATT -1
SFAC C  
C      1  0.4901800000000  0.5486540000000  0.4319940000000 1.0
C      1  0.5068960000000  0.5892190000000  0.5415640000000 1.0
C      1  0.5649140000000  0.4808170000000  0.4282800000000 1.0
C      1  0.5401130000000  0.5175050000000  0.4331830000000 1.0
C      1  0.4568310000000  0.4823100000000  0.5434140000000 1.0
C      1  0.3986200000000  0.5204090000000  0.5255460000000 1.0
C      1  0.5162050000000  0.5590090000000  0.5484790000000 1.0
C      1  0.5154620000000  0.4889170000000  0.4909860000000 1.0
C      1  0.4637380000000  0.4116160000000  0.5294070000000 1.0
C      1  0.4061450000000  0.4991710000000  0.5084930000000 1.0
C      1  0.5351010000000  0.5440080000000  0.4185980000000 1.0
C      1  0.5195250000000  0.4393430000000  0.4750560000000 1.0
C      1  0.6025080000000  0.5124420000000  0.5000310000000 1.0
C      1  0.4684700000000  0.4287700000000  0.4595240000000 1.0
C      1  0.5698020000000  0.5249440000000  0.5347280000000 1.0
C      1  0.5748170000000  0.5508450000000  0.4648370000000 1.0
C      1  0.4388780000000  0.4740220000000  0.5656820000000 1.0
C      1  0.4909720000000  0.5762800000000  0.4939740000000 1.0
C      1  0.5425300000000  0.4120260000000  0.5204630000000 1.0
C      1  0.4747120000000  0.5598310000000  0.5126710000000 1.0
C      1  0.5335310000000  0.5678600000000  0.4363240000000 1.0
C      1  0.5255030000000  0.5147370000000  0.5255360000000 1.0
C      1  0.5490310000000  0.5054410000000  0.5398130000000 1.0
C      1  0.4798710000000  0.5830130000000  0.5540390000000 1.0
C      1  0.4571410000000  0.4605010000000  0.5230110000000 1.0
C      1  0.4605570000000  0.5740670000000  0.5336320000000 1.0
C      1  0.5179340000000  0.4285630000000  0.4469650000000 1.0
C      1  0.5024680000000  0.4988150000000  0.5354070000000 1.0
C      1  0.4705960000000  0.4976670000000  0.4091150000000 1.0
C      1  0.4613170000000  0.4044450000000  0.5022690000000 1.0
C      1  0.5948020000000  0.4647440000000  0.4993090000000 1.0
C      1  0.4534370000000  0.5268100000000  0.5795220000000 1.0
C      1  0.4333440000000  0.5746930000000  0.4935370000000 1.0
C      1  0.4378680000000  0.5282420000000  0.5523500000000 1.0
C      1  0.4094610000000  0.5009120000000  0.4796790000000 1.0
C      1  0.4096210000000  0.4738400000000  0.5220980000000 1.0
C      1  0.4996660000000  0.5007970000000  0.4167820000000 1.0
C      1  0.5001910000000  0.4934210000000  0.4473530000000 1.0
C      1  0.5223280000000  0.5445230000000  0.5221100000000 1.0
C      1  0.5426790000000  0.5880320000000  0.5073050000000 1.0
C      1  0.5585660000000  0.5047530000000  0.4819720000000 1.0
C      1  0.5075820000000  0.5323820000000  0.4146050000000 1.0
C      1  0.4532650000000  0.5158170000000  0.4243880000000 1.0
C      1  0.5070530000000  0.4762020000000  0.5573440000000 1.0
C      1  0.4497610000000  0.5734730000000  0.4695480000000 1.0
C      1  0.5377630000000  0.4679760000000  0.4251860000000 1.0
C      1  0.5686820000000  0.5104030000000  0.4296490000000 1.0
C      1  0.5320020000000  0.5274880000000  0.5813400000000 1.0
C      1  0.4947740000000  0.5316880000000  0.4781550000000 1.0
C      1  0.5528640000000  0.4779940000000  0.5261650000000 1.0
C      1  0.5476700000000  0.4477930000000  0.4823010000000 1.0
C      1  0.5042550000000  0.4217360000000  0.4923160000000 1.0
C      1  0.4225820000000  0.4495350000000  0.5094870000000 1.0
C      1  0.5454440000000  0.5034600000000  0.5695640000000 1.0
C      1  0.5444470000000  0.4794490000000  0.4952020000000 1.0
C      1  0.5800220000000  0.4648020000000  0.4487280000000 1.0
C      1  0.5492890000000  0.4540400000000  0.5700510000000 1.0
C      1  0.4639900000000  0.5318140000000  0.4736540000000 1.0
C      1  0.5669590000000  0.5497850000000  0.4927470000000 1.0
C      1  0.5133630000000  0.4743750000000  0.4093400000000 1.0
C      1  0.5030640000000  0.4315720000000  0.5779070000000 1.0
C      1  0.5790980000000  0.4545280000000  0.5454230000000 1.0
C      1  0.4113550000000  0.4752750000000  0.4660020000000 1.0
C      1  0.4847060000000  0.4559600000000  0.5121550000000 1.0
C      1  0.4650660000000  0.4818420000000  0.4579830000000 1.0
C      1  0.5118310000000  0.5092080000000  0.4699610000000 1.0
C      1  0.4764800000000  0.5853480000000  0.4692720000000 1.0
C      1  0.4225850000000  0.5219330000000  0.4621710000000 1.0
C      1  0.5380500000000  0.5190320000000  0.4633000000000 1.0
C      1  0.4840260000000  0.5565330000000  0.5671170000000 1.0
C      1  0.5911060000000  0.4770300000000  0.4727290000000 1.0
C      1  0.5627740000000  0.4422050000000  0.4557250000000 1.0
C      1  0.4662530000000  0.5010600000000  0.5044640000000 1.0
C      1  0.5742400000000  0.5236540000000  0.5045310000000 1.0
C      1  0.5298350000000  0.4310690000000  0.5671210000000 1.0
C      1  0.4110440000000  0.5130550000000  0.5502710000000 1.0
C      1  0.5574260000000  0.5677980000000  0.4508520000000 1.0
C      1  0.5581800000000  0.4307150000000  0.5046580000000 1.0
C      1  0.6010400000000  0.5043240000000  0.4712020000000 1.0
C      1  0.4351420000000  0.5570670000000  0.5402690000000 1.0
C      1  0.5417070000000  0.4403750000000  0.4342750000000 1.0
C      1  0.5636790000000  0.5478700000000  0.5504720000000 1.0
C      1  0.4845000000000  0.4762750000000  0.5772210000000 1.0
C      1  0.5309820000000  0.4447780000000  0.5365550000000 1.0
C      1  0.4459660000000  0.4350850000000  0.5366120000000 1.0
C      1  0.4489030000000  0.4446820000000  0.5660530000000 1.0
C      1  0.4264770000000  0.5096070000000  0.4350780000000 1.0
C      1  0.5813010000000  0.5216720000000  0.4554660000000 1.0
C      1  0.5048860000000  0.5975610000000  0.5119390000000 1.0
C      1  0.4935750000000  0.4651410000000  0.4610930000000 1.0
C      1  0.4923340000000  0.4857600000000  0.5093360000000 1.0
C      1  0.4900750000000  0.4546030000000  0.4131210000000 1.0
C      1  0.5883850000000  0.4819450000000  0.5399060000000 1.0
C      1  0.4995730000000  0.4459850000000  0.5365950000000 1.0
C      1  0.4569140000000  0.5507940000000  0.5945300000000 1.0
C      1  0.5280170000000  0.6099660000000  0.5003070000000 1.0
C      1  0.5806230000000  0.4446930000000  0.5169060000000 1.0
C      1  0.4252230000000  0.5532650000000  0.5118200000000 1.0
C      1  0.4829430000000  0.5179930000000  0.5459400000000 1.0
C      1  0.5400470000000  0.5521820000000  0.5660840000000 1.0
C      1  0.4528370000000  0.5029700000000  0.4772630000000 1.0
C      1  0.4212740000000  0.4807920000000  0.4380780000000 1.0
C      1  0.4804620000000  0.5128800000000  0.5748210000000 1.0
C      1  0.4541880000000  0.5425060000000  0.5012600000000 1.0
C      1  0.4755250000000  0.4253980000000  0.4889080000000 1.0
C      1  0.4434740000000  0.4430050000000  0.4557670000000 1.0
C      1  0.4637850000000  0.4688940000000  0.4115330000000 1.0
C      1  0.5044070000000  0.5236200000000  0.5876600000000 1.0
C      1  0.4911320000000  0.4413280000000  0.4410330000000 1.0
C      1  0.4827260000000  0.5609460000000  0.5962630000000 1.0
C      1  0.4572170000000  0.5115800000000  0.5328510000000 1.0
C      1  0.5384640000000  0.5600780000000  0.4993820000000 1.0
C      1  0.4419430000000  0.5533150000000  0.4496940000000 1.0
C      1  0.5096930000000  0.5576160000000  0.4788670000000 1.0
C      1  0.4130530000000  0.4823580000000  0.5512620000000 1.0
C      1  0.5047660000000  0.5690870000000  0.4493470000000 1.0
C      1  0.4618440000000  0.5424940000000  0.4312540000000 1.0
C      1  0.5136890000000  0.4089460000000  0.5165580000000 1.0
C      1  0.4261900000000  0.4528970000000  0.4789230000000 1.0
C      1  0.6047560000000  0.4863190000000  0.5162380000000 1.0
C      1  0.4475020000000  0.4669530000000  0.4379130000000 1.0
C      1  0.5324480000000  0.4779440000000  0.5738350000000 1.0
C      1  0.4924780000000  0.4149820000000  0.5385410000000 1.0
C      1  0.4786410000000  0.4474210000000  0.5755300000000 1.0
END
