TITL C-3577082-504-503 1.42348308609317e-07 125000 -44.0460907787676 0 0 9 (D(inf)h) n - 1
REM
REM in /home/bkarasulu/work/CARBON/AIRSS/Generating-Clusters/EDIP-Nigel-Params/with-SteepDescent/Higher-Symm/SD-CG/HFTN-CG
REM
REM
REM
REM
REM
REM ./C.cell (12c818d87b63d06a65506943cc24bca4)
REM
REM compiler GCC version 9.2.1 20190827 (Red Hat 9.2.1-1)
REM options -cpp -mtune=generic -march=x86-64 -g -O0 -fpre-include=/usr/include/finclude/math-vector-fortran.h
REM seed -1337616546 971048150 1238997276 -910800487 1302689871 1228267273 -879392618 1616083956 -2131590831 1749255048 -257315387 -262959463 -1752371660 -1273567645 1163272982 1474896131 1630147659 1198373885 -1264505981 -182388766 -897903233 1996952396 -1448825669 -314711576 2067034925 742812708 -407716717 -971405208 1948717886 -1351896501 1748723960 1155912037 -1367323457
REM
CELL 1.54180   50.00000   50.00000   50.00000   90.00000   90.00000   90.00000
LATT -1
SFAC C  
C      1  0.5000000000000  0.4983310000000  0.4995800000000 1.0
C      1  0.4736150000000  0.4983310000000  0.4995800000000 1.0
C      1  0.6047260000000  0.4983310000000  0.4995800000000 1.0
C      1  0.4208440000000  0.4983310000000  0.4995800000000 1.0
C      1  0.5527710000000  0.4983310000000  0.4995800000000 1.0
C      1  0.5263850000000  0.4983310000000  0.4995800000000 1.0
C      1  0.3952740000000  0.4983310000000  0.4995800000000 1.0
C      1  0.5791560000000  0.4983310000000  0.4995800000000 1.0
C      1  0.4472290000000  0.4983310000000  0.4995800000000 1.0
END
