TITL C-3578196-9646-339 -4.63463648775407e-07 125000 -363.467676620793 0 0 60 (C2) n - 1
REM
REM in /home/bkarasulu/work/CARBON/AIRSS/Generating-Clusters/EDIP-Nigel-Params/with-SteepDescent/Higher-Symm/SD-CG/HFTN-CG
REM
REM
REM
REM
REM
REM ./C.cell (12c818d87b63d06a65506943cc24bca4)
REM
REM compiler GCC version 9.2.1 20190827 (Red Hat 9.2.1-1)
REM options -cpp -mtune=generic -march=x86-64 -g -O0 -fpre-include=/usr/include/finclude/math-vector-fortran.h
REM seed -1571327111 -211066483 1716427496 -1403742035 107000715 -307430235 -1180326374 650852484 -1649595180 -1200257414 -147990006 829418936 1757269766 1701648812 -774746321 -799334201 2104191441 -1152000630 1595505412 1058429500 -507241440 1255179187 -32699322 320394684 -909307457 609494938 -1977453344 782993982 -443824021 1752413913 1090485642 589151499 -1318768340
REM
CELL 1.54180   50.00000   50.00000   50.00000   90.00000   90.00000   90.00000
LATT -1
SFAC C  
C      1  0.4855760000000  0.5625640000000  0.5174560000000 1.0
C      1  0.5143330000000  0.5629940000000  0.4842610000000 1.0
C      1  0.4835650000000  0.4386130000000  0.5137890000000 1.0
C      1  0.5162310000000  0.4389980000000  0.4845240000000 1.0
C      1  0.4835910000000  0.5613950000000  0.4862140000000 1.0
C      1  0.5162620000000  0.5609950000000  0.5154720000000 1.0
C      1  0.4855440000000  0.4374430000000  0.4825470000000 1.0
C      1  0.5143070000000  0.4370000000000  0.5157360000000 1.0
C      1  0.4760610000000  0.4639850000000  0.4716050000000 1.0
C      1  0.5238350000000  0.4632950000000  0.5272160000000 1.0
C      1  0.4773720000000  0.5331160000000  0.4754970000000 1.0
C      1  0.5224780000000  0.5324790000000  0.5255970000000 1.0
C      1  0.4773610000000  0.4668940000000  0.5245080000000 1.0
C      1  0.5224580000000  0.4675100000000  0.4743980000000 1.0
C      1  0.4760840000000  0.5360260000000  0.5284000000000 1.0
C      1  0.5238470000000  0.5366940000000  0.4727790000000 1.0
C      1  0.5255070000000  0.4877650000000  0.5963670000000 1.0
C      1  0.4741540000000  0.4837400000000  0.3998410000000 1.0
C      1  0.5288740000000  0.5146310000000  0.5982240000000 1.0
C      1  0.4723930000000  0.5103190000000  0.4052510000000 1.0
C      1  0.5288470000000  0.4853550000000  0.4017700000000 1.0
C      1  0.4724070000000  0.4896940000000  0.5947540000000 1.0
C      1  0.5254930000000  0.5122230000000  0.4036270000000 1.0
C      1  0.4741820000000  0.5162720000000  0.6001640000000 1.0
C      1  0.5138320000000  0.5272250000000  0.4241140000000 1.0
C      1  0.4862320000000  0.5282370000000  0.5776570000000 1.0
C      1  0.5160600000000  0.4739710000000  0.4241280000000 1.0
C      1  0.4841870000000  0.4750530000000  0.5740580000000 1.0
C      1  0.5160870000000  0.5260210000000  0.5758690000000 1.0
C      1  0.4841840000000  0.5249540000000  0.4259450000000 1.0
C      1  0.5138350000000  0.4727680000000  0.5758830000000 1.0
C      1  0.4862030000000  0.4717690000000  0.4223460000000 1.0
C      1  0.4673950000000  0.5345770000000  0.5564930000000 1.0
C      1  0.5324460000000  0.5356610000000  0.4446100000000 1.0
C      1  0.4665710000000  0.4673450000000  0.5520670000000 1.0
C      1  0.5335060000000  0.4683130000000  0.4469820000000 1.0
C      1  0.4665750000000  0.5326710000000  0.4479400000000 1.0
C      1  0.5335310000000  0.5316720000000  0.5530120000000 1.0
C      1  0.4673670000000  0.4654380000000  0.4435130000000 1.0
C      1  0.5324410000000  0.4643240000000  0.5553840000000 1.0
C      1  0.5613090000000  0.5160920000000  0.4606340000000 1.0
C      1  0.4386720000000  0.5151000000000  0.5400490000000 1.0
C      1  0.5607220000000  0.4877520000000  0.4643900000000 1.0
C      1  0.4391410000000  0.4869120000000  0.5352210000000 1.0
C      1  0.5607350000000  0.5122200000000  0.5355980000000 1.0
C      1  0.4391400000000  0.5131160000000  0.4647920000000 1.0
C      1  0.5613100000000  0.4838800000000  0.5393530000000 1.0
C      1  0.4386570000000  0.4849290000000  0.4599640000000 1.0
C      1  0.4495630000000  0.5295370000000  0.5161590000000 1.0
C      1  0.5503630000000  0.5299560000000  0.4848370000000 1.0
C      1  0.4550780000000  0.4807910000000  0.5109870000000 1.0
C      1  0.5446600000000  0.4811380000000  0.4883860000000 1.0
C      1  0.4550850000000  0.5192300000000  0.4890230000000 1.0
C      1  0.5446710000000  0.5188410000000  0.5116050000000 1.0
C      1  0.4495460000000  0.4704860000000  0.4838510000000 1.0
C      1  0.5503520000000  0.4700200000000  0.5151530000000 1.0
C      1  0.4984430000000  0.4851430000000  0.4750200000000 1.0
C      1  0.5014400000000  0.4844870000000  0.5238470000000 1.0
C      1  0.5014420000000  0.5155120000000  0.4761530000000 1.0
C      1  0.4984550000000  0.5148580000000  0.5249800000000 1.0
END
