TITL C-3577080-309-297 -3.59602006321838e-07 125000 -991.521510689774 0 0 157 (C1) n - 1
REM
REM in /home/bkarasulu/work/CARBON/AIRSS/Generating-Clusters/EDIP-Nigel-Params/with-SteepDescent/Higher-Symm/SD-CG/HFTN-CG
REM
REM
REM
REM
REM
REM ./C.cell (12c818d87b63d06a65506943cc24bca4)
REM
REM compiler GCC version 9.2.1 20190827 (Red Hat 9.2.1-1)
REM options -cpp -mtune=generic -march=x86-64 -g -O0 -fpre-include=/usr/include/finclude/math-vector-fortran.h
REM seed 1293333447 -714379968 -1387843507 -543589154 -1930332868 -128931901 -2054862269 -1232321524 1283061076 -2135221221 -1366030283 871481791 -765563647 685142470 1489360873 -1735823017 154977322 -1078003967 -643926948 1550049835 811434913 1101351913 938497833 -1169112270 -1052460799 1184131589 -1643874471 452265115 2007398215 -1462054471 -274016897 -865519168 1846671128
REM
CELL 1.54180   50.00000   50.00000   50.00000   90.00000   90.00000   90.00000
LATT -1
SFAC C  
C      1  0.5566670000000  0.4746470000000  0.5111400000000 1.0
C      1  0.5629790000000  0.5031720000000  0.5206990000000 1.0
C      1  0.5676170000000  0.5215060000000  0.4968610000000 1.0
C      1  0.5668480000000  0.5073640000000  0.4702240000000 1.0
C      1  0.5609860000000  0.4770400000000  0.4786630000000 1.0
C      1  0.4373770000000  0.4748880000000  0.4879720000000 1.0
C      1  0.4262950000000  0.5015550000000  0.4772590000000 1.0
C      1  0.4260290000000  0.5186470000000  0.5038630000000 1.0
C      1  0.4337710000000  0.5008370000000  0.5282580000000 1.0
C      1  0.4318220000000  0.4731780000000  0.5178690000000 1.0
C      1  0.5734600000000  0.4538880000000  0.5494730000000 1.0
C      1  0.5712100000000  0.5272830000000  0.5619050000000 1.0
C      1  0.5708910000000  0.5697250000000  0.4910140000000 1.0
C      1  0.5734960000000  0.5021160000000  0.4245480000000 1.0
C      1  0.5783950000000  0.4361040000000  0.4729070000000 1.0
C      1  0.4266330000000  0.4373920000000  0.4503380000000 1.0
C      1  0.4334330000000  0.5415170000000  0.4414480000000 1.0
C      1  0.4318120000000  0.5692530000000  0.5127130000000 1.0
C      1  0.4265600000000  0.5064760000000  0.5589960000000 1.0
C      1  0.4292830000000  0.4301460000000  0.5329780000000 1.0
C      1  0.5349920000000  0.4137410000000  0.4846450000000 1.0
C      1  0.5312780000000  0.4556020000000  0.5777510000000 1.0
C      1  0.5386400000000  0.5575970000000  0.5747270000000 1.0
C      1  0.5354070000000  0.5863210000000  0.4643420000000 1.0
C      1  0.5383120000000  0.4807150000000  0.4002400000000 1.0
C      1  0.4665140000000  0.4043130000000  0.5224340000000 1.0
C      1  0.4673350000000  0.4497050000000  0.4288940000000 1.0
C      1  0.4667430000000  0.5759690000000  0.4310010000000 1.0
C      1  0.4674070000000  0.5863330000000  0.5416970000000 1.0
C      1  0.4615750000000  0.4885790000000  0.5923580000000 1.0
C      1  0.4513990000000  0.4088020000000  0.4966650000000 1.0
C      1  0.4460800000000  0.4656130000000  0.5796070000000 1.0
C      1  0.4563410000000  0.5602200000000  0.5535720000000 1.0
C      1  0.4567410000000  0.5783580000000  0.4595860000000 1.0
C      1  0.4478620000000  0.4712910000000  0.4237350000000 1.0
C      1  0.5509650000000  0.4186660000000  0.5086910000000 1.0
C      1  0.5504490000000  0.4632520000000  0.4229080000000 1.0
C      1  0.5542620000000  0.5701600000000  0.4474600000000 1.0
C      1  0.5591600000000  0.5705370000000  0.5563670000000 1.0
C      1  0.5469360000000  0.4816860000000  0.5790450000000 1.0
C      1  0.5220450000000  0.5008080000000  0.4446420000000 1.0
C      1  0.5178490000000  0.4612860000000  0.4862780000000 1.0
C      1  0.5134530000000  0.4856370000000  0.5409950000000 1.0
C      1  0.5301960000000  0.5419030000000  0.5341540000000 1.0
C      1  0.5122420000000  0.5491170000000  0.4578440000000 1.0
C      1  0.4828760000000  0.4891150000000  0.5478760000000 1.0
C      1  0.4810460000000  0.4448360000000  0.5107980000000 1.0
C      1  0.4880740000000  0.4860920000000  0.4429240000000 1.0
C      1  0.4778020000000  0.5314620000000  0.4587640000000 1.0
C      1  0.4832980000000  0.5392850000000  0.5163790000000 1.0
C      1  0.4918640000000  0.4026260000000  0.4620230000000 1.0
C      1  0.4882620000000  0.4321060000000  0.5773620000000 1.0
C      1  0.4868850000000  0.5533310000000  0.5887330000000 1.0
C      1  0.4892160000000  0.6078370000000  0.4771670000000 1.0
C      1  0.4988240000000  0.5133080000000  0.4096610000000 1.0
C      1  0.5130470000000  0.4088620000000  0.5392030000000 1.0
C      1  0.5151750000000  0.4303750000000  0.4240140000000 1.0
C      1  0.5074640000000  0.5617070000000  0.4129620000000 1.0
C      1  0.5099680000000  0.5971110000000  0.5221650000000 1.0
C      1  0.5085710000000  0.5074890000000  0.5977290000000 1.0
C      1  0.4586180000000  0.5835180000000  0.5106000000000 1.0
C      1  0.4570710000000  0.5470530000000  0.4232090000000 1.0
C      1  0.4528990000000  0.4247930000000  0.4402270000000 1.0
C      1  0.4501690000000  0.4125730000000  0.5480820000000 1.0
C      1  0.4524040000000  0.5146550000000  0.5775960000000 1.0
C      1  0.5493830000000  0.5913100000000  0.4903510000000 1.0
C      1  0.5529670000000  0.5327090000000  0.5869580000000 1.0
C      1  0.5446170000000  0.4447190000000  0.5513480000000 1.0
C      1  0.5496580000000  0.4306440000000  0.4621560000000 1.0
C      1  0.5556220000000  0.5055780000000  0.4003660000000 1.0
C      1  0.5137790000000  0.4415480000000  0.5089990000000 1.0
C      1  0.5306390000000  0.5004790000000  0.5598520000000 1.0
C      1  0.5477730000000  0.5651340000000  0.5287830000000 1.0
C      1  0.5391170000000  0.5460800000000  0.4380370000000 1.0
C      1  0.5299130000000  0.4722280000000  0.4428580000000 1.0
C      1  0.4694840000000  0.4322120000000  0.4857740000000 1.0
C      1  0.4601060000000  0.4978950000000  0.4319080000000 1.0
C      1  0.4781570000000  0.5598790000000  0.4712200000000 1.0
C      1  0.4795780000000  0.5413470000000  0.5459000000000 1.0
C      1  0.4658750000000  0.4633270000000  0.5558790000000 1.0
C      1  0.5947720000000  0.5013330000000  0.5278900000000 1.0
C      1  0.5964750000000  0.5286590000000  0.5061980000000 1.0
C      1  0.5943810000000  0.5152060000000  0.4615270000000 1.0
C      1  0.6082720000000  0.4779440000000  0.4855360000000 1.0
C      1  0.6033450000000  0.4748250000000  0.5147780000000 1.0
C      1  0.3999680000000  0.4872570000000  0.4696710000000 1.0
C      1  0.3931910000000  0.5479760000000  0.4906320000000 1.0
C      1  0.3893190000000  0.5301640000000  0.5348560000000 1.0
C      1  0.4028700000000  0.4656590000000  0.5220570000000 1.0
C      1  0.4001910000000  0.4617890000000  0.4889680000000 1.0
C      1  0.5749630000000  0.4779120000000  0.5672620000000 1.0
C      1  0.5837290000000  0.5534350000000  0.5502590000000 1.0
C      1  0.5795230000000  0.5652280000000  0.4623620000000 1.0
C      1  0.5780490000000  0.4732520000000  0.4339570000000 1.0
C      1  0.5765210000000  0.4323240000000  0.5027010000000 1.0
C      1  0.4220120000000  0.4626260000000  0.4349760000000 1.0
C      1  0.4306970000000  0.5639290000000  0.4613780000000 1.0
C      1  0.4318140000000  0.5533170000000  0.5381610000000 1.0
C      1  0.4196750000000  0.4750270000000  0.5678090000000 1.0
C      1  0.4255620000000  0.4209730000000  0.5029690000000 1.0
C      1  0.4965670000000  0.4549140000000  0.4197770000000 1.0
C      1  0.4957240000000  0.4036350000000  0.5165330000000 1.0
C      1  0.4913410000000  0.4834190000000  0.5928300000000 1.0
C      1  0.4964560000000  0.5859420000000  0.5461410000000 1.0
C      1  0.4955350000000  0.5799260000000  0.4311200000000 1.0
C      1  0.5021550000000  0.4579410000000  0.5808150000000 1.0
C      1  0.5060420000000  0.4069420000000  0.4877890000000 1.0
C      1  0.5087570000000  0.4843380000000  0.4059430000000 1.0
C      1  0.5062020000000  0.5909070000000  0.4578990000000 1.0
C      1  0.5064390000000  0.5621770000000  0.5655240000000 1.0
C      1  0.4575760000000  0.5487070000000  0.5829470000000 1.0
C      1  0.4608880000000  0.6003360000000  0.4808150000000 1.0
C      1  0.4702520000000  0.5191850000000  0.4135400000000 1.0
C      1  0.4628310000000  0.4038770000000  0.4599720000000 1.0
C      1  0.4591340000000  0.4293020000000  0.5731500000000 1.0
C      1  0.5425130000000  0.5318160000000  0.4021190000000 1.0
C      1  0.5365760000000  0.5892820000000  0.5166380000000 1.0
C      1  0.5385840000000  0.5071670000000  0.5983550000000 1.0
C      1  0.5399620000000  0.4184790000000  0.5361720000000 1.0
C      1  0.5443740000000  0.4330700000000  0.4288630000000 1.0
C      1  0.4777960000000  0.5628620000000  0.5006150000000 1.0
C      1  0.4425740000000  0.5149030000000  0.4525570000000 1.0
C      1  0.4549830000000  0.4556860000000  0.4703450000000 1.0
C      1  0.4510850000000  0.4531300000000  0.5307110000000 1.0
C      1  0.4754840000000  0.5152820000000  0.5596640000000 1.0
C      1  0.5512400000000  0.5452540000000  0.4955070000000 1.0
C      1  0.5478640000000  0.5188930000000  0.5437080000000 1.0
C      1  0.5304380000000  0.4612990000000  0.5289060000000 1.0
C      1  0.5388130000000  0.4594480000000  0.4670380000000 1.0
C      1  0.5519550000000  0.5162740000000  0.4432660000000 1.0
C      1  0.4126870000000  0.5334600000000  0.5495830000000 1.0
C      1  0.4190810000000  0.5591880000000  0.4880810000000 1.0
C      1  0.4016680000000  0.4802350000000  0.4427520000000 1.0
C      1  0.4159580000000  0.4376300000000  0.4800630000000 1.0
C      1  0.4064360000000  0.4552760000000  0.5496720000000 1.0
C      1  0.5944880000000  0.5424890000000  0.4559150000000 1.0
C      1  0.5890240000000  0.5551570000000  0.5203120000000 1.0
C      1  0.5890240000000  0.5024580000000  0.5578860000000 1.0
C      1  0.5798490000000  0.4573040000000  0.5200860000000 1.0
C      1  0.5858090000000  0.4649840000000  0.4664590000000 1.0
C      1  0.5188080000000  0.4893960000000  0.4932610000000 1.0
C      1  0.5142950000000  0.5021380000000  0.5172710000000 1.0
C      1  0.5120050000000  0.5311940000000  0.5134330000000 1.0
C      1  0.5230170000000  0.5364300000000  0.4845320000000 1.0
C      1  0.5208520000000  0.5087010000000  0.4737110000000 1.0
C      1  0.4788780000000  0.4730430000000  0.5028720000000 1.0
C      1  0.4804490000000  0.4807110000000  0.4727760000000 1.0
C      1  0.4768790000000  0.5105690000000  0.4790850000000 1.0
C      1  0.4657470000000  0.5184610000000  0.5048680000000 1.0
C      1  0.4711080000000  0.4935610000000  0.5211270000000 1.0
C      1  0.5023660000000  0.4121210000000  0.5645260000000 1.0
C      1  0.5047690000000  0.4092910000000  0.4386040000000 1.0
C      1  0.4991950000000  0.6138810000000  0.5027070000000 1.0
C      1  0.5146740000000  0.5364690000000  0.4027940000000 1.0
C      1  0.4969020000000  0.5319770000000  0.6036820000000 1.0
C      1  0.6133880000000  0.5060340000000  0.4803980000000 1.0
C      1  0.3972620000000  0.5266830000000  0.5083710000000 1.0
END
