TITL C-3577079-311-117 -2.53702384648197e-07 125000 -233.871121060019 0 0 39 (C1) n - 1
REM
REM in /home/bkarasulu/work/CARBON/AIRSS/Generating-Clusters/EDIP-Nigel-Params/with-SteepDescent/Higher-Symm/SD-CG/HFTN-CG
REM
REM
REM
REM
REM
REM ./C.cell (12c818d87b63d06a65506943cc24bca4)
REM
REM compiler GCC version 9.2.1 20190827 (Red Hat 9.2.1-1)
REM options -cpp -mtune=generic -march=x86-64 -g -O0 -fpre-include=/usr/include/finclude/math-vector-fortran.h
REM seed 2034884046 -2144529716 1362874256 -1057051554 243273485 -412911185 -1038832270 260694982 -143184966 -379874074 -1540891727 -543470595 1440807170 709494 1972788288 -137736992 -1454923274 957137310 -1159069231 1781373566 -1442173624 898602048 -854357051 450046585 -671888416 -991015738 805540967 -1153817410 1190407228 -2036764413 -964743351 265718364 1623095728
REM
CELL 1.54180   50.00000   50.00000   50.00000   90.00000   90.00000   90.00000
LATT -1
SFAC C  
C      1  0.4811440000000  0.4644460000000  0.4786990000000 1.0
C      1  0.4663030000000  0.5524140000000  0.4706610000000 1.0
C      1  0.4749200000000  0.5026120000000  0.5540630000000 1.0
C      1  0.5243210000000  0.4492890000000  0.4769350000000 1.0
C      1  0.5221260000000  0.5371680000000  0.4760400000000 1.0
C      1  0.5248860000000  0.5030900000000  0.5510520000000 1.0
C      1  0.4750480000000  0.4492840000000  0.5252550000000 1.0
C      1  0.4763530000000  0.5409160000000  0.5240860000000 1.0
C      1  0.4817890000000  0.5064900000000  0.4465170000000 1.0
C      1  0.5243240000000  0.4545260000000  0.5236440000000 1.0
C      1  0.5253500000000  0.5423020000000  0.5310360000000 1.0
C      1  0.5324910000000  0.5018760000000  0.4437470000000 1.0
C      1  0.4831270000000  0.5707960000000  0.4829220000000 1.0
C      1  0.4870800000000  0.4816700000000  0.5699420000000 1.0
C      1  0.4887980000000  0.4581060000000  0.4513820000000 1.0
C      1  0.5136240000000  0.5643090000000  0.4856320000000 1.0
C      1  0.5158360000000  0.4799540000000  0.5658640000000 1.0
C      1  0.5161860000000  0.4492210000000  0.4496910000000 1.0
C      1  0.4869030000000  0.5671840000000  0.5141760000000 1.0
C      1  0.4897770000000  0.4814250000000  0.4330090000000 1.0
C      1  0.4873620000000  0.4479640000000  0.5516530000000 1.0
C      1  0.5176150000000  0.5664340000000  0.5175340000000 1.0
C      1  0.5191000000000  0.4808590000000  0.4286360000000 1.0
C      1  0.5159370000000  0.4535860000000  0.5512290000000 1.0
C      1  0.4544970000000  0.4684920000000  0.5251610000000 1.0
C      1  0.4646370000000  0.5046490000000  0.4698090000000 1.0
C      1  0.4546110000000  0.5300940000000  0.5100130000000 1.0
C      1  0.5358710000000  0.4771210000000  0.5116560000000 1.0
C      1  0.5468910000000  0.4907860000000  0.4651890000000 1.0
C      1  0.5445830000000  0.5261990000000  0.5170380000000 1.0
C      1  0.4577710000000  0.4798430000000  0.4812480000000 1.0
C      1  0.4542160000000  0.4924460000000  0.5380620000000 1.0
C      1  0.4564530000000  0.5292020000000  0.4821390000000 1.0
C      1  0.5412620000000  0.4712380000000  0.4843460000000 1.0
C      1  0.5415690000000  0.4999750000000  0.5282930000000 1.0
C      1  0.5450570000000  0.5280140000000  0.4890630000000 1.0
C      1  0.5144760000000  0.5236650000000  0.4515330000000 1.0
C      1  0.4930950000000  0.5236530000000  0.5420780000000 1.0
C      1  0.4935030000000  0.4487030000000  0.5009690000000 1.0
END
