TITL C-3578206-1180-684 -5.26057665041247e-06 125000 -1028.02455412847 0 0 166 (C1) n - 1
REM
REM in /home/bkarasulu/work/CARBON/AIRSS/Generating-Clusters/EDIP-Nigel-Params/with-SteepDescent/Higher-Symm/SD-CG/HFTN-CG
REM
REM
REM
REM
REM
REM ./C.cell (12c818d87b63d06a65506943cc24bca4)
REM
REM compiler GCC version 9.2.1 20190827 (Red Hat 9.2.1-1)
REM options -cpp -mtune=generic -march=x86-64 -g -O0 -fpre-include=/usr/include/finclude/math-vector-fortran.h
REM seed 296219814 914290565 2040470487 1842556795 1385078111 -1326460300 519778899 -1093693626 -394255412 77575193 1169382380 -643818373 356192288 -1289273189 12229200 351659274 -690896685 1725675498 2141740158 472103363 -2029051505 651734145 -1853340617 1948228199 1909007126 -1763613840 -1509864252 -854658297 -1113004516 -21416335 -429213197 -994992908 -2127280148
REM
CELL 1.54180   50.00000   50.00000   50.00000   90.00000   90.00000   90.00000
LATT -1
SFAC C  
C      1  0.4797510000000  0.5064820000000  0.4594950000000 1.0
C      1  0.5058550000000  0.4861860000000  0.5358090000000 1.0
C      1  0.5240450000000  0.5015810000000  0.4661940000000 1.0
C      1  0.4946620000000  0.5136850000000  0.5358850000000 1.0
C      1  0.4452990000000  0.4196310000000  0.4472330000000 1.0
C      1  0.5792670000000  0.4424720000000  0.5528030000000 1.0
C      1  0.5567090000000  0.5821010000000  0.4470880000000 1.0
C      1  0.4208140000000  0.5573540000000  0.5531970000000 1.0
C      1  0.4432170000000  0.4687900000000  0.4412640000000 1.0
C      1  0.5299980000000  0.4502740000000  0.5482770000000 1.0
C      1  0.5541860000000  0.5314200000000  0.4439900000000 1.0
C      1  0.4699350000000  0.5498950000000  0.5487380000000 1.0
C      1  0.4534900000000  0.5256670000000  0.4544870000000 1.0
C      1  0.4818650000000  0.4653820000000  0.5472330000000 1.0
C      1  0.5446720000000  0.4789340000000  0.4544550000000 1.0
C      1  0.5190330000000  0.5344230000000  0.5483530000000 1.0
C      1  0.4460170000000  0.4432170000000  0.5614370000000 1.0
C      1  0.5549270000000  0.4398360000000  0.4376990000000 1.0
C      1  0.5541260000000  0.5579710000000  0.5613760000000 1.0
C      1  0.4397970000000  0.5640110000000  0.4302750000000 1.0
C      1  0.5220520000000  0.5066600000000  0.4942160000000 1.0
C      1  0.4888180000000  0.5189410000000  0.5061920000000 1.0
C      1  0.4776850000000  0.4990160000000  0.4886550000000 1.0
C      1  0.5137700000000  0.4824670000000  0.5078990000000 1.0
C      1  0.4058120000000  0.5625790000000  0.4990680000000 1.0
C      1  0.4402360000000  0.4092900000000  0.5001630000000 1.0
C      1  0.5931430000000  0.4373830000000  0.4991880000000 1.0
C      1  0.5608320000000  0.5941370000000  0.5008850000000 1.0
C      1  0.4765140000000  0.4130350000000  0.5297460000000 1.0
C      1  0.5936380000000  0.4761900000000  0.4712190000000 1.0
C      1  0.5237920000000  0.5884990000000  0.5303920000000 1.0
C      1  0.4061650000000  0.5251710000000  0.4707980000000 1.0
C      1  0.5170960000000  0.5591960000000  0.5238120000000 1.0
C      1  0.4352930000000  0.5176550000000  0.4772220000000 1.0
C      1  0.4838160000000  0.4422130000000  0.5224970000000 1.0
C      1  0.5650940000000  0.4845360000000  0.4780990000000 1.0
C      1  0.4306930000000  0.5576830000000  0.5157480000000 1.0
C      1  0.4435710000000  0.4335960000000  0.4832300000000 1.0
C      1  0.5685230000000  0.4428520000000  0.5156330000000 1.0
C      1  0.5572150000000  0.5693680000000  0.4837990000000 1.0
C      1  0.5314260000000  0.5502820000000  0.4964100000000 1.0
C      1  0.4459480000000  0.5296060000000  0.5055540000000 1.0
C      1  0.4702020000000  0.4518860000000  0.4938740000000 1.0
C      1  0.5554590000000  0.4716120000000  0.5059060000000 1.0
C      1  0.5976400000000  0.5096090000000  0.5257250000000 1.0
C      1  0.4899960000000  0.5892500000000  0.4729320000000 1.0
C      1  0.4030100000000  0.4913640000000  0.5253200000000 1.0
C      1  0.5103830000000  0.4004740000000  0.4716560000000 1.0
C      1  0.5739840000000  0.5511800000000  0.5201450000000 1.0
C      1  0.4482460000000  0.5697000000000  0.4775800000000 1.0
C      1  0.4293670000000  0.4525900000000  0.5196690000000 1.0
C      1  0.5484390000000  0.4270110000000  0.4797790000000 1.0
C      1  0.4923250000000  0.4757820000000  0.4491610000000 1.0
C      1  0.5312720000000  0.4922280000000  0.5491040000000 1.0
C      1  0.5058780000000  0.5236970000000  0.4565280000000 1.0
C      1  0.4690750000000  0.5075600000000  0.5487830000000 1.0
C      1  0.5833590000000  0.5163380000000  0.5507980000000 1.0
C      1  0.4865620000000  0.5704890000000  0.4506800000000 1.0
C      1  0.4169050000000  0.4845430000000  0.5506190000000 1.0
C      1  0.5166240000000  0.4141630000000  0.4455680000000 1.0
C      1  0.5462890000000  0.5212290000000  0.5034540000000 1.0
C      1  0.4788340000000  0.5452040000000  0.4977710000000 1.0
C      1  0.4565850000000  0.4813090000000  0.4990980000000 1.0
C      1  0.5210520000000  0.4571260000000  0.4956690000000 1.0
C      1  0.4259160000000  0.4810870000000  0.4207800000000 1.0
C      1  0.5260900000000  0.4418520000000  0.5869690000000 1.0
C      1  0.5699660000000  0.5194870000000  0.4216850000000 1.0
C      1  0.4738430000000  0.5583710000000  0.5874220000000 1.0
C      1  0.5826120000000  0.4447310000000  0.4510000000000 1.0
C      1  0.5498700000000  0.5844670000000  0.5474430000000 1.0
C      1  0.4127950000000  0.5560630000000  0.4479380000000 1.0
C      1  0.4504040000000  0.4172040000000  0.5469050000000 1.0
C      1  0.5424770000000  0.5498430000000  0.5877030000000 1.0
C      1  0.4512190000000  0.5470220000000  0.4067840000000 1.0
C      1  0.4574420000000  0.4505420000000  0.5877740000000 1.0
C      1  0.5482430000000  0.4504410000000  0.4109390000000 1.0
C      1  0.5233640000000  0.5293730000000  0.4312140000000 1.0
C      1  0.4665480000000  0.5225520000000  0.5755190000000 1.0
C      1  0.4720870000000  0.4688990000000  0.4283130000000 1.0
C      1  0.5340520000000  0.4774630000000  0.5756070000000 1.0
C      1  0.5703610000000  0.5806620000000  0.5252910000000 1.0
C      1  0.4192030000000  0.5707880000000  0.4741600000000 1.0
C      1  0.4309610000000  0.4230050000000  0.5244570000000 1.0
C      1  0.5779940000000  0.4282930000000  0.4751750000000 1.0
C      1  0.4959740000000  0.5999790000000  0.5400380000000 1.0
C      1  0.3957500000000  0.4964010000000  0.4626240000000 1.0
C      1  0.5039410000000  0.4005440000000  0.5394520000000 1.0
C      1  0.6040460000000  0.5048520000000  0.4620780000000 1.0
C      1  0.5145960000000  0.5533800000000  0.4145990000000 1.0
C      1  0.4416080000000  0.5115830000000  0.5872260000000 1.0
C      1  0.4868120000000  0.4449200000000  0.4142630000000 1.0
C      1  0.5589040000000  0.4887710000000  0.5872420000000 1.0
C      1  0.4161970000000  0.4454460000000  0.4689200000000 1.0
C      1  0.5526650000000  0.4157320000000  0.5290040000000 1.0
C      1  0.5850730000000  0.5561710000000  0.4696270000000 1.0
C      1  0.4464860000000  0.5844590000000  0.5291520000000 1.0
C      1  0.4671550000000  0.5893840000000  0.4898360000000 1.0
C      1  0.4076840000000  0.4689360000000  0.5074080000000 1.0
C      1  0.5326680000000  0.4044140000000  0.4904300000000 1.0
C      1  0.5951800000000  0.5330430000000  0.5082690000000 1.0
C      1  0.5312590000000  0.4380500000000  0.4572180000000 1.0
C      1  0.5615760000000  0.5362610000000  0.5423510000000 1.0
C      1  0.4582440000000  0.5572250000000  0.4526290000000 1.0
C      1  0.4390720000000  0.4656410000000  0.5433110000000 1.0
C      1  0.4931100000000  0.4345870000000  0.5652410000000 1.0
C      1  0.5764590000000  0.4775380000000  0.4313930000000 1.0
C      1  0.5067270000000  0.5658660000000  0.5662110000000 1.0
C      1  0.4224390000000  0.5236800000000  0.4305560000000 1.0
C      1  0.4108400000000  0.4734520000000  0.4781860000000 1.0
C      1  0.5251940000000  0.4109720000000  0.5187410000000 1.0
C      1  0.5910320000000  0.5284700000000  0.4791750000000 1.0
C      1  0.4739150000000  0.5886170000000  0.5189680000000 1.0
C      1  0.5319450000000  0.6003070000000  0.5035210000000 1.0
C      1  0.3956460000000  0.5348660000000  0.4973060000000 1.0
C      1  0.4685410000000  0.4012960000000  0.5029450000000 1.0
C      1  0.6041100000000  0.4653410000000  0.4973420000000 1.0
C      1  0.5645070000000  0.4742260000000  0.4047580000000 1.0
C      1  0.5176390000000  0.5651800000000  0.5935630000000 1.0
C      1  0.4311740000000  0.5250580000000  0.4020900000000 1.0
C      1  0.4822430000000  0.4350970000000  0.5928000000000 1.0
C      1  0.4840980000000  0.4104610000000  0.4791740000000 1.0
C      1  0.5956250000000  0.4806650000000  0.5215300000000 1.0
C      1  0.5181090000000  0.5902880000000  0.4792390000000 1.0
C      1  0.4056390000000  0.5199410000000  0.5209250000000 1.0
C      1  0.5930030000000  0.5023330000000  0.4337440000000 1.0
C      1  0.4867250000000  0.5870350000000  0.5643950000000 1.0
C      1  0.4051300000000  0.4995000000000  0.4340860000000 1.0
C      1  0.5132070000000  0.4131800000000  0.5640140000000 1.0
C      1  0.5034970000000  0.4512790000000  0.6047930000000 1.0
C      1  0.5518960000000  0.5017580000000  0.4035050000000 1.0
C      1  0.4964280000000  0.5487210000000  0.6055270000000 1.0
C      1  0.4424420000000  0.4974150000000  0.4004030000000 1.0
C      1  0.5290010000000  0.5212100000000  0.5815450000000 1.0
C      1  0.4742920000000  0.5288990000000  0.4159010000000 1.0
C      1  0.4711430000000  0.4790140000000  0.5812310000000 1.0
C      1  0.5183220000000  0.4773480000000  0.4297090000000 1.0
C      1  0.5845590000000  0.4696250000000  0.5464200000000 1.0
C      1  0.5294290000000  0.5831290000000  0.4529920000000 1.0
C      1  0.4160470000000  0.5302770000000  0.5463110000000 1.0
C      1  0.4727960000000  0.4202260000000  0.4539420000000 1.0
C      1  0.5146570000000  0.4398790000000  0.5202480000000 1.0
C      1  0.5638410000000  0.5160190000000  0.4778980000000 1.0
C      1  0.4855510000000  0.5604990000000  0.5224160000000 1.0
C      1  0.4376600000000  0.4863790000000  0.4749980000000 1.0
C      1  0.5224600000000  0.5030240000000  0.4132680000000 1.0
C      1  0.5041020000000  0.5216810000000  0.5980530000000 1.0
C      1  0.4735530000000  0.4994960000000  0.4078170000000 1.0
C      1  0.4961370000000  0.4784340000000  0.5975330000000 1.0
C      1  0.4455480000000  0.5025850000000  0.5278680000000 1.0
C      1  0.4975990000000  0.4519480000000  0.4721180000000 1.0
C      1  0.5552540000000  0.4975660000000  0.5288460000000 1.0
C      1  0.5046920000000  0.5480700000000  0.4769600000000 1.0
C      1  0.5789140000000  0.4906700000000  0.5654640000000 1.0
C      1  0.5096280000000  0.5758130000000  0.4324760000000 1.0
C      1  0.4222000000000  0.5095770000000  0.5649530000000 1.0
C      1  0.4906920000000  0.4206800000000  0.4318600000000 1.0
C      1  0.5529460000000  0.4305090000000  0.5540210000000 1.0
C      1  0.5705440000000  0.5573430000000  0.4444570000000 1.0
C      1  0.4470370000000  0.5695120000000  0.5542180000000 1.0
C      1  0.4289520000000  0.4427320000000  0.4429460000000 1.0
C      1  0.5126290000000  0.4567560000000  0.4072450000000 1.0
C      1  0.5532290000000  0.5143690000000  0.5987630000000 1.0
C      1  0.4900830000000  0.5470380000000  0.4010760000000 1.0
C      1  0.4472760000000  0.4861040000000  0.5989770000000 1.0
C      1  0.5001220000000  0.5006090000000  0.3935930000000 1.0
C      1  0.4999780000000  0.4998850000000  0.6154600000000 1.0
END
