TITL C-3577078-809-386 -3.31199776730883e-06 125000 -540.642373136617 0 0 89 (C1) n - 1
REM
REM in /home/bkarasulu/work/CARBON/AIRSS/Generating-Clusters/EDIP-Nigel-Params/with-SteepDescent/Higher-Symm/SD-CG/HFTN-CG
REM
REM
REM
REM
REM
REM ./C.cell (12c818d87b63d06a65506943cc24bca4)
REM
REM compiler GCC version 9.2.1 20190827 (Red Hat 9.2.1-1)
REM options -cpp -mtune=generic -march=x86-64 -g -O0 -fpre-include=/usr/include/finclude/math-vector-fortran.h
REM seed -1124271313 -554331804 418196298 -182467726 -283484212 -669954940 1116555071 325133308 1058843138 -865491841 1016084894 -1948634392 982561344 -1752696026 1918737624 1076803597 490431303 1633830895 -1110822897 -677719341 -1764416969 1385383130 1557143470 1830890068 -916437196 96877064 215840578 904079360 -1764733881 -179112833 641543271 749180095 -1996729565
REM
CELL 1.54180   50.00000   50.00000   50.00000   90.00000   90.00000   90.00000
LATT -1
SFAC C  
C      1  0.5429450000000  0.5161430000000  0.5429950000000 1.0
C      1  0.5214480000000  0.5394380000000  0.5430000000000 1.0
C      1  0.4900270000000  0.5337000000000  0.5430410000000 1.0
C      1  0.4565910000000  0.4958680000000  0.5453340000000 1.0
C      1  0.4592640000000  0.4656650000000  0.5493860000000 1.0
C      1  0.4888870000000  0.4590540000000  0.5399040000000 1.0
C      1  0.5304120000000  0.4876490000000  0.5427270000000 1.0
C      1  0.4414970000000  0.5032210000000  0.5191860000000 1.0
C      1  0.4370520000000  0.4505770000000  0.5359660000000 1.0
C      1  0.4920080000000  0.4400350000000  0.5154370000000 1.0
C      1  0.5440090000000  0.4673190000000  0.5250400000000 1.0
C      1  0.5628530000000  0.5178460000000  0.5204770000000 1.0
C      1  0.5300370000000  0.5557350000000  0.5176290000000 1.0
C      1  0.4799140000000  0.5456600000000  0.5160610000000 1.0
C      1  0.5174630000000  0.4601020000000  0.5826600000000 1.0
C      1  0.5461600000000  0.4998590000000  0.5874010000000 1.0
C      1  0.5429220000000  0.5385850000000  0.5852180000000 1.0
C      1  0.4992980000000  0.5590220000000  0.5806020000000 1.0
C      1  0.4624320000000  0.5263460000000  0.5831660000000 1.0
C      1  0.4522760000000  0.4892870000000  0.5911110000000 1.0
C      1  0.4806790000000  0.4484120000000  0.5872700000000 1.0
C      1  0.5804830000000  0.4966390000000  0.5179570000000 1.0
C      1  0.5574900000000  0.5644990000000  0.5191440000000 1.0
C      1  0.4872700000000  0.5733170000000  0.5153910000000 1.0
C      1  0.4336990000000  0.5307980000000  0.5225850000000 1.0
C      1  0.4141490000000  0.4648100000000  0.5290980000000 1.0
C      1  0.4702990000000  0.4216590000000  0.5168050000000 1.0
C      1  0.5365240000000  0.4405690000000  0.5254810000000 1.0
C      1  0.4577730000000  0.4633770000000  0.5791940000000 1.0
C      1  0.4996290000000  0.4459940000000  0.5653610000000 1.0
C      1  0.5329780000000  0.4804390000000  0.5713960000000 1.0
C      1  0.5566260000000  0.5191940000000  0.5695170000000 1.0
C      1  0.5243350000000  0.5533720000000  0.5693030000000 1.0
C      1  0.4785670000000  0.5451030000000  0.5680560000000 1.0
C      1  0.4451490000000  0.5075170000000  0.5704860000000 1.0
C      1  0.4548850000000  0.4819210000000  0.4117620000000 1.0
C      1  0.4751970000000  0.4659100000000  0.4252680000000 1.0
C      1  0.5204210000000  0.4823450000000  0.4332360000000 1.0
C      1  0.5404020000000  0.4944770000000  0.4127490000000 1.0
C      1  0.5236910000000  0.5404460000000  0.4262520000000 1.0
C      1  0.5032510000000  0.5581690000000  0.4140420000000 1.0
C      1  0.4705110000000  0.5243550000000  0.4262030000000 1.0
C      1  0.4959340000000  0.4558750000000  0.4880560000000 1.0
C      1  0.5254610000000  0.4814080000000  0.4874090000000 1.0
C      1  0.5393480000000  0.5137580000000  0.4829980000000 1.0
C      1  0.5231300000000  0.5387450000000  0.4912990000000 1.0
C      1  0.4946470000000  0.5280430000000  0.4946400000000 1.0
C      1  0.4587980000000  0.4981500000000  0.4906770000000 1.0
C      1  0.4681850000000  0.4686770000000  0.4824330000000 1.0
C      1  0.5090390000000  0.4371060000000  0.4435010000000 1.0
C      1  0.5562350000000  0.4646950000000  0.4484510000000 1.0
C      1  0.5648150000000  0.5216170000000  0.4418200000000 1.0
C      1  0.5332140000000  0.5762390000000  0.4501410000000 1.0
C      1  0.4759660000000  0.5569240000000  0.4553750000000 1.0
C      1  0.4312530000000  0.5036140000000  0.4469470000000 1.0
C      1  0.4500190000000  0.4359480000000  0.4485430000000 1.0
C      1  0.4088750000000  0.4893290000000  0.4878730000000 1.0
C      1  0.4331330000000  0.4340370000000  0.4923160000000 1.0
C      1  0.5210240000000  0.4164750000000  0.4869950000000 1.0
C      1  0.5737640000000  0.4585100000000  0.4907730000000 1.0
C      1  0.5788650000000  0.5419140000000  0.4829360000000 1.0
C      1  0.5197290000000  0.5875700000000  0.4847200000000 1.0
C      1  0.4515980000000  0.5385640000000  0.4789100000000 1.0
C      1  0.5703430000000  0.4712420000000  0.5150750000000 1.0
C      1  0.5720040000000  0.5429450000000  0.5100050000000 1.0
C      1  0.5136630000000  0.5800930000000  0.5119560000000 1.0
C      1  0.4516130000000  0.5447480000000  0.5071450000000 1.0
C      1  0.4163120000000  0.4883310000000  0.5147760000000 1.0
C      1  0.4438580000000  0.4295270000000  0.5174210000000 1.0
C      1  0.5172800000000  0.4246960000000  0.5138620000000 1.0
C      1  0.4782310000000  0.5312180000000  0.4693150000000 1.0
C      1  0.4314580000000  0.4996160000000  0.4745340000000 1.0
C      1  0.4464180000000  0.4492700000000  0.4727890000000 1.0
C      1  0.5050070000000  0.4330870000000  0.4708210000000 1.0
C      1  0.5506630000000  0.4647860000000  0.4757510000000 1.0
C      1  0.5650410000000  0.5211150000000  0.4697670000000 1.0
C      1  0.5209100000000  0.5620520000000  0.4717630000000 1.0
C      1  0.5466610000000  0.5228950000000  0.4204550000000 1.0
C      1  0.5198040000000  0.5792590000000  0.4254530000000 1.0
C      1  0.4753500000000  0.5546240000000  0.4263980000000 1.0
C      1  0.4459320000000  0.5069810000000  0.4235060000000 1.0
C      1  0.4563260000000  0.4449990000000  0.4237090000000 1.0
C      1  0.5035710000000  0.4588530000000  0.4269380000000 1.0
C      1  0.5592830000000  0.4760600000000  0.4236810000000 1.0
C      1  0.4966650000000  0.4965240000000  0.5017880000000 1.0
C      1  0.4841860000000  0.5055190000000  0.5446650000000 1.0
C      1  0.4924950000000  0.5124190000000  0.4110380000000 1.0
C      1  0.5019480000000  0.5041210000000  0.4365780000000 1.0
C      1  0.5011190000000  0.4870310000000  0.5320360000000 1.0
END
