TITL C-3578208-4450-166 3.59705994303412e-08 125000 -27.3685144891714 0 0 6 (D(inf)h) n - 1
REM
REM in /home/bkarasulu/work/CARBON/AIRSS/Generating-Clusters/EDIP-Nigel-Params/with-SteepDescent/Higher-Symm/SD-CG/HFTN-CG
REM
REM
REM
REM
REM
REM ./C.cell (12c818d87b63d06a65506943cc24bca4)
REM
REM compiler GCC version 9.2.1 20190827 (Red Hat 9.2.1-1)
REM options -cpp -mtune=generic -march=x86-64 -g -O0 -fpre-include=/usr/include/finclude/math-vector-fortran.h
REM seed -1790795549 1934172390 804134770 -56128246 -1027583702 957111375 865088902 -746639883 443537534 2087857223 676804814 1241738379 -656101707 1443127848 1871362255 -496559476 -685091546 -1176781141 1409544781 1451661969 741165812 -1388381100 498572889 2037916671 2091299090 1413545385 -1516979362 1265952460 2116005721 -2018359597 955828512 695264222 -1205136353
REM
CELL 1.54180   50.00000   50.00000   50.00000   90.00000   90.00000   90.00000
LATT -1
SFAC C  
C      1  0.4978930000000  0.5651490000000  0.5013850000000 1.0
C      1  0.4978930000000  0.5395780000000  0.5013850000000 1.0
C      1  0.4978930000000  0.5131930000000  0.5013850000000 1.0
C      1  0.4978930000000  0.4348510000000  0.5013850000000 1.0
C      1  0.4978930000000  0.4868070000000  0.5013850000000 1.0
C      1  0.4978930000000  0.4604220000000  0.5013850000000 1.0
END
