TITL C-3578201-9217-506 -0.00557266030431623 125000 -753.64548034395 0 0 121 (C1) n - 1
REM
REM in /home/bkarasulu/work/CARBON/AIRSS/Generating-Clusters/EDIP-Nigel-Params/with-SteepDescent/Higher-Symm/SD-CG/HFTN-CG
REM
REM
REM
REM
REM
REM ./C.cell (12c818d87b63d06a65506943cc24bca4)
REM
REM compiler GCC version 9.2.1 20190827 (Red Hat 9.2.1-1)
REM options -cpp -mtune=generic -march=x86-64 -g -O0 -fpre-include=/usr/include/finclude/math-vector-fortran.h
REM seed -1160766841 267505611 1622619887 380088521 1235859663 1126426689 -606163581 -1861574509 613256938 1064994960 2049913610 347241663 1476375570 -710150375 104970148 -1691501405 367510504 580673631 2117107035 210388513 1793109709 1904699897 -688047663 384605729 -78475989 1560697215 -790616708 -1617407070 1917305967 -539706269 1442991166 -2008821090 2113238993
REM
CELL 1.54180   50.00000   50.00000   50.00000   90.00000   90.00000   90.00000
LATT -1
SFAC C  
C      1  0.3794860000000  0.5288810000000  0.4722610000000 1.0
C      1  0.3750860000000  0.5052800000000  0.4607490000000 1.0
C      1  0.3815410000000  0.4795590000000  0.4587200000000 1.0
C      1  0.3988910000000  0.4589970000000  0.4646240000000 1.0
C      1  0.3956450000000  0.4464640000000  0.4889920000000 1.0
C      1  0.4085950000000  0.4477630000000  0.5133400000000 1.0
C      1  0.4006050000000  0.4689000000000  0.5293850000000 1.0
C      1  0.4128610000000  0.4902550000000  0.5420740000000 1.0
C      1  0.4086440000000  0.5186210000000  0.5356200000000 1.0
C      1  0.3906960000000  0.5283490000000  0.5169860000000 1.0
C      1  0.3930000000000  0.5414700000000  0.4927440000000 1.0
C      1  0.5447830000000  0.4429880000000  0.5441480000000 1.0
C      1  0.5448340000000  0.4823340000000  0.5726890000000 1.0
C      1  0.5392840000000  0.5308760000000  0.5731320000000 1.0
C      1  0.5309200000000  0.5720130000000  0.5479880000000 1.0
C      1  0.5245670000000  0.5945150000000  0.5035950000000 1.0
C      1  0.5131950000000  0.5905700000000  0.4469350000000 1.0
C      1  0.5229150000000  0.5530500000000  0.4112620000000 1.0
C      1  0.5192130000000  0.4996220000000  0.3996210000000 1.0
C      1  0.5231550000000  0.4559760000000  0.4181460000000 1.0
C      1  0.5297910000000  0.4266990000000  0.4520240000000 1.0
C      1  0.5383820000000  0.4265730000000  0.4985860000000 1.0
C      1  0.4724910000000  0.4999960000000  0.5934210000000 1.0
C      1  0.4653980000000  0.5505030000000  0.5803620000000 1.0
C      1  0.4566870000000  0.5840680000000  0.5415850000000 1.0
C      1  0.4470550000000  0.5910930000000  0.4901430000000 1.0
C      1  0.4311120000000  0.5741650000000  0.4431100000000 1.0
C      1  0.4340490000000  0.5285060000000  0.4169010000000 1.0
C      1  0.4492900000000  0.4765710000000  0.4158890000000 1.0
C      1  0.4559050000000  0.4297810000000  0.4393450000000 1.0
C      1  0.4647530000000  0.4073360000000  0.4864680000000 1.0
C      1  0.4723570000000  0.4168400000000  0.5374220000000 1.0
C      1  0.4750610000000  0.4512380000000  0.5766740000000 1.0
C      1  0.6827130000000  0.4239740000000  0.5438430000000 1.0
C      1  0.6565620000000  0.4200710000000  0.5454990000000 1.0
C      1  0.6319450000000  0.4297540000000  0.5445420000000 1.0
C      1  0.6142720000000  0.4492410000000  0.5414870000000 1.0
C      1  0.6053700000000  0.4748740000000  0.5373480000000 1.0
C      1  0.6236970000000  0.4947500000000  0.5325840000000 1.0
C      1  0.6476610000000  0.5056550000000  0.5296910000000 1.0
C      1  0.6741070000000  0.5048050000000  0.5289190000000 1.0
C      1  0.6965660000000  0.4908730000000  0.5307520000000 1.0
C      1  0.7074380000000  0.4670470000000  0.5348570000000 1.0
C      1  0.7021570000000  0.4415450000000  0.5398480000000 1.0
C      1  0.5576230000000  0.5594850000000  0.5116190000000 1.0
C      1  0.5593690000000  0.5678380000000  0.4832700000000 1.0
C      1  0.5474990000000  0.5530890000000  0.4605680000000 1.0
C      1  0.5572480000000  0.5327660000000  0.4418330000000 1.0
C      1  0.5497900000000  0.5043310000000  0.4401520000000 1.0
C      1  0.5573510000000  0.4776130000000  0.4504770000000 1.0
C      1  0.5566190000000  0.4639830000000  0.4767720000000 1.0
C      1  0.5660850000000  0.4674640000000  0.5057040000000 1.0
C      1  0.5762750000000  0.4801290000000  0.5336620000000 1.0
C      1  0.5695990000000  0.5102420000000  0.5407960000000 1.0
C      1  0.5654520000000  0.5394850000000  0.5330530000000 1.0
C      1  0.5448230000000  0.4373810000000  0.4731280000000 1.0
C      1  0.5526200000000  0.4433780000000  0.5166590000000 1.0
C      1  0.5597590000000  0.4649540000000  0.5551000000000 1.0
C      1  0.5552250000000  0.5080840000000  0.5664890000000 1.0
C      1  0.5488990000000  0.5507490000000  0.5551560000000 1.0
C      1  0.5408340000000  0.5802500000000  0.5226680000000 1.0
C      1  0.5422250000000  0.5924640000000  0.4799320000000 1.0
C      1  0.5380040000000  0.5764030000000  0.4454610000000 1.0
C      1  0.5481310000000  0.5440810000000  0.4172400000000 1.0
C      1  0.5427640000000  0.5017050000000  0.4129780000000 1.0
C      1  0.5472670000000  0.4597080000000  0.4308250000000 1.0
C      1  0.5016900000000  0.4200180000000  0.5324770000000 1.0
C      1  0.5044510000000  0.4530360000000  0.5731470000000 1.0
C      1  0.5016050000000  0.5028630000000  0.5890720000000 1.0
C      1  0.4944500000000  0.5531620000000  0.5758060000000 1.0
C      1  0.4855220000000  0.5870860000000  0.5362630000000 1.0
C      1  0.4770370000000  0.5942200000000  0.4847180000000 1.0
C      1  0.4825810000000  0.5717440000000  0.4324590000000 1.0
C      1  0.4827510000000  0.5278090000000  0.4070310000000 1.0
C      1  0.4788950000000  0.4778970000000  0.4132170000000 1.0
C      1  0.4848540000000  0.4342500000000  0.4369370000000 1.0
C      1  0.4939260000000  0.4117430000000  0.4814370000000 1.0
C      1  0.4951570000000  0.4536910000000  0.4177310000000 1.0
C      1  0.5029850000000  0.4184850000000  0.4537410000000 1.0
C      1  0.5122620000000  0.4144080000000  0.5049000000000 1.0
C      1  0.5172900000000  0.4361730000000  0.5521220000000 1.0
C      1  0.5173500000000  0.4782480000000  0.5822640000000 1.0
C      1  0.5120020000000  0.5301200000000  0.5833040000000 1.0
C      1  0.5033550000000  0.5745660000000  0.5567190000000 1.0
C      1  0.4951030000000  0.5954230000000  0.5088220000000 1.0
C      1  0.4888090000000  0.5820890000000  0.4594560000000 1.0
C      1  0.4955570000000  0.5509620000000  0.4166460000000 1.0
C      1  0.4916990000000  0.5016170000000  0.4020920000000 1.0
C      1  0.4328820000000  0.5353550000000  0.5400880000000 1.0
C      1  0.4402940000000  0.5494600000000  0.5123810000000 1.0
C      1  0.4211890000000  0.5497810000000  0.4862770000000 1.0
C      1  0.4304100000000  0.5330210000000  0.4622920000000 1.0
C      1  0.4317510000000  0.4952620000000  0.4559010000000 1.0
C      1  0.4274540000000  0.4647020000000  0.4588380000000 1.0
C      1  0.4466100000000  0.4506960000000  0.4805080000000 1.0
C      1  0.4383880000000  0.4449170000000  0.5108320000000 1.0
C      1  0.4534550000000  0.4618970000000  0.5340740000000 1.0
C      1  0.4402950000000  0.4849410000000  0.5523420000000 1.0
C      1  0.4525020000000  0.5139790000000  0.5522510000000 1.0
C      1  0.4256090000000  0.5469360000000  0.4371000000000 1.0
C      1  0.4337090000000  0.5008760000000  0.4257530000000 1.0
C      1  0.4381830000000  0.4534510000000  0.4322590000000 1.0
C      1  0.4468920000000  0.4227300000000  0.4675980000000 1.0
C      1  0.4533660000000  0.4158470000000  0.5136350000000 1.0
C      1  0.4602540000000  0.4391250000000  0.5538020000000 1.0
C      1  0.4602930000000  0.4753390000000  0.5838520000000 1.0
C      1  0.4557860000000  0.5220310000000  0.5816810000000 1.0
C      1  0.4481130000000  0.5639340000000  0.5610300000000 1.0
C      1  0.4400140000000  0.5795890000000  0.5173680000000 1.0
C      1  0.4275610000000  0.5763930000000  0.4715130000000 1.0
C      1  0.4910710000000  0.4594520000000  0.5019250000000 1.0
C      1  0.4784050000000  0.4728630000000  0.5221910000000 1.0
C      1  0.4936500000000  0.4911610000000  0.5358150000000 1.0
C      1  0.4788650000000  0.5141560000000  0.5383410000000 1.0
C      1  0.4871890000000  0.5359360000000  0.5238600000000 1.0
C      1  0.4680350000000  0.5411530000000  0.5048800000000 1.0
C      1  0.4770610000000  0.5438140000000  0.4788860000000 1.0
C      1  0.4605390000000  0.5283280000000  0.4631410000000 1.0
C      1  0.4589820000000  0.5004920000000  0.4681500000000 1.0
C      1  0.4804730000000  0.4836330000000  0.4637680000000 1.0
C      1  0.4751980000000  0.4611130000000  0.4794530000000 1.0
END
