TITL C-3578208-4450-531 8.92935827454537e-07 125000 -640.984037707851 0 0 105 (C1) n - 1
REM
REM in /home/bkarasulu/work/CARBON/AIRSS/Generating-Clusters/EDIP-Nigel-Params/with-SteepDescent/Higher-Symm/SD-CG/HFTN-CG
REM
REM
REM
REM
REM
REM ./C.cell (12c818d87b63d06a65506943cc24bca4)
REM
REM compiler GCC version 9.2.1 20190827 (Red Hat 9.2.1-1)
REM options -cpp -mtune=generic -march=x86-64 -g -O0 -fpre-include=/usr/include/finclude/math-vector-fortran.h
REM seed 1270960994 1421113574 1063298214 -1493902480 -1117422161 -1926467085 -502404886 -1801539511 -1433975356 580480947 -220211172 -1396312733 506115645 1358119695 848169774 -879598333 2022486728 2088047152 -1593047283 -1743587085 -1959866751 1689577138 1437844427 -1037855258 -70784950 142266371 1169784044 -536129518 490911021 -1483953303 593407867 958275770 -254327683
REM
CELL 1.54180   50.00000   50.00000   50.00000   90.00000   90.00000   90.00000
LATT -1
SFAC C  
C      1  0.4505370000000  0.5439590000000  0.4458540000000 1.0
C      1  0.5105850000000  0.5415800000000  0.4260080000000 1.0
C      1  0.5649610000000  0.5392170000000  0.4629840000000 1.0
C      1  0.5666810000000  0.5364020000000  0.5271390000000 1.0
C      1  0.5209540000000  0.5401310000000  0.5728820000000 1.0
C      1  0.4621700000000  0.5373530000000  0.5571990000000 1.0
C      1  0.4336570000000  0.5388000000000  0.5016580000000 1.0
C      1  0.5588180000000  0.4874220000000  0.5460910000000 1.0
C      1  0.4972850000000  0.4815650000000  0.5933140000000 1.0
C      1  0.4382990000000  0.4838220000000  0.5466080000000 1.0
C      1  0.4127330000000  0.4870740000000  0.4760530000000 1.0
C      1  0.4727500000000  0.4829680000000  0.4347530000000 1.0
C      1  0.5303210000000  0.4893550000000  0.4379370000000 1.0
C      1  0.5652310000000  0.4868650000000  0.4860020000000 1.0
C      1  0.4909830000000  0.5507600000000  0.4771040000000 1.0
C      1  0.5190100000000  0.5369970000000  0.4690710000000 1.0
C      1  0.5356410000000  0.5354040000000  0.4958640000000 1.0
C      1  0.5167800000000  0.5469760000000  0.5199430000000 1.0
C      1  0.4992520000000  0.5240650000000  0.5380420000000 1.0
C      1  0.4686360000000  0.5176420000000  0.5182510000000 1.0
C      1  0.4697780000000  0.5263820000000  0.4816080000000 1.0
C      1  0.5683750000000  0.4517970000000  0.5204720000000 1.0
C      1  0.5174450000000  0.4492250000000  0.5638030000000 1.0
C      1  0.4635350000000  0.4456420000000  0.5571810000000 1.0
C      1  0.4279810000000  0.4492640000000  0.5000890000000 1.0
C      1  0.4344970000000  0.4551560000000  0.4502800000000 1.0
C      1  0.5101490000000  0.4556030000000  0.4175140000000 1.0
C      1  0.5631780000000  0.4554110000000  0.4548120000000 1.0
C      1  0.5806210000000  0.4770660000000  0.5301510000000 1.0
C      1  0.5174190000000  0.4756170000000  0.5746760000000 1.0
C      1  0.4582750000000  0.4741340000000  0.5636220000000 1.0
C      1  0.4184080000000  0.4764890000000  0.5015120000000 1.0
C      1  0.4422540000000  0.4798020000000  0.4385970000000 1.0
C      1  0.5143860000000  0.4850410000000  0.4114010000000 1.0
C      1  0.5741930000000  0.4834100000000  0.4563610000000 1.0
C      1  0.5375060000000  0.5355300000000  0.4219870000000 1.0
C      1  0.5846670000000  0.5320990000000  0.4815220000000 1.0
C      1  0.5647090000000  0.5304520000000  0.5542300000000 1.0
C      1  0.4988770000000  0.5325940000000  0.5878980000000 1.0
C      1  0.4380860000000  0.5290850000000  0.5469150000000 1.0
C      1  0.4167330000000  0.5372180000000  0.4794760000000 1.0
C      1  0.4628400000000  0.5366200000000  0.4223780000000 1.0
C      1  0.4766810000000  0.5210490000000  0.5759860000000 1.0
C      1  0.4255940000000  0.5214870000000  0.5234540000000 1.0
C      1  0.4319400000000  0.5269190000000  0.4589040000000 1.0
C      1  0.4876570000000  0.5272780000000  0.4146550000000 1.0
C      1  0.5598610000000  0.5272680000000  0.4368150000000 1.0
C      1  0.5857430000000  0.5236120000000  0.5084260000000 1.0
C      1  0.5431180000000  0.5220130000000  0.5698000000000 1.0
C      1  0.5390460000000  0.5028620000000  0.4914360000000 1.0
C      1  0.5336990000000  0.5068170000000  0.5236480000000 1.0
C      1  0.5077030000000  0.4889360000000  0.5341830000000 1.0
C      1  0.4753310000000  0.4848280000000  0.5248380000000 1.0
C      1  0.4757970000000  0.4796560000000  0.4815270000000 1.0
C      1  0.4821130000000  0.4992240000000  0.4602420000000 1.0
C      1  0.5138960000000  0.5047750000000  0.4602860000000 1.0
C      1  0.4729550000000  0.4499260000000  0.5140590000000 1.0
C      1  0.4701610000000  0.4503400000000  0.4815760000000 1.0
C      1  0.4909130000000  0.4429680000000  0.4610860000000 1.0
C      1  0.5171510000000  0.4529810000000  0.4676090000000 1.0
C      1  0.5310820000000  0.4497440000000  0.4919360000000 1.0
C      1  0.5211220000000  0.4497260000000  0.5185070000000 1.0
C      1  0.4967580000000  0.4343320000000  0.5243550000000 1.0
C      1  0.5162210000000  0.3856940000000  0.5279770000000 1.0
C      1  0.4934450000000  0.3734280000000  0.5433440000000 1.0
C      1  0.4698750000000  0.3873860000000  0.5329750000000 1.0
C      1  0.4719940000000  0.3907940000000  0.5040360000000 1.0
C      1  0.4782060000000  0.3661460000000  0.4916710000000 1.0
C      1  0.4974900000000  0.3485350000000  0.5028220000000 1.0
C      1  0.5222040000000  0.3627160000000  0.5110220000000 1.0
C      1  0.4492130000000  0.4400180000000  0.5301580000000 1.0
C      1  0.4420770000000  0.4430600000000  0.4747570000000 1.0
C      1  0.4852200000000  0.4542390000000  0.4338690000000 1.0
C      1  0.5339850000000  0.4586380000000  0.4447450000000 1.0
C      1  0.5597250000000  0.4560900000000  0.4904120000000 1.0
C      1  0.5436000000000  0.4469530000000  0.5363740000000 1.0
C      1  0.4930070000000  0.4355960000000  0.5540540000000 1.0
C      1  0.5192060000000  0.5657360000000  0.5597340000000 1.0
C      1  0.4680160000000  0.5649750000000  0.5521100000000 1.0
C      1  0.4403580000000  0.5666100000000  0.5066280000000 1.0
C      1  0.4567680000000  0.5697070000000  0.4570860000000 1.0
C      1  0.5071580000000  0.5670510000000  0.4396190000000 1.0
C      1  0.5537770000000  0.5646620000000  0.4686440000000 1.0
C      1  0.5577800000000  0.5632830000000  0.5217510000000 1.0
C      1  0.4930030000000  0.5754990000000  0.5590330000000 1.0
C      1  0.4542030000000  0.5743050000000  0.5297420000000 1.0
C      1  0.4460950000000  0.5780860000000  0.4818030000000 1.0
C      1  0.4830150000000  0.5784180000000  0.4509370000000 1.0
C      1  0.5294990000000  0.5726800000000  0.4563870000000 1.0
C      1  0.5582100000000  0.5720630000000  0.4952050000000 1.0
C      1  0.5372290000000  0.5740250000000  0.5388450000000 1.0
C      1  0.4763890000000  0.4921100000000  0.5780110000000 1.0
C      1  0.4317810000000  0.4934200000000  0.5211780000000 1.0
C      1  0.4280260000000  0.4987750000000  0.4557000000000 1.0
C      1  0.4873380000000  0.4977800000000  0.4116240000000 1.0
C      1  0.5590270000000  0.4982920000000  0.4356580000000 1.0
C      1  0.5868840000000  0.4939730000000  0.5058690000000 1.0
C      1  0.5387050000000  0.4937720000000  0.5657450000000 1.0
C      1  0.4984330000000  0.5906060000000  0.5050830000000 1.0
C      1  0.5016960000000  0.4824560000000  0.4965340000000 1.0
C      1  0.4962520000000  0.6161110000000  0.5068930000000 1.0
C      1  0.4971350000000  0.5140450000000  0.4995660000000 1.0
C      1  0.4983080000000  0.4053600000000  0.5128930000000 1.0
C      1  0.4938810000000  0.3463920000000  0.5320840000000 1.0
C      1  0.4970730000000  0.5630490000000  0.5036990000000 1.0
END
