TITL C-3578199-7832-25 -3.55160472697892e-06 125000 -1215.263973312 0 0 195 (C1) n - 1
REM
REM in /home/bkarasulu/work/CARBON/AIRSS/Generating-Clusters/EDIP-Nigel-Params/with-SteepDescent/Higher-Symm/SD-CG/HFTN-CG
REM
REM
REM
REM
REM
REM ./C.cell (12c818d87b63d06a65506943cc24bca4)
REM
REM compiler GCC version 9.2.1 20190827 (Red Hat 9.2.1-1)
REM options -cpp -mtune=generic -march=x86-64 -g -O0 -fpre-include=/usr/include/finclude/math-vector-fortran.h
REM seed 303131007 -1981980557 -2010927919 1142090947 1831731713 866115319 1104863655 -2011880769 1750730201 -498097662 1460633340 443062716 -1112441312 1614516571 -1874466729 1734113659 -1331129260 -780249339 518470880 -696853850 -131365612 -1083801716 83338562 -1028966459 -492752525 -1692766936 -1960615136 1361553797 -379644270 -1072025417 264460 656700395 -1059706522
REM
CELL 1.54180   50.00000   50.00000   50.00000   90.00000   90.00000   90.00000
LATT -1
SFAC C  
C      1  0.5314830000000  0.5346760000000  0.5145830000000 1.0
C      1  0.5323460000000  0.4650210000000  0.4852300000000 1.0
C      1  0.5303440000000  0.5352200000000  0.4850180000000 1.0
C      1  0.5301850000000  0.4646700000000  0.5153390000000 1.0
C      1  0.4397700000000  0.4945790000000  0.5925970000000 1.0
C      1  0.4392210000000  0.5072210000000  0.4104030000000 1.0
C      1  0.4586410000000  0.4902240000000  0.3969790000000 1.0
C      1  0.4602690000000  0.5104800000000  0.6047440000000 1.0
C      1  0.4755680000000  0.5934140000000  0.4333710000000 1.0
C      1  0.4775730000000  0.4047980000000  0.5670730000000 1.0
C      1  0.4777560000000  0.5979840000000  0.5693020000000 1.0
C      1  0.4775410000000  0.4010640000000  0.4311030000000 1.0
C      1  0.5660040000000  0.4374640000000  0.4389200000000 1.0
C      1  0.5667400000000  0.5595790000000  0.5586160000000 1.0
C      1  0.5652690000000  0.4425460000000  0.5580520000000 1.0
C      1  0.5708840000000  0.5695000000000  0.4339770000000 1.0
C      1  0.5345350000000  0.4649030000000  0.4092670000000 1.0
C      1  0.5314860000000  0.5329640000000  0.5910780000000 1.0
C      1  0.5344600000000  0.4678060000000  0.5889030000000 1.0
C      1  0.5328140000000  0.5297240000000  0.4101940000000 1.0
C      1  0.5734240000000  0.5256430000000  0.4274900000000 1.0
C      1  0.5755260000000  0.4833300000000  0.5734930000000 1.0
C      1  0.5873450000000  0.5177640000000  0.5610730000000 1.0
C      1  0.5781600000000  0.4815110000000  0.4292510000000 1.0
C      1  0.4252590000000  0.5296150000000  0.4228030000000 1.0
C      1  0.4282660000000  0.4717560000000  0.5793310000000 1.0
C      1  0.4316710000000  0.5322790000000  0.5560400000000 1.0
C      1  0.4345170000000  0.4700780000000  0.4425500000000 1.0
C      1  0.5229590000000  0.5777080000000  0.4274600000000 1.0
C      1  0.5244000000000  0.4216800000000  0.5729410000000 1.0
C      1  0.5250890000000  0.5781590000000  0.5739940000000 1.0
C      1  0.5236790000000  0.4204010000000  0.4259110000000 1.0
C      1  0.4106930000000  0.5322620000000  0.4789770000000 1.0
C      1  0.4111540000000  0.4684540000000  0.5173570000000 1.0
C      1  0.4090380000000  0.5293250000000  0.5147070000000 1.0
C      1  0.4100160000000  0.4711720000000  0.4827210000000 1.0
C      1  0.4394360000000  0.4613150000000  0.5231720000000 1.0
C      1  0.4398150000000  0.5385110000000  0.4712580000000 1.0
C      1  0.4382690000000  0.4652370000000  0.4725530000000 1.0
C      1  0.4366280000000  0.5368860000000  0.5261180000000 1.0
C      1  0.4748810000000  0.4520900000000  0.5759510000000 1.0
C      1  0.4739110000000  0.5455900000000  0.4264140000000 1.0
C      1  0.4728600000000  0.4477870000000  0.4273490000000 1.0
C      1  0.4723920000000  0.5514360000000  0.5732970000000 1.0
C      1  0.3961620000000  0.5135500000000  0.5375330000000 1.0
C      1  0.3973740000000  0.4868010000000  0.4598740000000 1.0
C      1  0.3962130000000  0.5158790000000  0.4585410000000 1.0
C      1  0.3985700000000  0.4844370000000  0.5396730000000 1.0
C      1  0.4445140000000  0.4482410000000  0.5748750000000 1.0
C      1  0.4416450000000  0.5476740000000  0.4400350000000 1.0
C      1  0.4428930000000  0.4458780000000  0.4288730000000 1.0
C      1  0.4419740000000  0.5545400000000  0.5715970000000 1.0
C      1  0.4906430000000  0.5545020000000  0.4006580000000 1.0
C      1  0.4923960000000  0.4438390000000  0.6008060000000 1.0
C      1  0.4884870000000  0.5575480000000  0.5989130000000 1.0
C      1  0.4881490000000  0.4423500000000  0.4014760000000 1.0
C      1  0.4849470000000  0.6125430000000  0.4723810000000 1.0
C      1  0.4865400000000  0.3871790000000  0.5272960000000 1.0
C      1  0.4864650000000  0.6124210000000  0.5283590000000 1.0
C      1  0.4870780000000  0.3871040000000  0.4720360000000 1.0
C      1  0.5559920000000  0.4129290000000  0.4840530000000 1.0
C      1  0.5545140000000  0.5871210000000  0.5148210000000 1.0
C      1  0.5574420000000  0.4125490000000  0.5152540000000 1.0
C      1  0.5559670000000  0.5889070000000  0.4841540000000 1.0
C      1  0.5745730000000  0.4228190000000  0.4633180000000 1.0
C      1  0.5734130000000  0.5772380000000  0.5350300000000 1.0
C      1  0.5751210000000  0.4242450000000  0.5368340000000 1.0
C      1  0.5739110000000  0.5770520000000  0.4632300000000 1.0
C      1  0.4287760000000  0.5761600000000  0.4439100000000 1.0
C      1  0.4336690000000  0.4262340000000  0.5580910000000 1.0
C      1  0.4311990000000  0.5790980000000  0.5589280000000 1.0
C      1  0.4301670000000  0.4207400000000  0.4424670000000 1.0
C      1  0.5966620000000  0.4405160000000  0.4705390000000 1.0
C      1  0.5956530000000  0.5609800000000  0.5252170000000 1.0
C      1  0.5990880000000  0.4399910000000  0.5300240000000 1.0
C      1  0.5958350000000  0.5583040000000  0.4688770000000 1.0
C      1  0.4193490000000  0.5790570000000  0.4729440000000 1.0
C      1  0.4177700000000  0.4227710000000  0.5240530000000 1.0
C      1  0.4142470000000  0.5773180000000  0.5254270000000 1.0
C      1  0.4189690000000  0.4232630000000  0.4727700000000 1.0
C      1  0.4896520000000  0.5582060000000  0.5169420000000 1.0
C      1  0.4892460000000  0.4411260000000  0.4834610000000 1.0
C      1  0.4878030000000  0.5583990000000  0.4849480000000 1.0
C      1  0.4879280000000  0.4403570000000  0.5160110000000 1.0
C      1  0.4073690000000  0.4761490000000  0.4358010000000 1.0
C      1  0.4043300000000  0.5260750000000  0.5615190000000 1.0
C      1  0.4042460000000  0.4748830000000  0.5654570000000 1.0
C      1  0.3994530000000  0.5253250000000  0.4323620000000 1.0
C      1  0.4604080000000  0.4835460000000  0.4846900000000 1.0
C      1  0.4593000000000  0.5196190000000  0.5149620000000 1.0
C      1  0.4598830000000  0.4805250000000  0.5157980000000 1.0
C      1  0.4599000000000  0.5167200000000  0.4834250000000 1.0
C      1  0.4854690000000  0.4707500000000  0.4721150000000 1.0
C      1  0.4847410000000  0.5293360000000  0.5281180000000 1.0
C      1  0.4849310000000  0.4705360000000  0.5289790000000 1.0
C      1  0.4855520000000  0.5277840000000  0.4714360000000 1.0
C      1  0.4973000000000  0.3849600000000  0.5553300000000 1.0
C      1  0.4953750000000  0.6140110000000  0.4440800000000 1.0
C      1  0.4977570000000  0.3828870000000  0.4440110000000 1.0
C      1  0.4978660000000  0.6161120000000  0.5562800000000 1.0
C      1  0.6033960000000  0.5114640000000  0.4746680000000 1.0
C      1  0.6130070000000  0.4880350000000  0.5150260000000 1.0
C      1  0.6070870000000  0.5147420000000  0.5214060000000 1.0
C      1  0.6111770000000  0.4865150000000  0.4848240000000 1.0
C      1  0.5553030000000  0.5128450000000  0.3978670000000 1.0
C      1  0.5572020000000  0.4853070000000  0.5978880000000 1.0
C      1  0.5484980000000  0.5117700000000  0.6015880000000 1.0
C      1  0.5598370000000  0.4838870000000  0.4042110000000 1.0
C      1  0.5346090000000  0.3961110000000  0.4721680000000 1.0
C      1  0.5336910000000  0.6036520000000  0.5273410000000 1.0
C      1  0.5348290000000  0.3971520000000  0.5272780000000 1.0
C      1  0.5328980000000  0.6030230000000  0.4722590000000 1.0
C      1  0.5882040000000  0.4548670000000  0.4357140000000 1.0
C      1  0.5925530000000  0.5456240000000  0.5593920000000 1.0
C      1  0.5883400000000  0.4582920000000  0.5623870000000 1.0
C      1  0.5908120000000  0.5485240000000  0.4334250000000 1.0
C      1  0.5198850000000  0.5114330000000  0.4349940000000 1.0
C      1  0.5203620000000  0.4879790000000  0.5642670000000 1.0
C      1  0.5157460000000  0.5214500000000  0.5658370000000 1.0
C      1  0.5163450000000  0.4776150000000  0.4338940000000 1.0
C      1  0.4859620000000  0.4771580000000  0.5606280000000 1.0
C      1  0.4864830000000  0.5212710000000  0.4402980000000 1.0
C      1  0.4840580000000  0.4733240000000  0.4407740000000 1.0
C      1  0.4837530000000  0.5259000000000  0.5597520000000 1.0
C      1  0.5177790000000  0.4377170000000  0.5254530000000 1.0
C      1  0.5171140000000  0.5618930000000  0.4750430000000 1.0
C      1  0.5207230000000  0.4376290000000  0.4748150000000 1.0
C      1  0.5201780000000  0.5620160000000  0.5254420000000 1.0
C      1  0.5615560000000  0.4899810000000  0.4517290000000 1.0
C      1  0.5609380000000  0.5166070000000  0.5489580000000 1.0
C      1  0.5524740000000  0.4891730000000  0.5525920000000 1.0
C      1  0.5529440000000  0.5163930000000  0.4476650000000 1.0
C      1  0.4874180000000  0.4903150000000  0.3946700000000 1.0
C      1  0.4888260000000  0.5096670000000  0.6064380000000 1.0
C      1  0.5002740000000  0.4874400000000  0.6177820000000 1.0
C      1  0.4979390000000  0.5118850000000  0.3814900000000 1.0
C      1  0.5066540000000  0.5792680000000  0.5965790000000 1.0
C      1  0.5054150000000  0.4198890000000  0.4030280000000 1.0
C      1  0.5051830000000  0.5786670000000  0.4043600000000 1.0
C      1  0.5069240000000  0.4197800000000  0.5963170000000 1.0
C      1  0.4830230000000  0.4279140000000  0.4466210000000 1.0
C      1  0.4829490000000  0.5711520000000  0.5539210000000 1.0
C      1  0.4827190000000  0.4325120000000  0.5547080000000 1.0
C      1  0.4814470000000  0.5664870000000  0.4462820000000 1.0
C      1  0.5045130000000  0.5343760000000  0.6066120000000 1.0
C      1  0.5037290000000  0.4658290000000  0.3939420000000 1.0
C      1  0.5099990000000  0.5346790000000  0.3908770000000 1.0
C      1  0.5121090000000  0.4641100000000  0.6091920000000 1.0
C      1  0.5270030000000  0.3947270000000  0.5568950000000 1.0
C      1  0.5251600000000  0.6048670000000  0.4426720000000 1.0
C      1  0.5265830000000  0.3936980000000  0.4423950000000 1.0
C      1  0.5268030000000  0.6051930000000  0.5572860000000 1.0
C      1  0.4460300000000  0.4331470000000  0.4828990000000 1.0
C      1  0.4416110000000  0.5678790000000  0.5175070000000 1.0
C      1  0.4450220000000  0.4324500000000  0.5141850000000 1.0
C      1  0.4451610000000  0.5680580000000  0.4864850000000 1.0
C      1  0.5570370000000  0.5286280000000  0.4735110000000 1.0
C      1  0.5573380000000  0.4756550000000  0.5258290000000 1.0
C      1  0.5600530000000  0.5234120000000  0.5207790000000 1.0
C      1  0.5616730000000  0.4783810000000  0.4792520000000 1.0
C      1  0.5104250000000  0.5139850000000  0.4781950000000 1.0
C      1  0.5092420000000  0.4850720000000  0.5215270000000 1.0
C      1  0.5099750000000  0.5144980000000  0.5224860000000 1.0
C      1  0.5110010000000  0.4847420000000  0.4772300000000 1.0
C      1  0.3962650000000  0.5578880000000  0.5122000000000 1.0
C      1  0.3978430000000  0.4423220000000  0.4827210000000 1.0
C      1  0.3979490000000  0.5600440000000  0.4817330000000 1.0
C      1  0.3973900000000  0.4412730000000  0.5134530000000 1.0
C      1  0.5864490000000  0.5335890000000  0.4821620000000 1.0
C      1  0.5905090000000  0.4654610000000  0.5179760000000 1.0
C      1  0.5880110000000  0.5347560000000  0.5128520000000 1.0
C      1  0.5891420000000  0.4649450000000  0.4855530000000 1.0
C      1  0.4503920000000  0.6010080000000  0.5557670000000 1.0
C      1  0.4503660000000  0.3981540000000  0.4446000000000 1.0
C      1  0.4486680000000  0.5986110000000  0.4456170000000 1.0
C      1  0.4504920000000  0.4024400000000  0.5539810000000 1.0
C      1  0.5102930000000  0.5605500000000  0.4469180000000 1.0
C      1  0.5111290000000  0.4387840000000  0.5536150000000 1.0
C      1  0.5126620000000  0.5592020000000  0.5546780000000 1.0
C      1  0.5126800000000  0.4399530000000  0.4458590000000 1.0
C      1  0.5462320000000  0.4368720000000  0.4176590000000 1.0
C      1  0.5476840000000  0.5603000000000  0.5814610000000 1.0
C      1  0.5466040000000  0.4403370000000  0.5797230000000 1.0
C      1  0.5459150000000  0.5600670000000  0.4208630000000 1.0
C      1  0.4609100000000  0.4005210000000  0.4718920000000 1.0
C      1  0.4606700000000  0.5985570000000  0.5287060000000 1.0
C      1  0.4601160000000  0.3998670000000  0.5266770000000 1.0
C      1  0.4579590000000  0.6009560000000  0.4732960000000 1.0
C      1  0.5078260000000  0.5982710000000  0.5148760000000 1.0
C      1  0.5087330000000  0.4015070000000  0.4850650000000 1.0
C      1  0.5070220000000  0.5982080000000  0.4857200000000 1.0
C      1  0.5086330000000  0.4013080000000  0.5141030000000 1.0
C      1  0.4689410000000  0.5010670000000  0.5680350000000 1.0
C      1  0.4681380000000  0.4976210000000  0.4337870000000 1.0
C      1  0.5599770000000  0.4975260000000  0.5050760000000 1.0
END
