TITL C-3578207-9274-642 -3.31197794590507e-06 125000 -508.481417838558 0 0 82 (C1) n - 1
REM
REM in /home/bkarasulu/work/CARBON/AIRSS/Generating-Clusters/EDIP-Nigel-Params/with-SteepDescent/Higher-Symm/SD-CG/HFTN-CG
REM
REM
REM
REM
REM
REM ./C.cell (12c818d87b63d06a65506943cc24bca4)
REM
REM compiler GCC version 9.2.1 20190827 (Red Hat 9.2.1-1)
REM options -cpp -mtune=generic -march=x86-64 -g -O0 -fpre-include=/usr/include/finclude/math-vector-fortran.h
REM seed -1495154964 -143519110 -1905966507 265481119 -1697820788 1102543523 2040502575 1621436648 -1839821033 -884363428 -233261462 1401809100 1945406971 779793184 571378867 35962521 245079885 598801818 -1914238122 1043956534 1355330119 1557108015 -2096827163 -758263890 -525062026 -659344931 1427353680 -1627695168 1320691545 7036883 -1358598992 -1681334242 -836143867
REM
CELL 1.54180   50.00000   50.00000   50.00000   90.00000   90.00000   90.00000
LATT -1
SFAC C  
C      1  0.5109580000000  0.4968320000000  0.4624730000000 1.0
C      1  0.5168240000000  0.5666800000000  0.4642110000000 1.0
C      1  0.5475970000000  0.5118630000000  0.4430600000000 1.0
C      1  0.5388250000000  0.4866440000000  0.5109940000000 1.0
C      1  0.4941140000000  0.4843080000000  0.5733860000000 1.0
C      1  0.5145790000000  0.4601190000000  0.4254470000000 1.0
C      1  0.5555330000000  0.4492470000000  0.5373040000000 1.0
C      1  0.4451380000000  0.5385700000000  0.4643510000000 1.0
C      1  0.5026510000000  0.5504130000000  0.5815700000000 1.0
C      1  0.5104630000000  0.4621310000000  0.5629100000000 1.0
C      1  0.4457020000000  0.5521510000000  0.4900610000000 1.0
C      1  0.4698160000000  0.4449130000000  0.5394810000000 1.0
C      1  0.5328270000000  0.5624790000000  0.5274540000000 1.0
C      1  0.5605430000000  0.5462950000000  0.4761190000000 1.0
C      1  0.4872890000000  0.4739460000000  0.5147400000000 1.0
C      1  0.5071290000000  0.4208030000000  0.5011260000000 1.0
C      1  0.4870910000000  0.5645140000000  0.4659490000000 1.0
C      1  0.4278040000000  0.4995720000000  0.5145650000000 1.0
C      1  0.4662350000000  0.4945900000000  0.5742150000000 1.0
C      1  0.4904200000000  0.5003330000000  0.5382370000000 1.0
C      1  0.4894090000000  0.5299260000000  0.4924020000000 1.0
C      1  0.5083230000000  0.4899560000000  0.4322040000000 1.0
C      1  0.5660460000000  0.5355250000000  0.5560950000000 1.0
C      1  0.4444660000000  0.4831640000000  0.5603230000000 1.0
C      1  0.4644230000000  0.4691620000000  0.4595020000000 1.0
C      1  0.5278370000000  0.5091240000000  0.4222060000000 1.0
C      1  0.4801220000000  0.5443030000000  0.5662690000000 1.0
C      1  0.5197100000000  0.5316050000000  0.4963680000000 1.0
C      1  0.5234550000000  0.5362550000000  0.5687520000000 1.0
C      1  0.4376770000000  0.5259870000000  0.5530500000000 1.0
C      1  0.4297720000000  0.5133630000000  0.4619540000000 1.0
C      1  0.5428000000000  0.4238920000000  0.5272430000000 1.0
C      1  0.5451160000000  0.4632450000000  0.4638100000000 1.0
C      1  0.5444450000000  0.5538050000000  0.5563000000000 1.0
C      1  0.4340560000000  0.5014060000000  0.4367810000000 1.0
C      1  0.5377840000000  0.5077630000000  0.4886080000000 1.0
C      1  0.4814850000000  0.5005060000000  0.4237390000000 1.0
C      1  0.5343470000000  0.5577440000000  0.4880110000000 1.0
C      1  0.4676290000000  0.4931760000000  0.4963510000000 1.0
C      1  0.4599500000000  0.5234320000000  0.5723950000000 1.0
C      1  0.5291990000000  0.5551870000000  0.4391230000000 1.0
C      1  0.5541650000000  0.5403880000000  0.4473670000000 1.0
C      1  0.4349890000000  0.4790820000000  0.5342620000000 1.0
C      1  0.4902570000000  0.4532920000000  0.4656180000000 1.0
C      1  0.5134290000000  0.5357380000000  0.4204510000000 1.0
C      1  0.4977350000000  0.4435790000000  0.5444550000000 1.0
C      1  0.4861280000000  0.4397870000000  0.4930490000000 1.0
C      1  0.5116460000000  0.5820400000000  0.5280120000000 1.0
C      1  0.4539300000000  0.5384160000000  0.5309910000000 1.0
C      1  0.4401690000000  0.4655920000000  0.4763510000000 1.0
C      1  0.4836730000000  0.5075270000000  0.4712630000000 1.0
C      1  0.4729410000000  0.5664280000000  0.4933240000000 1.0
C      1  0.4594920000000  0.4895750000000  0.4391870000000 1.0
C      1  0.4984390000000  0.4371100000000  0.4415280000000 1.0
C      1  0.5558760000000  0.4869790000000  0.5710510000000 1.0
C      1  0.5165280000000  0.5176380000000  0.5446070000000 1.0
C      1  0.4853620000000  0.5734520000000  0.5213290000000 1.0
C      1  0.4237260000000  0.5483560000000  0.5088580000000 1.0
C      1  0.5654290000000  0.5076970000000  0.5518970000000 1.0
C      1  0.5656920000000  0.5191240000000  0.4878270000000 1.0
C      1  0.5198830000000  0.5366380000000  0.5237300000000 1.0
C      1  0.5152160000000  0.4702730000000  0.4735360000000 1.0
C      1  0.5404880000000  0.4466740000000  0.4391620000000 1.0
C      1  0.5409080000000  0.4629500000000  0.5618220000000 1.0
C      1  0.5447740000000  0.4238010000000  0.4975390000000 1.0
C      1  0.4428080000000  0.4455110000000  0.4979050000000 1.0
C      1  0.5607830000000  0.4658010000000  0.5113720000000 1.0
C      1  0.5579480000000  0.4480620000000  0.4874600000000 1.0
C      1  0.5240400000000  0.4228650000000  0.4456250000000 1.0
C      1  0.4612030000000  0.4253570000000  0.4913690000000 1.0
C      1  0.5131070000000  0.4227520000000  0.5297480000000 1.0
C      1  0.4144050000000  0.5240970000000  0.5220520000000 1.0
C      1  0.5387940000000  0.4995430000000  0.5387390000000 1.0
C      1  0.5610310000000  0.4890060000000  0.4559130000000 1.0
C      1  0.4707390000000  0.5598070000000  0.5427610000000 1.0
C      1  0.5144500000000  0.4725340000000  0.5026210000000 1.0
C      1  0.4735440000000  0.5174200000000  0.5178180000000 1.0
C      1  0.4735530000000  0.5402710000000  0.4527460000000 1.0
C      1  0.4485130000000  0.4560900000000  0.5243620000000 1.0
C      1  0.4836620000000  0.5304910000000  0.4252550000000 1.0
C      1  0.5808380000000  0.5003490000000  0.4727510000000 1.0
C      1  0.4301130000000  0.4929780000000  0.4851480000000 1.0
END
