TITL C-3578204-4308-274 -0.00571320003828432 125000 -496.220763679852 0 0 81 (C1) n - 1
REM
REM in /home/bkarasulu/work/CARBON/AIRSS/Generating-Clusters/EDIP-Nigel-Params/with-SteepDescent/Higher-Symm/SD-CG/HFTN-CG
REM
REM
REM
REM
REM
REM ./C.cell (12c818d87b63d06a65506943cc24bca4)
REM
REM compiler GCC version 9.2.1 20190827 (Red Hat 9.2.1-1)
REM options -cpp -mtune=generic -march=x86-64 -g -O0 -fpre-include=/usr/include/finclude/math-vector-fortran.h
REM seed 1843027022 1414972896 -661443419 1606074998 -379034566 -161515964 -1321241248 335829960 -471034866 -559549017 -193869781 -1674809280 1637702102 -1602478304 806207638 -1013900049 775489712 166636084 1585022254 -1498333293 1884177405 -58785601 -326563903 1574336476 1514050896 720459013 -804683098 -1678050148 -1195175515 1126736082 511487460 474690828 -1525639935
REM
CELL 1.54180   50.00000   50.00000   50.00000   90.00000   90.00000   90.00000
LATT -1
SFAC C  
C      1  0.5295690000000  0.4928330000000  0.4092200000000 1.0
C      1  0.4546340000000  0.5010260000000  0.4292210000000 1.0
C      1  0.4171560000000  0.4959400000000  0.4892450000000 1.0
C      1  0.4390850000000  0.5040030000000  0.5644410000000 1.0
C      1  0.5059670000000  0.4958780000000  0.5840740000000 1.0
C      1  0.5694320000000  0.5015080000000  0.5427640000000 1.0
C      1  0.5841420000000  0.4965670000000  0.4640200000000 1.0
C      1  0.4642830000000  0.4455070000000  0.5017840000000 1.0
C      1  0.4724800000000  0.4530660000000  0.5297800000000 1.0
C      1  0.5002110000000  0.4445600000000  0.5384460000000 1.0
C      1  0.5317380000000  0.4451960000000  0.5161700000000 1.0
C      1  0.5330270000000  0.4579500000000  0.4876150000000 1.0
C      1  0.5175670000000  0.4420080000000  0.4604130000000 1.0
C      1  0.4858520000000  0.4436990000000  0.4602240000000 1.0
C      1  0.4440420000000  0.4851020000000  0.4752200000000 1.0
C      1  0.4401390000000  0.4849990000000  0.5310470000000 1.0
C      1  0.4847550000000  0.4870690000000  0.5627340000000 1.0
C      1  0.5359120000000  0.4828760000000  0.5460060000000 1.0
C      1  0.5775670000000  0.4792210000000  0.4979620000000 1.0
C      1  0.5452100000000  0.4789310000000  0.4394080000000 1.0
C      1  0.4880300000000  0.4816050000000  0.4297110000000 1.0
C      1  0.4178260000000  0.5227010000000  0.4996420000000 1.0
C      1  0.4482640000000  0.5311130000000  0.5679040000000 1.0
C      1  0.5147320000000  0.5229550000000  0.5854200000000 1.0
C      1  0.5710210000000  0.5304040000000  0.5393980000000 1.0
C      1  0.5713690000000  0.5223850000000  0.4665180000000 1.0
C      1  0.5199640000000  0.5192610000000  0.4154440000000 1.0
C      1  0.4479450000000  0.5277860000000  0.4374750000000 1.0
C      1  0.5251880000000  0.5369740000000  0.4813010000000 1.0
C      1  0.4983030000000  0.5360840000000  0.4706130000000 1.0
C      1  0.4726640000000  0.5308920000000  0.4844740000000 1.0
C      1  0.4711460000000  0.5459850000000  0.5109760000000 1.0
C      1  0.4884200000000  0.5333400000000  0.5338680000000 1.0
C      1  0.5161460000000  0.5437120000000  0.5318630000000 1.0
C      1  0.5332960000000  0.5376190000000  0.5092090000000 1.0
C      1  0.5049330000000  0.4146000000000  0.5324510000000 1.0
C      1  0.5299710000000  0.4148410000000  0.5165800000000 1.0
C      1  0.5258940000000  0.4031120000000  0.4915660000000 1.0
C      1  0.5146490000000  0.4106190000000  0.4671420000000 1.0
C      1  0.4828660000000  0.4139800000000  0.4682360000000 1.0
C      1  0.4698360000000  0.4156170000000  0.4958280000000 1.0
C      1  0.4847740000000  0.4033070000000  0.5163180000000 1.0
C      1  0.4264140000000  0.5440240000000  0.4832490000000 1.0
C      1  0.4391000000000  0.5498070000000  0.5478610000000 1.0
C      1  0.4966630000000  0.5443710000000  0.5811880000000 1.0
C      1  0.5561530000000  0.5443640000000  0.5587880000000 1.0
C      1  0.5779160000000  0.5347880000000  0.4904760000000 1.0
C      1  0.5346450000000  0.5358910000000  0.4332590000000 1.0
C      1  0.4700870000000  0.5457820000000  0.4327520000000 1.0
C      1  0.4374830000000  0.4567640000000  0.4924870000000 1.0
C      1  0.4508450000000  0.4619050000000  0.5485240000000 1.0
C      1  0.5041230000000  0.4554310000000  0.5658750000000 1.0
C      1  0.5514920000000  0.4586700000000  0.5349660000000 1.0
C      1  0.5625710000000  0.4617190000000  0.4810190000000 1.0
C      1  0.5285780000000  0.4530220000000  0.4338980000000 1.0
C      1  0.4701110000000  0.4583520000000  0.4382930000000 1.0
C      1  0.5003690000000  0.4949620000000  0.4540230000000 1.0
C      1  0.4678240000000  0.5006430000000  0.4894310000000 1.0
C      1  0.4652100000000  0.4952670000000  0.5179570000000 1.0
C      1  0.4885940000000  0.5016100000000  0.5348660000000 1.0
C      1  0.5148840000000  0.4902310000000  0.5249390000000 1.0
C      1  0.5194020000000  0.4853800000000  0.4951800000000 1.0
C      1  0.5303920000000  0.4961160000000  0.4593050000000 1.0
C      1  0.5110410000000  0.4695150000000  0.4138260000000 1.0
C      1  0.4475990000000  0.4780310000000  0.4452400000000 1.0
C      1  0.4201840000000  0.4742480000000  0.5107160000000 1.0
C      1  0.4564520000000  0.4815460000000  0.5712210000000 1.0
C      1  0.5252020000000  0.4749740000000  0.5734110000000 1.0
C      1  0.5744080000000  0.4771730000000  0.5264550000000 1.0
C      1  0.5700260000000  0.4726440000000  0.4547280000000 1.0
C      1  0.4969560000000  0.5368560000000  0.4411270000000 1.0
C      1  0.4509850000000  0.5418030000000  0.4664150000000 1.0
C      1  0.4420040000000  0.5459240000000  0.5188080000000 1.0
C      1  0.4759060000000  0.5438610000000  0.5596050000000 1.0
C      1  0.5277710000000  0.5473740000000  0.5585090000000 1.0
C      1  0.5619510000000  0.5396390000000  0.5128700000000 1.0
C      1  0.5417850000000  0.5242470000000  0.4597890000000 1.0
C      1  0.4791450000000  0.5728690000000  0.5068920000000 1.0
C      1  0.4921220000000  0.4855620000000  0.4811340000000 1.0
C      1  0.4886320000000  0.5962250000000  0.5022920000000 1.0
C      1  0.4833480000000  0.4581670000000  0.4837180000000 1.0
END
