TITL C-3578201-9217-568 -4.50509686692048e-06 125000 -1097.35576508062 0 0 176 (C1) n - 1
REM
REM in /home/bkarasulu/work/CARBON/AIRSS/Generating-Clusters/EDIP-Nigel-Params/with-SteepDescent/Higher-Symm/SD-CG/HFTN-CG
REM
REM
REM
REM
REM
REM ./C.cell (12c818d87b63d06a65506943cc24bca4)
REM
REM compiler GCC version 9.2.1 20190827 (Red Hat 9.2.1-1)
REM options -cpp -mtune=generic -march=x86-64 -g -O0 -fpre-include=/usr/include/finclude/math-vector-fortran.h
REM seed 1729489744 742792326 2002513396 -709365074 1420403899 -645185613 -2002189552 -632411595 -1699612102 493092793 11936490 -1243356008 1033389126 1572950291 768339223 1018588993 -180464838 -1264544454 720801569 1733735983 -556163762 -665014194 258025492 1217561247 839920356 -1832965040 -948313906 -156702641 1561090726 1387100459 2036218900 -55292011 -2061941296
REM
CELL 1.54180   50.00000   50.00000   50.00000   90.00000   90.00000   90.00000
LATT -1
SFAC C  
C      1  0.5371460000000  0.4489130000000  0.4003490000000 1.0
C      1  0.5649390000000  0.4520220000000  0.5819430000000 1.0
C      1  0.3978180000000  0.4483000000000  0.5155510000000 1.0
C      1  0.4847500000000  0.4407210000000  0.5440110000000 1.0
C      1  0.4704040000000  0.4407440000000  0.4637250000000 1.0
C      1  0.5465550000000  0.4408740000000  0.4919530000000 1.0
C      1  0.5038910000000  0.4816650000000  0.5152280000000 1.0
C      1  0.4735240000000  0.4750820000000  0.5080280000000 1.0
C      1  0.5093590000000  0.4778080000000  0.4830880000000 1.0
C      1  0.4131330000000  0.5662900000000  0.5123500000000 1.0
C      1  0.5449570000000  0.5690640000000  0.4223030000000 1.0
C      1  0.5415660000000  0.5692090000000  0.5692320000000 1.0
C      1  0.4902090000000  0.5505600000000  0.4082300000000 1.0
C      1  0.5877860000000  0.5503280000000  0.5347040000000 1.0
C      1  0.4212850000000  0.5419870000000  0.5564490000000 1.0
C      1  0.4868450000000  0.5549090000000  0.5926690000000 1.0
C      1  0.4270200000000  0.5525850000000  0.4501680000000 1.0
C      1  0.5919780000000  0.5523290000000  0.4573540000000 1.0
C      1  0.4758370000000  0.4493670000000  0.6008050000000 1.0
C      1  0.4249570000000  0.4447370000000  0.4323840000000 1.0
C      1  0.5956440000000  0.4404820000000  0.4670710000000 1.0
C      1  0.5790590000000  0.5804900000000  0.4937400000000 1.0
C      1  0.4607590000000  0.5769780000000  0.5580720000000 1.0
C      1  0.4635410000000  0.5831570000000  0.4403350000000 1.0
C      1  0.5132580000000  0.4962180000000  0.5740440000000 1.0
C      1  0.4295380000000  0.4846660000000  0.4680310000000 1.0
C      1  0.5568280000000  0.4954430000000  0.4435420000000 1.0
C      1  0.5311510000000  0.4314740000000  0.5449730000000 1.0
C      1  0.4416770000000  0.4251340000000  0.5021020000000 1.0
C      1  0.5248340000000  0.4289230000000  0.4493820000000 1.0
C      1  0.4929910000000  0.4206040000000  0.4194940000000 1.0
C      1  0.5714460000000  0.4213260000000  0.5297620000000 1.0
C      1  0.4291810000000  0.4174290000000  0.5440830000000 1.0
C      1  0.4175750000000  0.5332660000000  0.4700210000000 1.0
C      1  0.5830200000000  0.5356850000000  0.4330940000000 1.0
C      1  0.5116660000000  0.5383080000000  0.5968170000000 1.0
C      1  0.4706940000000  0.3955510000000  0.4872740000000 1.0
C      1  0.5249950000000  0.3949060000000  0.4799690000000 1.0
C      1  0.5033760000000  0.3954940000000  0.5308810000000 1.0
C      1  0.5457140000000  0.5698260000000  0.5201780000000 1.0
C      1  0.4433240000000  0.5687650000000  0.5148500000000 1.0
C      1  0.4999980000000  0.5736850000000  0.4630970000000 1.0
C      1  0.3900420000000  0.4899120000000  0.4874420000000 1.0
C      1  0.5692160000000  0.4867850000000  0.4072500000000 1.0
C      1  0.5421610000000  0.4913050000000  0.6055230000000 1.0
C      1  0.4477850000000  0.4872760000000  0.5420010000000 1.0
C      1  0.4964190000000  0.4957210000000  0.4442250000000 1.0
C      1  0.5481840000000  0.4960880000000  0.5186410000000 1.0
C      1  0.4518750000000  0.4010300000000  0.5367380000000 1.0
C      1  0.4896200000000  0.4000770000000  0.4395390000000 1.0
C      1  0.5562960000000  0.3989950000000  0.5197410000000 1.0
C      1  0.4563860000000  0.5646160000000  0.4864920000000 1.0
C      1  0.5492940000000  0.5703830000000  0.4528840000000 1.0
C      1  0.5149290000000  0.5772310000000  0.5575060000000 1.0
C      1  0.4536940000000  0.4923260000000  0.4047780000000 1.0
C      1  0.5994240000000  0.4899690000000  0.5055470000000 1.0
C      1  0.4409380000000  0.4855430000000  0.5932500000000 1.0
C      1  0.4592480000000  0.5085860000000  0.6027710000000 1.0
C      1  0.4356430000000  0.5131030000000  0.4171700000000 1.0
C      1  0.6027270000000  0.5093610000000  0.4835700000000 1.0
C      1  0.4882070000000  0.5260780000000  0.3947310000000 1.0
C      1  0.5983790000000  0.5253560000000  0.5409690000000 1.0
C      1  0.4117880000000  0.5187160000000  0.5686440000000 1.0
C      1  0.5688750000000  0.4478860000000  0.5132080000000 1.0
C      1  0.4322120000000  0.4453050000000  0.5622450000000 1.0
C      1  0.4811680000000  0.4497930000000  0.4224540000000 1.0
C      1  0.4520360000000  0.4626530000000  0.4127080000000 1.0
C      1  0.5952090000000  0.4600480000000  0.4993370000000 1.0
C      1  0.4493660000000  0.4565340000000  0.5882520000000 1.0
C      1  0.4143230000000  0.4218650000000  0.5180430000000 1.0
C      1  0.5226660000000  0.4237810000000  0.4182700000000 1.0
C      1  0.5592250000000  0.4259850000000  0.5569280000000 1.0
C      1  0.4452470000000  0.5224740000000  0.5101880000000 1.0
C      1  0.5273360000000  0.5269070000000  0.4437580000000 1.0
C      1  0.5221890000000  0.5172160000000  0.5543770000000 1.0
C      1  0.5306370000000  0.4570160000000  0.4470210000000 1.0
C      1  0.5297710000000  0.4596850000000  0.5513710000000 1.0
C      1  0.4413250000000  0.4546130000000  0.5054470000000 1.0
C      1  0.5042330000000  0.4696690000000  0.4332710000000 1.0
C      1  0.5562450000000  0.4705100000000  0.5324000000000 1.0
C      1  0.4497940000000  0.4569260000000  0.5398820000000 1.0
C      1  0.4570650000000  0.4894990000000  0.4668690000000 1.0
C      1  0.5548430000000  0.4856840000000  0.4712950000000 1.0
C      1  0.4911840000000  0.4837280000000  0.5614370000000 1.0
C      1  0.5107340000000  0.5081720000000  0.6025540000000 1.0
C      1  0.4084720000000  0.5050250000000  0.4618370000000 1.0
C      1  0.5849610000000  0.5050100000000  0.4351980000000 1.0
C      1  0.5594130000000  0.5039710000000  0.4926980000000 1.0
C      1  0.4673480000000  0.4990690000000  0.5604710000000 1.0
C      1  0.4687560000000  0.5026840000000  0.4448370000000 1.0
C      1  0.5194640000000  0.5852370000000  0.5268490000000 1.0
C      1  0.4829360000000  0.5781390000000  0.4890010000000 1.0
C      1  0.5267800000000  0.5845590000000  0.4675890000000 1.0
C      1  0.4562940000000  0.5429460000000  0.5297990000000 1.0
C      1  0.4989840000000  0.5442460000000  0.4507270000000 1.0
C      1  0.5383570000000  0.5467590000000  0.5026290000000 1.0
C      1  0.4498550000000  0.4195240000000  0.4721130000000 1.0
C      1  0.5480140000000  0.4182110000000  0.4684460000000 1.0
C      1  0.5048680000000  0.4177060000000  0.5539850000000 1.0
C      1  0.5482750000000  0.6199780000000  0.5043440000000 1.0
C      1  0.4692560000000  0.6122150000000  0.5194370000000 1.0
C      1  0.4906640000000  0.6179920000000  0.4707660000000 1.0
C      1  0.4647300000000  0.5619850000000  0.4187440000000 1.0
C      1  0.5936690000000  0.5577960000000  0.5062670000000 1.0
C      1  0.4411880000000  0.5578100000000  0.5713070000000 1.0
C      1  0.5894490000000  0.5374220000000  0.4840200000000 1.0
C      1  0.4614850000000  0.5391690000000  0.5867880000000 1.0
C      1  0.4462270000000  0.5404080000000  0.4304680000000 1.0
C      1  0.5647440000000  0.4562400000000  0.4088710000000 1.0
C      1  0.5436170000000  0.4607030000000  0.6013410000000 1.0
C      1  0.3935610000000  0.4597750000000  0.4877410000000 1.0
C      1  0.5214640000000  0.6125520000000  0.5125930000000 1.0
C      1  0.4731740000000  0.6060540000000  0.4918020000000 1.0
C      1  0.5204250000000  0.6119420000000  0.4794710000000 1.0
C      1  0.5094680000000  0.5035680000000  0.4687450000000 1.0
C      1  0.5213950000000  0.5065030000000  0.5244670000000 1.0
C      1  0.4570610000000  0.4973930000000  0.5172710000000 1.0
C      1  0.5719250000000  0.4327140000000  0.4527860000000 1.0
C      1  0.4988890000000  0.4384520000000  0.5859520000000 1.0
C      1  0.4263820000000  0.4363280000000  0.4601130000000 1.0
C      1  0.5725480000000  0.4782160000000  0.5721010000000 1.0
C      1  0.4082120000000  0.4720650000000  0.5289710000000 1.0
C      1  0.5245450000000  0.4755500000000  0.3951270000000 1.0
C      1  0.4842110000000  0.6039080000000  0.4451790000000 1.0
C      1  0.5670060000000  0.5999910000000  0.5109180000000 1.0
C      1  0.4535700000000  0.5917530000000  0.5322500000000 1.0
C      1  0.4952470000000  0.4745580000000  0.3956550000000 1.0
C      1  0.5898880000000  0.4781690000000  0.5499770000000 1.0
C      1  0.4111700000000  0.4681870000000  0.5580530000000 1.0
C      1  0.4150930000000  0.4701670000000  0.4227440000000 1.0
C      1  0.6075860000000  0.4660980000000  0.4626470000000 1.0
C      1  0.4835900000000  0.4704490000000  0.6177480000000 1.0
C      1  0.3985620000000  0.4966690000000  0.5152730000000 1.0
C      1  0.5422450000000  0.4985120000000  0.4019900000000 1.0
C      1  0.5595290000000  0.5018300000000  0.5836670000000 1.0
C      1  0.6034680000000  0.4947240000000  0.4578750000000 1.0
C      1  0.4845180000000  0.4982340000000  0.6146190000000 1.0
C      1  0.4124220000000  0.4989400000000  0.4299270000000 1.0
C      1  0.4040970000000  0.5548430000000  0.5377350000000 1.0
C      1  0.5168360000000  0.5613710000000  0.4142900000000 1.0
C      1  0.5592500000000  0.5575350000000  0.5451620000000 1.0
C      1  0.5212250000000  0.4588280000000  0.5821470000000 1.0
C      1  0.4223020000000  0.4588960000000  0.4796620000000 1.0
C      1  0.5605490000000  0.4569610000000  0.4381200000000 1.0
C      1  0.5492160000000  0.5264270000000  0.5669700000000 1.0
C      1  0.4136360000000  0.5231070000000  0.5175430000000 1.0
C      1  0.5357360000000  0.5273670000000  0.4127390000000 1.0
C      1  0.5016510000000  0.5405350000000  0.5538100000000 1.0
C      1  0.4599710000000  0.5342840000000  0.4824940000000 1.0
C      1  0.5478360000000  0.5411470000000  0.4593610000000 1.0
C      1  0.4185340000000  0.4920290000000  0.5749140000000 1.0
C      1  0.4794050000000  0.4994780000000  0.3933830000000 1.0
C      1  0.5994550000000  0.4986880000000  0.5332150000000 1.0
C      1  0.5016310000000  0.4657830000000  0.5413070000000 1.0
C      1  0.4722690000000  0.4680040000000  0.4781130000000 1.0
C      1  0.5350750000000  0.4651270000000  0.4757810000000 1.0
C      1  0.4956390000000  0.5248470000000  0.4843200000000 1.0
C      1  0.5130970000000  0.5307270000000  0.5079690000000 1.0
C      1  0.4927470000000  0.5453280000000  0.5243060000000 1.0
C      1  0.5769910000000  0.5778820000000  0.4634260000000 1.0
C      1  0.4875760000000  0.5771630000000  0.5727320000000 1.0
C      1  0.4429180000000  0.5752380000000  0.4611440000000 1.0
C      1  0.4953000000000  0.4004170000000  0.4690530000000 1.0
C      1  0.5280700000000  0.4004240000000  0.5102050000000 1.0
C      1  0.4755000000000  0.4014740000000  0.5182260000000 1.0
C      1  0.5586150000000  0.5328540000000  0.4856720000000 1.0
C      1  0.4718080000000  0.5286950000000  0.5594460000000 1.0
C      1  0.4678170000000  0.5308420000000  0.4503050000000 1.0
C      1  0.5617580000000  0.5454440000000  0.4132980000000 1.0
C      1  0.5388830000000  0.5465840000000  0.5876950000000 1.0
C      1  0.4049720000000  0.5420930000000  0.4950550000000 1.0
C      1  0.5258930000000  0.4305610000000  0.5107580000000 1.0
C      1  0.4774550000000  0.4319730000000  0.5165760000000 1.0
C      1  0.4968380000000  0.4305560000000  0.4711900000000 1.0
C      1  0.5002660000000  0.4377600000000  0.4995030000000 1.0
C      1  0.4966030000000  0.5717400000000  0.5146860000000 1.0
END
