TITL C-3577080-309-15 -1.13849438174367e-06 125000 -1149.49212987244 0 0 183 (C1) n - 1
REM
REM in /home/bkarasulu/work/CARBON/AIRSS/Generating-Clusters/EDIP-Nigel-Params/with-SteepDescent/Higher-Symm/SD-CG/HFTN-CG
REM
REM
REM
REM
REM
REM ./C.cell (12c818d87b63d06a65506943cc24bca4)
REM
REM compiler GCC version 9.2.1 20190827 (Red Hat 9.2.1-1)
REM options -cpp -mtune=generic -march=x86-64 -g -O0 -fpre-include=/usr/include/finclude/math-vector-fortran.h
REM seed -133718833 769276224 -1798505210 -661225351 -1178404288 71029381 1236913368 178320747 -1224485117 1970461834 -1314711060 1302728550 -920490143 1148778126 334449715 1448033135 -948701898 -947180641 -1569461362 -501979496 -662400723 87882972 1941414330 -2131280340 -1512548154 -259932894 1729586525 868374222 -1155141393 -1897498124 -963162814 443562803 1681975777
REM
CELL 1.54180   50.00000   50.00000   50.00000   90.00000   90.00000   90.00000
LATT -1
SFAC C  
C      1  0.4376960000000  0.5095610000000  0.4256740000000 1.0
C      1  0.5588650000000  0.4885200000000  0.4031990000000 1.0
C      1  0.4839660000000  0.5983210000000  0.4564030000000 1.0
C      1  0.5506170000000  0.5372050000000  0.5287550000000 1.0
C      1  0.5280150000000  0.5461720000000  0.4875130000000 1.0
C      1  0.4035450000000  0.4746760000000  0.4993370000000 1.0
C      1  0.5709220000000  0.4933280000000  0.5201750000000 1.0
C      1  0.4439710000000  0.4916840000000  0.5288250000000 1.0
C      1  0.6078880000000  0.5026790000000  0.4670880000000 1.0
C      1  0.5311670000000  0.3913390000000  0.4922010000000 1.0
C      1  0.5417070000000  0.5140660000000  0.4060870000000 1.0
C      1  0.5230020000000  0.4786420000000  0.5571280000000 1.0
C      1  0.4595490000000  0.5561210000000  0.5025320000000 1.0
C      1  0.4044500000000  0.5513230000000  0.5082240000000 1.0
C      1  0.5469550000000  0.4997220000000  0.5631620000000 1.0
C      1  0.5144070000000  0.5898430000000  0.5665460000000 1.0
C      1  0.4247200000000  0.4349540000000  0.4807610000000 1.0
C      1  0.4470950000000  0.4662990000000  0.6023860000000 1.0
C      1  0.4705780000000  0.4811400000000  0.6124510000000 1.0
C      1  0.5400740000000  0.5188230000000  0.4868510000000 1.0
C      1  0.4842600000000  0.5709490000000  0.4967100000000 1.0
C      1  0.5264400000000  0.4437360000000  0.5971640000000 1.0
C      1  0.5756340000000  0.4388190000000  0.4307960000000 1.0
C      1  0.4825550000000  0.4955900000000  0.4207870000000 1.0
C      1  0.5968650000000  0.4840550000000  0.5105920000000 1.0
C      1  0.5854300000000  0.4238800000000  0.4805140000000 1.0
C      1  0.5307540000000  0.5544440000000  0.5161900000000 1.0
C      1  0.4160210000000  0.4170440000000  0.5261180000000 1.0
C      1  0.5123680000000  0.5949090000000  0.5362160000000 1.0
C      1  0.4909780000000  0.5749750000000  0.5290610000000 1.0
C      1  0.4564200000000  0.5848200000000  0.5651040000000 1.0
C      1  0.5037900000000  0.4454610000000  0.4947480000000 1.0
C      1  0.5383470000000  0.4390110000000  0.5701540000000 1.0
C      1  0.5158560000000  0.5229260000000  0.3926890000000 1.0
C      1  0.5015920000000  0.3896610000000  0.4951300000000 1.0
C      1  0.5746980000000  0.4944820000000  0.5506870000000 1.0
C      1  0.4673520000000  0.5593440000000  0.5714800000000 1.0
C      1  0.4665370000000  0.5179920000000  0.3863100000000 1.0
C      1  0.5042570000000  0.6178230000000  0.5184600000000 1.0
C      1  0.5788660000000  0.5244460000000  0.5891580000000 1.0
C      1  0.5215600000000  0.4563960000000  0.4148810000000 1.0
C      1  0.5547340000000  0.5342810000000  0.4238480000000 1.0
C      1  0.5952730000000  0.4793820000000  0.4811880000000 1.0
C      1  0.4370340000000  0.4832160000000  0.4821790000000 1.0
C      1  0.4838690000000  0.4562140000000  0.5398800000000 1.0
C      1  0.4021980000000  0.4662750000000  0.5268910000000 1.0
C      1  0.4223640000000  0.4109700000000  0.4984580000000 1.0
C      1  0.5054380000000  0.5486380000000  0.5292290000000 1.0
C      1  0.5794210000000  0.4693820000000  0.5679060000000 1.0
C      1  0.4294710000000  0.5607230000000  0.4364060000000 1.0
C      1  0.5942870000000  0.5083280000000  0.4411640000000 1.0
C      1  0.5031480000000  0.6182210000000  0.4665510000000 1.0
C      1  0.4534450000000  0.4067900000000  0.5291680000000 1.0
C      1  0.4136050000000  0.4728460000000  0.5714870000000 1.0
C      1  0.5029270000000  0.4679310000000  0.4532440000000 1.0
C      1  0.4500870000000  0.3985900000000  0.4982580000000 1.0
C      1  0.4479400000000  0.5092530000000  0.5798590000000 1.0
C      1  0.5691530000000  0.4675200000000  0.4344250000000 1.0
C      1  0.5228490000000  0.4776260000000  0.6129890000000 1.0
C      1  0.4520580000000  0.4446610000000  0.5823380000000 1.0
C      1  0.5225390000000  0.4221770000000  0.5272590000000 1.0
C      1  0.6003090000000  0.4543130000000  0.5171160000000 1.0
C      1  0.5729750000000  0.4758570000000  0.5949330000000 1.0
C      1  0.3956030000000  0.5245920000000  0.5152870000000 1.0
C      1  0.6018400000000  0.4480740000000  0.4860040000000 1.0
C      1  0.5549770000000  0.4345780000000  0.4097150000000 1.0
C      1  0.4275090000000  0.4247850000000  0.4526990000000 1.0
C      1  0.5310670000000  0.4106400000000  0.4704260000000 1.0
C      1  0.5902700000000  0.4854820000000  0.4247770000000 1.0
C      1  0.6029620000000  0.5391370000000  0.5460080000000 1.0
C      1  0.5685980000000  0.5225960000000  0.4486800000000 1.0
C      1  0.4799190000000  0.3966680000000  0.5413760000000 1.0
C      1  0.4686060000000  0.5437090000000  0.4016540000000 1.0
C      1  0.5586490000000  0.4561470000000  0.4901550000000 1.0
C      1  0.6125640000000  0.5350160000000  0.5083380000000 1.0
C      1  0.5168370000000  0.6137650000000  0.4912250000000 1.0
C      1  0.4537050000000  0.4713100000000  0.3975270000000 1.0
C      1  0.4260240000000  0.4463200000000  0.5658960000000 1.0
C      1  0.4622380000000  0.5002830000000  0.5524870000000 1.0
C      1  0.4992150000000  0.4477200000000  0.3975900000000 1.0
C      1  0.4093780000000  0.5478310000000  0.4558870000000 1.0
C      1  0.4773670000000  0.4388810000000  0.4816840000000 1.0
C      1  0.5452160000000  0.4626250000000  0.3978140000000 1.0
C      1  0.4774870000000  0.5038490000000  0.5001290000000 1.0
C      1  0.4044450000000  0.4872370000000  0.5475150000000 1.0
C      1  0.5924500000000  0.5499770000000  0.5220020000000 1.0
C      1  0.4671110000000  0.4356180000000  0.4330920000000 1.0
C      1  0.5299290000000  0.4390750000000  0.4810870000000 1.0
C      1  0.5449720000000  0.6040050000000  0.4915510000000 1.0
C      1  0.4763070000000  0.4253170000000  0.5862910000000 1.0
C      1  0.4949740000000  0.5272150000000  0.4343520000000 1.0
C      1  0.5629480000000  0.5208450000000  0.5065720000000 1.0
C      1  0.4018320000000  0.5172470000000  0.5427120000000 1.0
C      1  0.4969800000000  0.5701750000000  0.4503410000000 1.0
C      1  0.4712540000000  0.5411050000000  0.4496470000000 1.0
C      1  0.4754970000000  0.6203290000000  0.5218130000000 1.0
C      1  0.4111470000000  0.5626720000000  0.4811070000000 1.0
C      1  0.4672670000000  0.4353450000000  0.5251660000000 1.0
C      1  0.4821250000000  0.4712880000000  0.3899850000000 1.0
C      1  0.5734750000000  0.5683650000000  0.4699140000000 1.0
C      1  0.4992690000000  0.4574210000000  0.5677340000000 1.0
C      1  0.5650330000000  0.4465830000000  0.5566360000000 1.0
C      1  0.6052110000000  0.5299260000000  0.4807950000000 1.0
C      1  0.4176200000000  0.4431540000000  0.5374420000000 1.0
C      1  0.5286530000000  0.4561960000000  0.4581940000000 1.0
C      1  0.5500700000000  0.4733100000000  0.5126070000000 1.0
C      1  0.5771450000000  0.5387450000000  0.4748680000000 1.0
C      1  0.4884650000000  0.4265540000000  0.4150910000000 1.0
C      1  0.4599920000000  0.4976970000000  0.4425040000000 1.0
C      1  0.4992640000000  0.4341980000000  0.6017460000000 1.0
C      1  0.4398380000000  0.5852400000000  0.4499790000000 1.0
C      1  0.4112470000000  0.4996760000000  0.4398130000000 1.0
C      1  0.4399290000000  0.5385740000000  0.5738060000000 1.0
C      1  0.5076140000000  0.5303210000000  0.5525580000000 1.0
C      1  0.5139350000000  0.5657900000000  0.4245580000000 1.0
C      1  0.4430880000000  0.5758990000000  0.5188930000000 1.0
C      1  0.4990760000000  0.5656150000000  0.5770260000000 1.0
C      1  0.4996850000000  0.5431990000000  0.4090010000000 1.0
C      1  0.4699160000000  0.4093770000000  0.4749480000000 1.0
C      1  0.4218570000000  0.5386090000000  0.5498710000000 1.0
C      1  0.5427870000000  0.5864840000000  0.5734210000000 1.0
C      1  0.4984060000000  0.4783520000000  0.5954340000000 1.0
C      1  0.4570200000000  0.4797000000000  0.5044330000000 1.0
C      1  0.5770250000000  0.4225970000000  0.4535630000000 1.0
C      1  0.5208480000000  0.4203220000000  0.5565330000000 1.0
C      1  0.4948830000000  0.5087640000000  0.5883490000000 1.0
C      1  0.5371910000000  0.5248990000000  0.5516980000000 1.0
C      1  0.4501280000000  0.5407430000000  0.4268610000000 1.0
C      1  0.4351660000000  0.5998110000000  0.5009380000000 1.0
C      1  0.4761910000000  0.4544690000000  0.4561010000000 1.0
C      1  0.5087080000000  0.4850870000000  0.4311830000000 1.0
C      1  0.4634430000000  0.5878400000000  0.5377640000000 1.0
C      1  0.4531370000000  0.4739570000000  0.4573540000000 1.0
C      1  0.4939030000000  0.5059490000000  0.3812490000000 1.0
C      1  0.4465250000000  0.4523090000000  0.4192450000000 1.0
C      1  0.5204350000000  0.5093230000000  0.4445460000000 1.0
C      1  0.5805470000000  0.5771800000000  0.5193820000000 1.0
C      1  0.4333050000000  0.5181720000000  0.5122790000000 1.0
C      1  0.5311350000000  0.4598560000000  0.5318460000000 1.0
C      1  0.4682070000000  0.5100380000000  0.6009720000000 1.0
C      1  0.5048220000000  0.4026620000000  0.4583890000000 1.0
C      1  0.4561750000000  0.4479000000000  0.5002780000000 1.0
C      1  0.5359240000000  0.5039630000000  0.6113840000000 1.0
C      1  0.4033010000000  0.4564690000000  0.4776170000000 1.0
C      1  0.5037330000000  0.4638480000000  0.5185230000000 1.0
C      1  0.4689710000000  0.5932470000000  0.4818130000000 1.0
C      1  0.5679500000000  0.4219540000000  0.5068360000000 1.0
C      1  0.5456550000000  0.5053550000000  0.4607570000000 1.0
C      1  0.4543580000000  0.4132130000000  0.4485730000000 1.0
C      1  0.5906780000000  0.5183760000000  0.5622310000000 1.0
C      1  0.4636580000000  0.5171280000000  0.4660100000000 1.0
C      1  0.5688610000000  0.5853680000000  0.4928740000000 1.0
C      1  0.5613590000000  0.5855120000000  0.5405830000000 1.0
C      1  0.5086330000000  0.4107340000000  0.4290860000000 1.0
C      1  0.5153930000000  0.5236930000000  0.6020310000000 1.0
C      1  0.5345460000000  0.4162580000000  0.4193060000000 1.0
C      1  0.4601210000000  0.6176220000000  0.4980530000000 1.0
C      1  0.5454890000000  0.5641370000000  0.5915640000000 1.0
C      1  0.4446870000000  0.4996460000000  0.3977670000000 1.0
C      1  0.4211060000000  0.4474680000000  0.4333630000000 1.0
C      1  0.5010940000000  0.4942750000000  0.5152780000000 1.0
C      1  0.5588420000000  0.5015280000000  0.5925610000000 1.0
C      1  0.5439180000000  0.4059390000000  0.5144280000000 1.0
C      1  0.4956290000000  0.4091990000000  0.5174350000000 1.0
C      1  0.5369400000000  0.5838550000000  0.5230560000000 1.0
C      1  0.4692740000000  0.5300280000000  0.5452300000000 1.0
C      1  0.4601840000000  0.6029720000000  0.4401650000000 1.0
C      1  0.5006980000000  0.5000170000000  0.5453200000000 1.0
C      1  0.4196270000000  0.5613640000000  0.5309910000000 1.0
C      1  0.4104730000000  0.5186320000000  0.4625060000000 1.0
C      1  0.4348230000000  0.5131590000000  0.4803970000000 1.0
C      1  0.4623900000000  0.5297430000000  0.5150560000000 1.0
C      1  0.5760300000000  0.4410930000000  0.5284610000000 1.0
C      1  0.5569080000000  0.5749450000000  0.4485230000000 1.0
C      1  0.5023880000000  0.5559040000000  0.4771370000000 1.0
C      1  0.4289850000000  0.4875750000000  0.5911100000000 1.0
C      1  0.4097180000000  0.4695300000000  0.4502040000000 1.0
C      1  0.5425740000000  0.5603390000000  0.4296520000000 1.0
C      1  0.5694190000000  0.5501660000000  0.5942020000000 1.0
C      1  0.5204360000000  0.5497360000000  0.5898110000000 1.0
C      1  0.4257310000000  0.5873070000000  0.4758080000000 1.0
C      1  0.4918770000000  0.4140730000000  0.5626020000000 1.0
C      1  0.5530900000000  0.4739390000000  0.4602820000000 1.0
END
