TITL C-3578195-8548-503 -1.3051743317274e-05 125000 -1036.10863335409 0 0 164 (C1) n - 1
REM
REM in /home/bkarasulu/work/CARBON/AIRSS/Generating-Clusters/EDIP-Nigel-Params/with-SteepDescent/Higher-Symm/SD-CG/HFTN-CG
REM
REM
REM
REM
REM
REM ./C.cell (12c818d87b63d06a65506943cc24bca4)
REM
REM compiler GCC version 9.2.1 20190827 (Red Hat 9.2.1-1)
REM options -cpp -mtune=generic -march=x86-64 -g -O0 -fpre-include=/usr/include/finclude/math-vector-fortran.h
REM seed -372653674 -1026463923 -2020081135 -441879147 -1972193644 -683383828 -109064599 -2000725227 1369398243 738868882 669826551 1752988169 -117071214 -85210503 -167810486 -1798617390 -1817801314 541450324 -1669441358 -277993387 88246526 -1931347730 -1995118599 -1613830228 1624821135 -1810686169 -1856901126 -158927867 607773861 605964216 418144747 -105823556 -1927087305
REM
CELL 1.54180   50.00000   50.00000   50.00000   90.00000   90.00000   90.00000
LATT -1
SFAC C  
C      1  0.4482110000000  0.4255510000000  0.4584140000000 1.0
C      1  0.5490460000000  0.4267240000000  0.5394000000000 1.0
C      1  0.4747950000000  0.4846570000000  0.5087000000000 1.0
C      1  0.5262570000000  0.4852640000000  0.4937980000000 1.0
C      1  0.4784110000000  0.4151010000000  0.5577190000000 1.0
C      1  0.5189920000000  0.4275330000000  0.4419710000000 1.0
C      1  0.5296930000000  0.4829700000000  0.3972260000000 1.0
C      1  0.4771390000000  0.4916660000000  0.5994540000000 1.0
C      1  0.5260940000000  0.6014850000000  0.4902900000000 1.0
C      1  0.4716260000000  0.5998200000000  0.5057530000000 1.0
C      1  0.5498230000000  0.5292430000000  0.5786300000000 1.0
C      1  0.4561180000000  0.5232980000000  0.4201000000000 1.0
C      1  0.5061790000000  0.4206580000000  0.5489780000000 1.0
C      1  0.4906560000000  0.4264810000000  0.4343860000000 1.0
C      1  0.5028080000000  0.4716850000000  0.4417440000000 1.0
C      1  0.5045150000000  0.4703460000000  0.5607350000000 1.0
C      1  0.5501150000000  0.4791950000000  0.4157990000000 1.0
C      1  0.4541490000000  0.4795850000000  0.5869370000000 1.0
C      1  0.5736760000000  0.5597870000000  0.5176730000000 1.0
C      1  0.4277240000000  0.5559020000000  0.4817290000000 1.0
C      1  0.4760530000000  0.4467380000000  0.4161350000000 1.0
C      1  0.5102250000000  0.4417180000000  0.5725880000000 1.0
C      1  0.4070860000000  0.5636860000000  0.5548060000000 1.0
C      1  0.5940960000000  0.5657720000000  0.4464770000000 1.0
C      1  0.5249390000000  0.4150670000000  0.4691840000000 1.0
C      1  0.4615100000000  0.4152780000000  0.5334740000000 1.0
C      1  0.5595140000000  0.5681730000000  0.5432110000000 1.0
C      1  0.4521740000000  0.5611520000000  0.4616190000000 1.0
C      1  0.5442720000000  0.5551690000000  0.5664880000000 1.0
C      1  0.4600850000000  0.5501500000000  0.4332470000000 1.0
C      1  0.4468720000000  0.5490790000000  0.5785610000000 1.0
C      1  0.5556690000000  0.5500480000000  0.4211240000000 1.0
C      1  0.5194410000000  0.5947970000000  0.4397420000000 1.0
C      1  0.4808270000000  0.5939820000000  0.5559740000000 1.0
C      1  0.5262180000000  0.5494940000000  0.4199240000000 1.0
C      1  0.4760580000000  0.5488420000000  0.5770410000000 1.0
C      1  0.4706270000000  0.4369300000000  0.5020550000000 1.0
C      1  0.5274980000000  0.4345220000000  0.4949480000000 1.0
C      1  0.5575180000000  0.5282470000000  0.4632420000000 1.0
C      1  0.4428970000000  0.5253660000000  0.5373890000000 1.0
C      1  0.4300990000000  0.4521920000000  0.5570990000000 1.0
C      1  0.5738210000000  0.4552640000000  0.4473230000000 1.0
C      1  0.4854690000000  0.4757490000000  0.4185610000000 1.0
C      1  0.5239240000000  0.4815040000000  0.5818970000000 1.0
C      1  0.4545560000000  0.5123580000000  0.4802980000000 1.0
C      1  0.5533450000000  0.5257070000000  0.5345630000000 1.0
C      1  0.4455350000000  0.5937670000000  0.5187350000000 1.0
C      1  0.5529720000000  0.5965460000000  0.4784950000000 1.0
C      1  0.5406730000000  0.4411030000000  0.5803400000000 1.0
C      1  0.4465880000000  0.4461170000000  0.4190090000000 1.0
C      1  0.5260750000000  0.5012200000000  0.5350970000000 1.0
C      1  0.4740080000000  0.4994140000000  0.4615880000000 1.0
C      1  0.5386510000000  0.4324280000000  0.4231000000000 1.0
C      1  0.4731360000000  0.4331680000000  0.5798920000000 1.0
C      1  0.4554630000000  0.5901190000000  0.4600280000000 1.0
C      1  0.5408720000000  0.5873270000000  0.5343110000000 1.0
C      1  0.4588590000000  0.4840530000000  0.5329920000000 1.0
C      1  0.5425810000000  0.4868180000000  0.4694860000000 1.0
C      1  0.4761740000000  0.4135930000000  0.4562050000000 1.0
C      1  0.5112550000000  0.4181170000000  0.5188680000000 1.0
C      1  0.5410300000000  0.5038350000000  0.5645220000000 1.0
C      1  0.4617260000000  0.4957370000000  0.4329230000000 1.0
C      1  0.4699500000000  0.5227130000000  0.3959510000000 1.0
C      1  0.5368270000000  0.5284170000000  0.6031280000000 1.0
C      1  0.4328370000000  0.4079270000000  0.5312360000000 1.0
C      1  0.5632930000000  0.4118410000000  0.4710490000000 1.0
C      1  0.4018100000000  0.4436280000000  0.5144560000000 1.0
C      1  0.5970950000000  0.4466910000000  0.4897020000000 1.0
C      1  0.5716490000000  0.4169470000000  0.5222330000000 1.0
C      1  0.4265380000000  0.4159100000000  0.4788500000000 1.0
C      1  0.3953680000000  0.4734630000000  0.5146790000000 1.0
C      1  0.6032060000000  0.4770600000000  0.4913210000000 1.0
C      1  0.5123550000000  0.5236560000000  0.4212450000000 1.0
C      1  0.4900770000000  0.5229880000000  0.5799370000000 1.0
C      1  0.5067190000000  0.5926630000000  0.4696460000000 1.0
C      1  0.4917600000000  0.5900020000000  0.5252310000000 1.0
C      1  0.5678390000000  0.5744860000000  0.4333050000000 1.0
C      1  0.4338360000000  0.5728570000000  0.5658430000000 1.0
C      1  0.6087620000000  0.5219260000000  0.4654730000000 1.0
C      1  0.3921430000000  0.5192570000000  0.5386770000000 1.0
C      1  0.5708130000000  0.4979350000000  0.4258700000000 1.0
C      1  0.4320440000000  0.4962640000000  0.5768590000000 1.0
C      1  0.5018680000000  0.5131690000000  0.4628720000000 1.0
C      1  0.4986730000000  0.5139390000000  0.5372570000000 1.0
C      1  0.4334820000000  0.5670010000000  0.5104910000000 1.0
C      1  0.5655860000000  0.5706670000000  0.4891980000000 1.0
C      1  0.4345190000000  0.4662070000000  0.4859260000000 1.0
C      1  0.5628380000000  0.4692490000000  0.5165530000000 1.0
C      1  0.4525240000000  0.4571490000000  0.4624660000000 1.0
C      1  0.5466210000000  0.4578760000000  0.5388640000000 1.0
C      1  0.5929890000000  0.5668580000000  0.4761390000000 1.0
C      1  0.4066960000000  0.5640760000000  0.5250700000000 1.0
C      1  0.5291400000000  0.5355980000000  0.4990510000000 1.0
C      1  0.4690880000000  0.5317740000000  0.4969160000000 1.0
C      1  0.5063680000000  0.4914940000000  0.6052540000000 1.0
C      1  0.5020540000000  0.4874110000000  0.3956730000000 1.0
C      1  0.3999520000000  0.4604480000000  0.4679750000000 1.0
C      1  0.5957320000000  0.4611510000000  0.5369040000000 1.0
C      1  0.5647620000000  0.5049560000000  0.4788900000000 1.0
C      1  0.4350940000000  0.5006190000000  0.5243810000000 1.0
C      1  0.4509000000000  0.5913580000000  0.5489150000000 1.0
C      1  0.5492110000000  0.5931550000000  0.4483330000000 1.0
C      1  0.6046680000000  0.5418660000000  0.4875080000000 1.0
C      1  0.3947800000000  0.5389400000000  0.5154930000000 1.0
C      1  0.4769960000000  0.5944520000000  0.4775610000000 1.0
C      1  0.5203500000000  0.5898990000000  0.5160590000000 1.0
C      1  0.5437380000000  0.5498070000000  0.4778680000000 1.0
C      1  0.4554470000000  0.5467310000000  0.5207460000000 1.0
C      1  0.4865270000000  0.4096730000000  0.5046630000000 1.0
C      1  0.4958150000000  0.4043150000000  0.4763530000000 1.0
C      1  0.4812440000000  0.5656180000000  0.4217510000000 1.0
C      1  0.5201710000000  0.5681860000000  0.5748290000000 1.0
C      1  0.5627530000000  0.5018250000000  0.5109800000000 1.0
C      1  0.4339400000000  0.4968960000000  0.4935650000000 1.0
C      1  0.4970620000000  0.5158570000000  0.3971070000000 1.0
C      1  0.5100200000000  0.5209270000000  0.6043780000000 1.0
C      1  0.5201540000000  0.5622590000000  0.4614700000000 1.0
C      1  0.4805990000000  0.5608100000000  0.5351900000000 1.0
C      1  0.4076040000000  0.4922910000000  0.5350880000000 1.0
C      1  0.5927790000000  0.4958810000000  0.4698850000000 1.0
C      1  0.4486710000000  0.4573100000000  0.5349860000000 1.0
C      1  0.5531300000000  0.4609180000000  0.4673970000000 1.0
C      1  0.5206440000000  0.4713930000000  0.5355140000000 1.0
C      1  0.4823410000000  0.4694350000000  0.4656850000000 1.0
C      1  0.5949750000000  0.5128210000000  0.5291600000000 1.0
C      1  0.4013050000000  0.5090000000000  0.4768800000000 1.0
C      1  0.4373290000000  0.4224490000000  0.4313100000000 1.0
C      1  0.5504930000000  0.4182620000000  0.5668340000000 1.0
C      1  0.4922030000000  0.5733570000000  0.5757420000000 1.0
C      1  0.5088020000000  0.5730220000000  0.4205830000000 1.0
C      1  0.6026680000000  0.4859010000000  0.5201100000000 1.0
C      1  0.3932990000000  0.4826410000000  0.4864800000000 1.0
C      1  0.5576800000000  0.4478720000000  0.4935580000000 1.0
C      1  0.4405260000000  0.4451590000000  0.5088370000000 1.0
C      1  0.4768860000000  0.5504130000000  0.4745100000000 1.0
C      1  0.5287490000000  0.5480660000000  0.5260430000000 1.0
C      1  0.5643980000000  0.4050060000000  0.4978750000000 1.0
C      1  0.4306820000000  0.4034410000000  0.5035420000000 1.0
C      1  0.4981600000000  0.5423840000000  0.4534670000000 1.0
C      1  0.5033090000000  0.5425040000000  0.5425810000000 1.0
C      1  0.4091450000000  0.5329480000000  0.4905710000000 1.0
C      1  0.5905510000000  0.5361120000000  0.5128670000000 1.0
C      1  0.4047700000000  0.4347900000000  0.4847150000000 1.0
C      1  0.5927770000000  0.4372590000000  0.5182890000000 1.0
C      1  0.5989690000000  0.5363400000000  0.4404420000000 1.0
C      1  0.4029380000000  0.5345340000000  0.5624120000000 1.0
C      1  0.4117900000000  0.4692000000000  0.4429230000000 1.0
C      1  0.5855960000000  0.4611030000000  0.5643190000000 1.0
C      1  0.4501100000000  0.4507970000000  0.5809380000000 1.0
C      1  0.5582340000000  0.4517980000000  0.4219480000000 1.0
C      1  0.4816310000000  0.4942080000000  0.5559580000000 1.0
C      1  0.5214400000000  0.4952910000000  0.4455500000000 1.0
C      1  0.4147360000000  0.4784860000000  0.5608380000000 1.0
C      1  0.5882620000000  0.4817800000000  0.4438900000000 1.0
C      1  0.5569240000000  0.4638220000000  0.5668590000000 1.0
C      1  0.4400640000000  0.4690670000000  0.4370530000000 1.0
C      1  0.4887770000000  0.5109690000000  0.5089100000000 1.0
C      1  0.5122420000000  0.5117030000000  0.4916880000000 1.0
C      1  0.5107320000000  0.4603360000000  0.4905500000000 1.0
C      1  0.4882000000000  0.4596990000000  0.5079550000000 1.0
C      1  0.4319580000000  0.5257100000000  0.5656900000000 1.0
C      1  0.5700620000000  0.5274450000000  0.4358230000000 1.0
C      1  0.5853430000000  0.4311000000000  0.4638890000000 1.0
C      1  0.4144100000000  0.4298330000000  0.5405170000000 1.0
END
