TITL C-3578209-2550-163 -1.38320026356944e-06 125000 -753.525685496063 0 0 120 (C1) n - 1
REM
REM in /home/bkarasulu/work/CARBON/AIRSS/Generating-Clusters/EDIP-Nigel-Params/with-SteepDescent/Higher-Symm/SD-CG/HFTN-CG
REM
REM
REM
REM
REM
REM ./C.cell (12c818d87b63d06a65506943cc24bca4)
REM
REM compiler GCC version 9.2.1 20190827 (Red Hat 9.2.1-1)
REM options -cpp -mtune=generic -march=x86-64 -g -O0 -fpre-include=/usr/include/finclude/math-vector-fortran.h
REM seed 1957905218 -343293537 -957417309 -2038056336 -1464114708 -424746636 830630423 572564948 641675103 771343731 1811314039 -1483676078 -479319149 -850814637 562620413 -1931887995 -721302188 -2099248552 -781528658 2024813362 1534123114 325063945 -1403831982 1606121984 2145729513 531733692 668951687 -59715720 798397844 915740196 -1606853113 365614079 -2102993691
REM
CELL 1.54180   50.00000   50.00000   50.00000   90.00000   90.00000   90.00000
LATT -1
SFAC C  
C      1  0.5359920000000  0.5779350000000  0.4606980000000 1.0
C      1  0.5087730000000  0.4481880000000  0.5049200000000 1.0
C      1  0.4407940000000  0.4660430000000  0.4313300000000 1.0
C      1  0.4704090000000  0.4802300000000  0.5098230000000 1.0
C      1  0.5740610000000  0.5257160000000  0.5268060000000 1.0
C      1  0.5537390000000  0.5322690000000  0.4786570000000 1.0
C      1  0.5194180000000  0.5232060000000  0.5802840000000 1.0
C      1  0.5213060000000  0.4733600000000  0.4948020000000 1.0
C      1  0.5713620000000  0.4650630000000  0.4681320000000 1.0
C      1  0.4638780000000  0.5145400000000  0.4723630000000 1.0
C      1  0.5020630000000  0.5164660000000  0.5374170000000 1.0
C      1  0.5325720000000  0.4163280000000  0.4535890000000 1.0
C      1  0.5660240000000  0.5488510000000  0.5435650000000 1.0
C      1  0.5869750000000  0.5153340000000  0.4559910000000 1.0
C      1  0.5635410000000  0.4895240000000  0.5614690000000 1.0
C      1  0.4825220000000  0.5416190000000  0.4184200000000 1.0
C      1  0.5630200000000  0.5068020000000  0.4440710000000 1.0
C      1  0.4469140000000  0.4942550000000  0.5495860000000 1.0
C      1  0.5274370000000  0.4763710000000  0.5878180000000 1.0
C      1  0.5385680000000  0.4666490000000  0.4292430000000 1.0
C      1  0.4918580000000  0.5607470000000  0.5686460000000 1.0
C      1  0.4764350000000  0.4686590000000  0.5784090000000 1.0
C      1  0.4430040000000  0.4823550000000  0.5231690000000 1.0
C      1  0.5708440000000  0.4495570000000  0.5329750000000 1.0
C      1  0.4603190000000  0.3972860000000  0.4867260000000 1.0
C      1  0.5178870000000  0.5151320000000  0.4215790000000 1.0
C      1  0.4278860000000  0.4915330000000  0.4382280000000 1.0
C      1  0.5569020000000  0.5573620000000  0.4582330000000 1.0
C      1  0.5553250000000  0.4231810000000  0.4932000000000 1.0
C      1  0.4710370000000  0.4334540000000  0.5518300000000 1.0
C      1  0.5352280000000  0.4985860000000  0.5693670000000 1.0
C      1  0.5131920000000  0.4545180000000  0.4270470000000 1.0
C      1  0.4846850000000  0.5089640000000  0.5107240000000 1.0
C      1  0.4368390000000  0.4378490000000  0.5038940000000 1.0
C      1  0.5249130000000  0.4171530000000  0.5410880000000 1.0
C      1  0.5730630000000  0.5772050000000  0.5100550000000 1.0
C      1  0.4309410000000  0.5426620000000  0.4470940000000 1.0
C      1  0.4908470000000  0.4718690000000  0.4181960000000 1.0
C      1  0.4840500000000  0.5700530000000  0.5421000000000 1.0
C      1  0.5465750000000  0.5894480000000  0.5086560000000 1.0
C      1  0.4421370000000  0.5170600000000  0.4340150000000 1.0
C      1  0.4833380000000  0.5502100000000  0.4946830000000 1.0
C      1  0.4089300000000  0.4899800000000  0.4588530000000 1.0
C      1  0.5102530000000  0.5403210000000  0.4074870000000 1.0
C      1  0.4143600000000  0.5215480000000  0.5273340000000 1.0
C      1  0.4834720000000  0.4198290000000  0.4521190000000 1.0
C      1  0.4166890000000  0.4793240000000  0.4834850000000 1.0
C      1  0.4131230000000  0.5594240000000  0.4901540000000 1.0
C      1  0.5068300000000  0.4139910000000  0.4948760000000 1.0
C      1  0.5414330000000  0.5272210000000  0.4378580000000 1.0
C      1  0.5595930000000  0.4598650000000  0.5584280000000 1.0
C      1  0.5349440000000  0.5937250000000  0.4836030000000 1.0
C      1  0.4397700000000  0.5785850000000  0.4866380000000 1.0
C      1  0.5686830000000  0.4360970000000  0.4700360000000 1.0
C      1  0.4442980000000  0.4467040000000  0.5541130000000 1.0
C      1  0.4091350000000  0.5471760000000  0.5157930000000 1.0
C      1  0.5839420000000  0.4805480000000  0.4899220000000 1.0
C      1  0.4559870000000  0.4154430000000  0.5076520000000 1.0
C      1  0.4750160000000  0.4144840000000  0.5299700000000 1.0
C      1  0.5088900000000  0.4310580000000  0.4440930000000 1.0
C      1  0.5075420000000  0.4919800000000  0.4770210000000 1.0
C      1  0.4950900000000  0.5776530000000  0.4947510000000 1.0
C      1  0.5330660000000  0.4081920000000  0.4821120000000 1.0
C      1  0.5206630000000  0.5511340000000  0.5699090000000 1.0
C      1  0.5234220000000  0.5640840000000  0.4165720000000 1.0
C      1  0.5188750000000  0.5373500000000  0.4597310000000 1.0
C      1  0.4181800000000  0.5361300000000  0.4732830000000 1.0
C      1  0.4860270000000  0.4906410000000  0.5952640000000 1.0
C      1  0.4395230000000  0.5222190000000  0.4907210000000 1.0
C      1  0.4382330000000  0.4577600000000  0.4794770000000 1.0
C      1  0.5025670000000  0.4052760000000  0.5238400000000 1.0
C      1  0.5290180000000  0.5824900000000  0.5309780000000 1.0
C      1  0.5357130000000  0.4517710000000  0.5743500000000 1.0
C      1  0.4460160000000  0.5713930000000  0.5168900000000 1.0
C      1  0.5575470000000  0.4248550000000  0.5229190000000 1.0
C      1  0.5270810000000  0.4477200000000  0.5308240000000 1.0
C      1  0.5192570000000  0.4911070000000  0.5434010000000 1.0
C      1  0.4912060000000  0.5156040000000  0.5803920000000 1.0
C      1  0.5124540000000  0.5190720000000  0.4852680000000 1.0
C      1  0.4644220000000  0.4628270000000  0.4161980000000 1.0
C      1  0.4894660000000  0.4331730000000  0.5753850000000 1.0
C      1  0.5750050000000  0.4983510000000  0.5363190000000 1.0
C      1  0.4488810000000  0.4721670000000  0.5688910000000 1.0
C      1  0.5223760000000  0.5349410000000  0.5257000000000 1.0
C      1  0.5187880000000  0.5831750000000  0.4376480000000 1.0
C      1  0.5177100000000  0.4286450000000  0.5691910000000 1.0
C      1  0.4574920000000  0.4269310000000  0.4450890000000 1.0
C      1  0.4889710000000  0.5810200000000  0.4466810000000 1.0
C      1  0.4755560000000  0.5889140000000  0.4745860000000 1.0
C      1  0.4920660000000  0.5491790000000  0.4470250000000 1.0
C      1  0.4513250000000  0.5622320000000  0.4605070000000 1.0
C      1  0.5812490000000  0.5713090000000  0.5363230000000 1.0
C      1  0.4464220000000  0.5400010000000  0.5652970000000 1.0
C      1  0.4681910000000  0.5161580000000  0.4188580000000 1.0
C      1  0.4624360000000  0.5868830000000  0.5344460000000 1.0
C      1  0.4998250000000  0.5875840000000  0.5234720000000 1.0
C      1  0.5083530000000  0.4797690000000  0.6080650000000 1.0
C      1  0.4850960000000  0.4047480000000  0.4761390000000 1.0
C      1  0.5582130000000  0.4256670000000  0.4457140000000 1.0
C      1  0.4325790000000  0.4547670000000  0.5278060000000 1.0
C      1  0.5903250000000  0.5085950000000  0.4829880000000 1.0
C      1  0.5590870000000  0.4782850000000  0.4446700000000 1.0
C      1  0.5806690000000  0.5576790000000  0.4886720000000 1.0
C      1  0.4583080000000  0.5445010000000  0.5109140000000 1.0
C      1  0.4375250000000  0.4453670000000  0.4514010000000 1.0
C      1  0.5355210000000  0.5549450000000  0.5433300000000 1.0
C      1  0.4733460000000  0.5392600000000  0.5782790000000 1.0
C      1  0.4912120000000  0.4990390000000  0.4301520000000 1.0
C      1  0.5369490000000  0.4889400000000  0.5156710000000 1.0
C      1  0.4810530000000  0.4906090000000  0.4634890000000 1.0
C      1  0.4731770000000  0.5426470000000  0.4681060000000 1.0
C      1  0.4684260000000  0.5294050000000  0.5356460000000 1.0
C      1  0.5892810000000  0.5314280000000  0.5022360000000 1.0
C      1  0.4304280000000  0.5182180000000  0.5531940000000 1.0
C      1  0.4244380000000  0.4994370000000  0.5061800000000 1.0
C      1  0.5360690000000  0.5189370000000  0.5048080000000 1.0
C      1  0.5017750000000  0.4650680000000  0.5493800000000 1.0
C      1  0.4655360000000  0.4712690000000  0.4818500000000 1.0
C      1  0.5733530000000  0.4756070000000  0.5175550000000 1.0
C      1  0.4856010000000  0.4569840000000  0.5231240000000 1.0
END
