TITL C-3578204-4308-736 -4.06412739643542e-06 125000 -674.674773317216 0 0 110 (C3i) n - 1
REM
REM in /home/bkarasulu/work/CARBON/AIRSS/Generating-Clusters/EDIP-Nigel-Params/with-SteepDescent/Higher-Symm/SD-CG/HFTN-CG
REM
REM
REM
REM
REM
REM ./C.cell (12c818d87b63d06a65506943cc24bca4)
REM
REM compiler GCC version 9.2.1 20190827 (Red Hat 9.2.1-1)
REM options -cpp -mtune=generic -march=x86-64 -g -O0 -fpre-include=/usr/include/finclude/math-vector-fortran.h
REM seed 727654945 16364100 745169028 749442191 -2726150 -2110437913 -186458297 -1812918892 -1190947517 -1859799979 -1966007619 -1398841028 -344905239 1061530013 -584311766 1712658971 -1011582766 -1390162984 1134286736 677380934 -2025424169 2089242538 124218759 -56363333 -1765746783 1519415900 -782350017 -30117132 -1229067542 226799290 -755628250 53524926 -737073337
REM
CELL 1.54180   50.00000   50.00000   50.00000   90.00000   90.00000   90.00000
LATT -1
SFAC C  
C      1  0.5041210000000  0.4296990000000  0.5128460000000 1.0
C      1  0.4961470000000  0.4531540000000  0.4455960000000 1.0
C      1  0.5039340000000  0.5231460000000  0.4323020000000 1.0
C      1  0.4958790000000  0.5696310000000  0.4862520000000 1.0
C      1  0.5038530000000  0.5461750000000  0.5535020000000 1.0
C      1  0.4960660000000  0.4761830000000  0.5667960000000 1.0
C      1  0.5661120000000  0.4883600000000  0.4405110000000 1.0
C      1  0.4338360000000  0.5449350000000  0.4600880000000 1.0
C      1  0.5659410000000  0.5566800000000  0.5191760000000 1.0
C      1  0.4338880000000  0.5109700000000  0.5585880000000 1.0
C      1  0.5661640000000  0.4543940000000  0.5390110000000 1.0
C      1  0.4340590000000  0.4426490000000  0.4799230000000 1.0
C      1  0.5458630000000  0.5743910000000  0.4753760000000 1.0
C      1  0.4538350000000  0.5578190000000  0.5520720000000 1.0
C      1  0.5460410000000  0.4833990000000  0.5762800000000 1.0
C      1  0.4541370000000  0.4249380000000  0.5237230000000 1.0
C      1  0.5461650000000  0.4415100000000  0.4470260000000 1.0
C      1  0.4539590000000  0.5159300000000  0.4228190000000 1.0
C      1  0.5783280000000  0.5214610000000  0.5488580000000 1.0
C      1  0.4216720000000  0.4676160000000  0.5429010000000 1.0
C      1  0.5785090000000  0.4463420000000  0.4936500000000 1.0
C      1  0.4216720000000  0.4778680000000  0.4502410000000 1.0
C      1  0.5783280000000  0.5317130000000  0.4561980000000 1.0
C      1  0.4214910000000  0.5529880000000  0.5054490000000 1.0
C      1  0.5104680000000  0.5646600000000  0.4448310000000 1.0
C      1  0.4892170000000  0.5795170000000  0.5284540000000 1.0
C      1  0.5105450000000  0.5145920000000  0.5831800000000 1.0
C      1  0.4895320000000  0.4346690000000  0.5542680000000 1.0
C      1  0.5107830000000  0.4198120000000  0.4706450000000 1.0
C      1  0.4894550000000  0.4847370000000  0.4159190000000 1.0
C      1  0.4655790000000  0.5701250000000  0.4925740000000 1.0
C      1  0.5341600000000  0.5410430000000  0.5571610000000 1.0
C      1  0.4657830000000  0.4703540000000  0.5641110000000 1.0
C      1  0.5344210000000  0.4292040000000  0.5065250000000 1.0
C      1  0.4658400000000  0.4582870000000  0.4419380000000 1.0
C      1  0.5342170000000  0.5289750000000  0.4349880000000 1.0
C      1  0.5031120000000  0.5471620000000  0.4693970000000 1.0
C      1  0.4966730000000  0.5495160000000  0.5256000000000 1.0
C      1  0.5031910000000  0.5020400000000  0.5557550000000 1.0
C      1  0.4968880000000  0.4521670000000  0.5297020000000 1.0
C      1  0.5033270000000  0.4498130000000  0.4734990000000 1.0
C      1  0.4968090000000  0.4972890000000  0.4433440000000 1.0
C      1  0.4572110000000  0.4775390000000  0.4652970000000 1.0
C      1  0.5428140000000  0.5183990000000  0.4633600000000 1.0
C      1  0.4570640000000  0.5402390000000  0.4975810000000 1.0
C      1  0.5427890000000  0.5217900000000  0.5338020000000 1.0
C      1  0.4571860000000  0.4809300000000  0.5357390000000 1.0
C      1  0.5429360000000  0.4590900000000  0.5015180000000 1.0
C      1  0.5678680000000  0.5618400000000  0.4911390000000 1.0
C      1  0.4319000000000  0.5378240000000  0.5490340000000 1.0
C      1  0.5680420000000  0.4761010000000  0.5574950000000 1.0
C      1  0.4321320000000  0.4374890000000  0.5079600000000 1.0
C      1  0.5681000000000  0.4615050000000  0.4500650000000 1.0
C      1  0.4319580000000  0.5232280000000  0.4416040000000 1.0
C      1  0.4731300000000  0.5208460000000  0.5842650000000 1.0
C      1  0.5269260000000  0.4369730000000  0.5603120000000 1.0
C      1  0.4733910000000  0.4156140000000  0.4755770000000 1.0
C      1  0.5268700000000  0.4784840000000  0.4148340000000 1.0
C      1  0.4730740000000  0.5623560000000  0.4387870000000 1.0
C      1  0.5266090000000  0.5837160000000  0.5235220000000 1.0
C      1  0.5307700000000  0.4649370000000  0.4736050000000 1.0
C      1  0.4693130000000  0.5046730000000  0.4564320000000 1.0
C      1  0.5306020000000  0.5396050000000  0.4823990000000 1.0
C      1  0.4692300000000  0.5343920000000  0.5254930000000 1.0
C      1  0.5306870000000  0.4946560000000  0.5426670000000 1.0
C      1  0.4693980000000  0.4597240000000  0.5167000000000 1.0
C      1  0.4542790000000  0.5655800000000  0.4612410000000 1.0
C      1  0.5454280000000  0.5659400000000  0.5375840000000 1.0
C      1  0.4543970000000  0.4997210000000  0.5758590000000 1.0
C      1  0.5457210000000  0.4337500000000  0.5378580000000 1.0
C      1  0.4545720000000  0.4333890000000  0.4615150000000 1.0
C      1  0.5456030000000  0.4996080000000  0.4232400000000 1.0
C      1  0.4772840000000  0.5227080000000  0.4802080000000 1.0
C      1  0.5226040000000  0.5280070000000  0.5098870000000 1.0
C      1  0.4773120000000  0.5048130000000  0.5292110000000 1.0
C      1  0.5227160000000  0.4766220000000  0.5188910000000 1.0
C      1  0.4773960000000  0.4713230000000  0.4892120000000 1.0
C      1  0.5226880000000  0.4945170000000  0.4698880000000 1.0
C      1  0.5867830000000  0.5426580000000  0.4804970000000 1.0
C      1  0.4130350000000  0.5373900000000  0.5270570000000 1.0
C      1  0.5868730000000  0.4949760000000  0.5461740000000 1.0
C      1  0.4132170000000  0.4566710000000  0.5186020000000 1.0
C      1  0.5869650000000  0.4619390000000  0.4720410000000 1.0
C      1  0.4131270000000  0.5043540000000  0.4529250000000 1.0
C      1  0.5839270000000  0.4594800000000  0.5175910000000 1.0
C      1  0.4162440000000  0.4636870000000  0.4735770000000 1.0
C      1  0.5838420000000  0.5044300000000  0.4555980000000 1.0
C      1  0.4160730000000  0.5398490000000  0.4815080000000 1.0
C      1  0.5837560000000  0.5356420000000  0.5255220000000 1.0
C      1  0.4161580000000  0.4948990000000  0.5435010000000 1.0
C      1  0.4779720000000  0.4176510000000  0.5046890000000 1.0
C      1  0.5223260000000  0.4542760000000  0.4311440000000 1.0
C      1  0.4777290000000  0.5361420000000  0.4259880000000 1.0
C      1  0.5220280000000  0.5816790000000  0.4944100000000 1.0
C      1  0.4776740000000  0.5450530000000  0.5679550000000 1.0
C      1  0.5222710000000  0.4631870000000  0.5731110000000 1.0
C      1  0.4605270000000  0.4851660000000  0.4177340000000 1.0
C      1  0.5393970000000  0.5633930000000  0.4461760000000 1.0
C      1  0.4602940000000  0.5776280000000  0.5279620000000 1.0
C      1  0.5394730000000  0.5141630000000  0.5813650000000 1.0
C      1  0.4606030000000  0.4359360000000  0.5529230000000 1.0
C      1  0.5397060000000  0.4217010000000  0.4711360000000 1.0
C      1  0.5947820000000  0.4869630000000  0.5183620000000 1.0
C      1  0.4052930000000  0.4767270000000  0.4977380000000 1.0
C      1  0.5947850000000  0.4900590000000  0.4789960000000 1.0
C      1  0.4052180000000  0.5123660000000  0.4807370000000 1.0
C      1  0.5947070000000  0.5226020000000  0.5013600000000 1.0
C      1  0.4052150000000  0.5092700000000  0.5201030000000 1.0
C      1  0.5142050000000  0.4996960000000  0.4995530000000 1.0
C      1  0.4857950000000  0.4996330000000  0.4995460000000 1.0
END
