TITL C-3578202-4305-255 8.92312394399551e-07 125000 -322.709665707055 0 0 54 (C3) n - 1
REM
REM in /home/bkarasulu/work/CARBON/AIRSS/Generating-Clusters/EDIP-Nigel-Params/with-SteepDescent/Higher-Symm/SD-CG/HFTN-CG
REM
REM
REM
REM
REM
REM ./C.cell (12c818d87b63d06a65506943cc24bca4)
REM
REM compiler GCC version 9.2.1 20190827 (Red Hat 9.2.1-1)
REM options -cpp -mtune=generic -march=x86-64 -g -O0 -fpre-include=/usr/include/finclude/math-vector-fortran.h
REM seed 906430522 -439876285 425309256 763555343 275340053 -749155556 -144716602 -1904985975 -103375875 -232604946 -1135918784 -1886406762 2068070278 237188864 2077227056 468164538 288047161 -1518747653 1567653630 -879148959 -1812240083 1716245209 1294212647 507940849 -255700532 150215985 511361187 -1484766425 -460754164 -1955459963 -2120059912 1753982919 136532932
REM
CELL 1.54180   50.00000   50.00000   50.00000   90.00000   90.00000   90.00000
LATT -1
SFAC C  
C      1  0.5187230000000  0.5193030000000  0.5469960000000 1.0
C      1  0.5071440000000  0.4730150000000  0.5463950000000 1.0
C      1  0.4728460000000  0.5061910000000  0.5464340000000 1.0
C      1  0.4358310000000  0.4688230000000  0.5192030000000 1.0
C      1  0.5049860000000  0.5706800000000  0.5209250000000 1.0
C      1  0.5586270000000  0.4598540000000  0.5202370000000 1.0
C      1  0.5763490000000  0.4902330000000  0.4639950000000 1.0
C      1  0.4535400000000  0.4396420000000  0.4623250000000 1.0
C      1  0.4711210000000  0.5712950000000  0.4638910000000 1.0
C      1  0.4450120000000  0.5126620000000  0.5424910000000 1.0
C      1  0.5382590000000  0.5402610000000  0.5436430000000 1.0
C      1  0.5155460000000  0.4457060000000  0.5424260000000 1.0
C      1  0.5276830000000  0.5520740000000  0.5187910000000 1.0
C      1  0.5311760000000  0.4495540000000  0.5177300000000 1.0
C      1  0.4406440000000  0.4977970000000  0.5174120000000 1.0
C      1  0.4899200000000  0.5796860000000  0.4969360000000 1.0
C      1  0.5740680000000  0.4689710000000  0.4965300000000 1.0
C      1  0.4361180000000  0.4514650000000  0.4950740000000 1.0
C      1  0.5273110000000  0.4938110000000  0.5334350000000 1.0
C      1  0.4808350000000  0.4786470000000  0.5328460000000 1.0
C      1  0.4909360000000  0.5264790000000  0.5334490000000 1.0
C      1  0.5759940000000  0.5034910000000  0.5150380000000 1.0
C      1  0.4649670000000  0.4321000000000  0.5132550000000 1.0
C      1  0.4586440000000  0.5639520000000  0.5146020000000 1.0
C      1  0.5710220000000  0.5104950000000  0.4839150000000 1.0
C      1  0.4736610000000  0.4336490000000  0.4822000000000 1.0
C      1  0.4557820000000  0.5563950000000  0.4833440000000 1.0
C      1  0.4670270000000  0.4851180000000  0.4644400000000 1.0
C      1  0.5037560000000  0.5368380000000  0.4653300000000 1.0
C      1  0.5301860000000  0.4791660000000  0.4649580000000 1.0
C      1  0.5573230000000  0.4859750000000  0.5332200000000 1.0
C      1  0.4590470000000  0.4565840000000  0.5320020000000 1.0
C      1  0.4827230000000  0.5563900000000  0.5332840000000 1.0
C      1  0.4373670000000  0.5420590000000  0.5212830000000 1.0
C      1  0.5676380000000  0.5326950000000  0.5223820000000 1.0
C      1  0.4944040000000  0.4245610000000  0.5205550000000 1.0
C      1  0.4893880000000  0.4825180000000  0.5023580000000 1.0
C      1  0.4901530000000  0.5178700000000  0.5027420000000 1.0
C      1  0.5203860000000  0.4995280000000  0.5028250000000 1.0
C      1  0.4883120000000  0.5197740000000  0.4464970000000 1.0
C      1  0.5232130000000  0.5015170000000  0.4466230000000 1.0
C      1  0.4899550000000  0.4804230000000  0.4460920000000 1.0
C      1  0.4357880000000  0.5204580000000  0.5001090000000 1.0
C      1  0.5498150000000  0.5453660000000  0.5014240000000 1.0
C      1  0.5143830000000  0.4341610000000  0.4999120000000 1.0
C      1  0.4964660000000  0.4529870000000  0.4846160000000 1.0
C      1  0.4611190000000  0.5269270000000  0.4850790000000 1.0
C      1  0.5428250000000  0.5205610000000  0.4857630000000 1.0
C      1  0.4445780000000  0.4664610000000  0.4678640000000 1.0
C      1  0.4988030000000  0.5655180000000  0.4694190000000 1.0
C      1  0.5574820000000  0.4690210000000  0.4689310000000 1.0
C      1  0.4627300000000  0.5127100000000  0.4593760000000 1.0
C      1  0.5298240000000  0.5268890000000  0.4601450000000 1.0
C      1  0.5085620000000  0.4616940000000  0.4592540000000 1.0
END
