TITL C-3578198-8939-126 -0.00128624576101237 125000 -71.7487610268335 0 0 16 (Cs) n - 1
REM
REM in /home/bkarasulu/work/CARBON/AIRSS/Generating-Clusters/EDIP-Nigel-Params/with-SteepDescent/Higher-Symm/SD-CG/HFTN-CG
REM
REM
REM
REM
REM
REM ./C.cell (12c818d87b63d06a65506943cc24bca4)
REM
REM compiler GCC version 9.2.1 20190827 (Red Hat 9.2.1-1)
REM options -cpp -mtune=generic -march=x86-64 -g -O0 -fpre-include=/usr/include/finclude/math-vector-fortran.h
REM seed 11535829 -1228885592 347948592 632110634 1445776576 -1575628139 -1139134174 1331630937 935903403 -1341171635 391387594 797393541 1849750604 1804717119 -1282716572 -1677398882 -2042578499 11380424 1501675291 1801178635 -1877499438 -253320521 2049604013 -1960961147 -1954772898 -1035314906 2112022088 -505946121 2023443183 947863474 2086228959 47029030 -302856060
REM
CELL 1.54180   50.00000   50.00000   50.00000   90.00000   90.00000   90.00000
LATT -1
SFAC C  
C      1  0.5159480000000  0.5092970000000  0.5234360000000 1.0
C      1  0.5386510000000  0.5352410000000  0.4866500000000 1.0
C      1  0.5157280000000  0.4904440000000  0.4835710000000 1.0
C      1  0.4648120000000  0.5221560000000  0.4932460000000 1.0
C      1  0.4560690000000  0.4768280000000  0.4891280000000 1.0
C      1  0.4563000000000  0.4966180000000  0.5309740000000 1.0
C      1  0.5240750000000  0.4677020000000  0.4728690000000 1.0
C      1  0.5244890000000  0.5031040000000  0.5477280000000 1.0
C      1  0.5392460000000  0.5583950000000  0.4756960000000 1.0
C      1  0.4627910000000  0.5452730000000  0.4823250000000 1.0
C      1  0.4460400000000  0.4584220000000  0.4743520000000 1.0
C      1  0.4464840000000  0.4964040000000  0.5546660000000 1.0
C      1  0.5602170000000  0.4977810000000  0.5042460000000 1.0
C      1  0.4684140000000  0.4966450000000  0.5052910000000 1.0
C      1  0.5362120000000  0.5096520000000  0.4987650000000 1.0
C      1  0.4975000000000  0.4904810000000  0.5080450000000 1.0
END
