TITL C-3578202-4305-91 -6.50086404912127e-06 125000 -1179.09934613055 0 0 187 (C1) n - 1
REM
REM in /home/bkarasulu/work/CARBON/AIRSS/Generating-Clusters/EDIP-Nigel-Params/with-SteepDescent/Higher-Symm/SD-CG/HFTN-CG
REM
REM
REM
REM
REM
REM ./C.cell (12c818d87b63d06a65506943cc24bca4)
REM
REM compiler GCC version 9.2.1 20190827 (Red Hat 9.2.1-1)
REM options -cpp -mtune=generic -march=x86-64 -g -O0 -fpre-include=/usr/include/finclude/math-vector-fortran.h
REM seed -914065286 1107304144 -1997833351 -847510379 1353906887 -1312695802 1811868725 -309039417 -684978779 -560657829 286733618 637164539 -1854440714 -1990804442 -1119497545 634423641 -1745573321 -1113668586 258860335 1183618475 -396229854 -1752727193 -1329725390 -1467104466 1128719821 -553425893 -853678108 -1326094440 -470194350 1091038911 729894043 1624877746 -925251467
REM
CELL 1.54180   50.00000   50.00000   50.00000   90.00000   90.00000   90.00000
LATT -1
SFAC C  
C      1  0.4764850000000  0.5718900000000  0.4691290000000 1.0
C      1  0.4825540000000  0.4185060000000  0.4644990000000 1.0
C      1  0.5027090000000  0.5789780000000  0.4540600000000 1.0
C      1  0.5253100000000  0.4121680000000  0.4735130000000 1.0
C      1  0.5210970000000  0.6047090000000  0.5033400000000 1.0
C      1  0.5463860000000  0.4210950000000  0.5301070000000 1.0
C      1  0.5137150000000  0.5732050000000  0.5431810000000 1.0
C      1  0.4524690000000  0.4193270000000  0.5278450000000 1.0
C      1  0.5659770000000  0.4933540000000  0.5372980000000 1.0
C      1  0.5072100000000  0.5219420000000  0.5486560000000 1.0
C      1  0.4572510000000  0.4802240000000  0.5684020000000 1.0
C      1  0.4368520000000  0.5134250000000  0.5144870000000 1.0
C      1  0.4382850000000  0.4898460000000  0.4637780000000 1.0
C      1  0.4904430000000  0.5157810000000  0.4376890000000 1.0
C      1  0.5292170000000  0.4804230000000  0.4338300000000 1.0
C      1  0.5647740000000  0.5179800000000  0.4869810000000 1.0
C      1  0.5252810000000  0.5386820000000  0.4620620000000 1.0
C      1  0.5252030000000  0.4672920000000  0.4800740000000 1.0
C      1  0.5220550000000  0.5120140000000  0.5035040000000 1.0
C      1  0.5238060000000  0.4677360000000  0.5281620000000 1.0
C      1  0.4877620000000  0.5049810000000  0.5312130000000 1.0
C      1  0.4699550000000  0.4620110000000  0.5249650000000 1.0
C      1  0.4758560000000  0.5321530000000  0.4886760000000 1.0
C      1  0.4774000000000  0.4647180000000  0.4787410000000 1.0
C      1  0.5763050000000  0.4386290000000  0.4751860000000 1.0
C      1  0.5803450000000  0.5754960000000  0.5260260000000 1.0
C      1  0.5258050000000  0.4291780000000  0.5745000000000 1.0
C      1  0.4615550000000  0.5735840000000  0.5847380000000 1.0
C      1  0.4097390000000  0.4330720000000  0.5378680000000 1.0
C      1  0.4168700000000  0.5818700000000  0.4738810000000 1.0
C      1  0.4698140000000  0.4201590000000  0.4220900000000 1.0
C      1  0.5320760000000  0.5741220000000  0.4135840000000 1.0
C      1  0.4888340000000  0.4594250000000  0.5918930000000 1.0
C      1  0.4271900000000  0.5405000000000  0.5642280000000 1.0
C      1  0.4129970000000  0.4670850000000  0.4962760000000 1.0
C      1  0.4357110000000  0.5334770000000  0.4194860000000 1.0
C      1  0.5086420000000  0.4531760000000  0.4062400000000 1.0
C      1  0.5742600000000  0.5461620000000  0.4332460000000 1.0
C      1  0.5931450000000  0.4671570000000  0.5143780000000 1.0
C      1  0.5573680000000  0.5299290000000  0.5729000000000 1.0
C      1  0.4569150000000  0.4660000000000  0.4565230000000 1.0
C      1  0.5132290000000  0.5362280000000  0.4358500000000 1.0
C      1  0.5460650000000  0.4661970000000  0.4583060000000 1.0
C      1  0.5570830000000  0.5440230000000  0.5046820000000 1.0
C      1  0.5447530000000  0.4716100000000  0.5491090000000 1.0
C      1  0.4858070000000  0.5440450000000  0.5579020000000 1.0
C      1  0.4465660000000  0.4635840000000  0.5448730000000 1.0
C      1  0.4450560000000  0.5371660000000  0.4970960000000 1.0
C      1  0.4749480000000  0.4839990000000  0.6088950000000 1.0
C      1  0.4074900000000  0.5163860000000  0.5573670000000 1.0
C      1  0.3969200000000  0.4891890000000  0.4777670000000 1.0
C      1  0.4440660000000  0.5075690000000  0.4100180000000 1.0
C      1  0.5219810000000  0.4817850000000  0.3956400000000 1.0
C      1  0.5897290000000  0.5206670000000  0.4389590000000 1.0
C      1  0.6088310000000  0.4871830000000  0.5299910000000 1.0
C      1  0.5592310000000  0.5103440000000  0.5933650000000 1.0
C      1  0.5143240000000  0.5506980000000  0.5907700000000 1.0
C      1  0.4408410000000  0.4391390000000  0.5816200000000 1.0
C      1  0.4176150000000  0.5622660000000  0.5200660000000 1.0
C      1  0.4353540000000  0.4441270000000  0.4548760000000 1.0
C      1  0.4825260000000  0.5541900000000  0.4090550000000 1.0
C      1  0.5538480000000  0.4442110000000  0.4272910000000 1.0
C      1  0.5860810000000  0.5648490000000  0.4786560000000 1.0
C      1  0.5784540000000  0.4456290000000  0.5590370000000 1.0
C      1  0.5405540000000  0.6201380000000  0.4756960000000 1.0
C      1  0.5391930000000  0.3863710000000  0.4987870000000 1.0
C      1  0.5199240000000  0.6105980000000  0.5465690000000 1.0
C      1  0.4841640000000  0.3837580000000  0.5235580000000 1.0
C      1  0.4716140000000  0.6017970000000  0.5192800000000 1.0
C      1  0.4512640000000  0.3817480000000  0.4866690000000 1.0
C      1  0.4801200000000  0.6103310000000  0.4750410000000 1.0
C      1  0.4941400000000  0.3889300000000  0.4704370000000 1.0
C      1  0.4760010000000  0.4342750000000  0.5170010000000 1.0
C      1  0.4808750000000  0.5617300000000  0.5036670000000 1.0
C      1  0.4869000000000  0.4376040000000  0.4882580000000 1.0
C      1  0.5288080000000  0.5673270000000  0.4681090000000 1.0
C      1  0.5175030000000  0.4388660000000  0.4898050000000 1.0
C      1  0.5338100000000  0.5685670000000  0.4978030000000 1.0
C      1  0.5266240000000  0.4400520000000  0.5176910000000 1.0
C      1  0.5091680000000  0.5642250000000  0.5145890000000 1.0
C      1  0.4551410000000  0.5557020000000  0.4218140000000 1.0
C      1  0.5263030000000  0.4341100000000  0.4192220000000 1.0
C      1  0.5789300000000  0.5686230000000  0.4511380000000 1.0
C      1  0.5900240000000  0.4426600000000  0.5317760000000 1.0
C      1  0.5411230000000  0.5538730000000  0.5779990000000 1.0
C      1  0.4695070000000  0.4349550000000  0.5895510000000 1.0
C      1  0.4378600000000  0.5513460000000  0.5381100000000 1.0
C      1  0.4215960000000  0.4421790000000  0.4812260000000 1.0
C      1  0.5221670000000  0.5080190000000  0.5756270000000 1.0
C      1  0.4467280000000  0.4788500000000  0.6084770000000 1.0
C      1  0.4070500000000  0.5173340000000  0.5263030000000 1.0
C      1  0.4029270000000  0.4839400000000  0.4494990000000 1.0
C      1  0.4721860000000  0.5069810000000  0.4053720000000 1.0
C      1  0.5502030000000  0.4776290000000  0.3948250000000 1.0
C      1  0.5972160000000  0.5183900000000  0.4671780000000 1.0
C      1  0.5990470000000  0.4910410000000  0.5567460000000 1.0
C      1  0.5335470000000  0.4844500000000  0.5041280000000 1.0
C      1  0.5303420000000  0.5288610000000  0.5283280000000 1.0
C      1  0.4934480000000  0.4758490000000  0.5380480000000 1.0
C      1  0.4588700000000  0.5122740000000  0.5353940000000 1.0
C      1  0.4641230000000  0.4766390000000  0.5011090000000 1.0
C      1  0.4716930000000  0.5246620000000  0.4591150000000 1.0
C      1  0.5004830000000  0.4802400000000  0.4708940000000 1.0
C      1  0.5437180000000  0.5166880000000  0.4651140000000 1.0
C      1  0.4791940000000  0.3788120000000  0.4451070000000 1.0
C      1  0.5255850000000  0.6163830000000  0.4495200000000 1.0
C      1  0.5633730000000  0.3923830000000  0.4825460000000 1.0
C      1  0.5466040000000  0.6093640000000  0.5326420000000 1.0
C      1  0.5077610000000  0.3951720000000  0.5385960000000 1.0
C      1  0.4709850000000  0.6035850000000  0.5481710000000 1.0
C      1  0.4347750000000  0.3829830000000  0.5131520000000 1.0
C      1  0.4504810000000  0.6148760000000  0.4781030000000 1.0
C      1  0.5676830000000  0.4691960000000  0.4146090000000 1.0
C      1  0.6019440000000  0.5413490000000  0.4840730000000 1.0
C      1  0.5828240000000  0.4721000000000  0.5720170000000 1.0
C      1  0.5098730000000  0.5216150000000  0.5995690000000 1.0
C      1  0.4280700000000  0.4646100000000  0.5920940000000 1.0
C      1  0.3979970000000  0.5418070000000  0.5127140000000 1.0
C      1  0.4182960000000  0.4641040000000  0.4344070000000 1.0
C      1  0.4894610000000  0.5272510000000  0.3954510000000 1.0
C      1  0.4674390000000  0.5280060000000  0.5788090000000 1.0
C      1  0.4216860000000  0.4781560000000  0.5399870000000 1.0
C      1  0.4270100000000  0.5334170000000  0.4728290000000 1.0
C      1  0.4684710000000  0.4704640000000  0.4282860000000 1.0
C      1  0.5342410000000  0.5259840000000  0.4167910000000 1.0
C      1  0.5726240000000  0.4814820000000  0.4642770000000 1.0
C      1  0.6050180000000  0.5355010000000  0.5121510000000 1.0
C      1  0.5340150000000  0.4777150000000  0.5768400000000 1.0
C      1  0.4476360000000  0.5476350000000  0.5883050000000 1.0
C      1  0.4037420000000  0.4603910000000  0.5254060000000 1.0
C      1  0.4234420000000  0.5588320000000  0.4581710000000 1.0
C      1  0.4803530000000  0.4474220000000  0.4143240000000 1.0
C      1  0.5521070000000  0.5498540000000  0.4121530000000 1.0
C      1  0.5888960000000  0.4639240000000  0.4828440000000 1.0
C      1  0.5806100000000  0.5458150000000  0.5262040000000 1.0
C      1  0.5184720000000  0.4539460000000  0.5890790000000 1.0
C      1  0.4900370000000  0.3986940000000  0.4248240000000 1.0
C      1  0.5426840000000  0.5971510000000  0.4306510000000 1.0
C      1  0.5792990000000  0.4155360000000  0.4923310000000 1.0
C      1  0.5604090000000  0.5860370000000  0.5443880000000 1.0
C      1  0.5050030000000  0.4109710000000  0.5638760000000 1.0
C      1  0.4517430000000  0.5867300000000  0.5607270000000 1.0
C      1  0.4101850000000  0.4114750000000  0.5176050000000 1.0
C      1  0.4324090000000  0.6022320000000  0.4593320000000 1.0
C      1  0.5113950000000  0.4155320000000  0.4374700000000 1.0
C      1  0.5580530000000  0.5867870000000  0.4524310000000 1.0
C      1  0.5749010000000  0.4205340000000  0.5204980000000 1.0
C      1  0.5407720000000  0.5652130000000  0.5513430000000 1.0
C      1  0.4809620000000  0.4126750000000  0.5773940000000 1.0
C      1  0.4670370000000  0.5615900000000  0.5366130000000 1.0
C      1  0.4288960000000  0.4186050000000  0.4965370000000 1.0
C      1  0.4510440000000  0.5710290000000  0.4484230000000 1.0
C      1  0.5057470000000  0.5641100000000  0.4264860000000 1.0
C      1  0.5673630000000  0.4285390000000  0.4494280000000 1.0
C      1  0.5751870000000  0.5839760000000  0.4987300000000 1.0
C      1  0.5498640000000  0.4335700000000  0.5572910000000 1.0
C      1  0.4928000000000  0.5741090000000  0.5819020000000 1.0
C      1  0.4375180000000  0.4354290000000  0.5505050000000 1.0
C      1  0.4324150000000  0.5755370000000  0.4982640000000 1.0
C      1  0.4551320000000  0.4178970000000  0.4486130000000 1.0
C      1  0.5751200000000  0.4933710000000  0.4344120000000 1.0
C      1  0.6156470000000  0.5105480000000  0.5173750000000 1.0
C      1  0.5605190000000  0.4820470000000  0.5901690000000 1.0
C      1  0.4814890000000  0.5136860000000  0.6023500000000 1.0
C      1  0.4123800000000  0.4881880000000  0.5661950000000 1.0
C      1  0.4015980000000  0.5189720000000  0.4825090000000 1.0
C      1  0.4401120000000  0.4781820000000  0.4170320000000 1.0
C      1  0.5174850000000  0.5140690000000  0.3947260000000 1.0
C      1  0.4508250000000  0.3875330000000  0.4562550000000 1.0
C      1  0.4964020000000  0.6165840000000  0.4503670000000 1.0
C      1  0.5578120000000  0.4020180000000  0.4553190000000 1.0
C      1  0.5611640000000  0.6105620000000  0.4968390000000 1.0
C      1  0.5344850000000  0.3942890000000  0.5264210000000 1.0
C      1  0.4961960000000  0.6013080000000  0.5634250000000 1.0
C      1  0.4569960000000  0.3895460000000  0.5341140000000 1.0
C      1  0.4462070000000  0.6016410000000  0.5046730000000 1.0
C      1  0.5585790000000  0.5228150000000  0.5430180000000 1.0
C      1  0.4862850000000  0.4752530000000  0.5669100000000 1.0
C      1  0.4502440000000  0.5092660000000  0.5624300000000 1.0
C      1  0.4378070000000  0.4878370000000  0.4956380000000 1.0
C      1  0.4439130000000  0.5175920000000  0.4532200000000 1.0
C      1  0.5001800000000  0.4870490000000  0.4428570000000 1.0
C      1  0.5464910000000  0.5052200000000  0.4365710000000 1.0
C      1  0.5629760000000  0.4911480000000  0.5055940000000 1.0
C      1  0.4923150000000  0.6132840000000  0.5018500000000 1.0
C      1  0.4793790000000  0.3789020000000  0.4943270000000 1.0
C      1  0.4928170000000  0.5101940000000  0.5024680000000 1.0
END
