TITL C-3577083-591-19 2.01715975778518e-07 125000 -179.550114649621 0 0 30 (C1) n - 1
REM
REM in /home/bkarasulu/work/CARBON/AIRSS/Generating-Clusters/EDIP-Nigel-Params/with-SteepDescent/Higher-Symm/SD-CG/HFTN-CG
REM
REM
REM
REM
REM
REM ./C.cell (12c818d87b63d06a65506943cc24bca4)
REM
REM compiler GCC version 9.2.1 20190827 (Red Hat 9.2.1-1)
REM options -cpp -mtune=generic -march=x86-64 -g -O0 -fpre-include=/usr/include/finclude/math-vector-fortran.h
REM seed -1699261228 -1581036495 1226058279 265319848 -1511844645 -1137917430 -282148502 2062972026 330120575 1531884733 -110592952 1264687859 648984091 259092237 -789515808 1185159834 -591698901 -2078502797 -474060369 1880179267 1323874967 351046168 514061445 -1241888243 -828538047 847921730 1684009395 1514998762 558396485 788138123 1557079619 827696132 395474444
REM
CELL 1.54180   50.00000   50.00000   50.00000   90.00000   90.00000   90.00000
LATT -1
SFAC C  
C      1  0.5508340000000  0.4637160000000  0.5149360000000 1.0
C      1  0.4697110000000  0.5129180000000  0.5589650000000 1.0
C      1  0.5111130000000  0.5419310000000  0.4791750000000 1.0
C      1  0.5570210000000  0.5259390000000  0.4878910000000 1.0
C      1  0.4480640000000  0.4633270000000  0.4858700000000 1.0
C      1  0.4551640000000  0.5235500000000  0.5139760000000 1.0
C      1  0.4728600000000  0.4896120000000  0.4544740000000 1.0
C      1  0.5342100000000  0.5146890000000  0.4476540000000 1.0
C      1  0.5339200000000  0.4945910000000  0.5439570000000 1.0
C      1  0.5051350000000  0.4601210000000  0.5263710000000 1.0
C      1  0.4819210000000  0.5539970000000  0.5392410000000 1.0
C      1  0.4897640000000  0.4492910000000  0.4717640000000 1.0
C      1  0.5568050000000  0.5143070000000  0.4625270000000 1.0
C      1  0.4733070000000  0.5457960000000  0.5140660000000 1.0
C      1  0.5097640000000  0.4809180000000  0.5453800000000 1.0
C      1  0.5545090000000  0.4889480000000  0.5261920000000 1.0
C      1  0.4534130000000  0.4887490000000  0.4757160000000 1.0
C      1  0.4502940000000  0.5116730000000  0.5387760000000 1.0
C      1  0.4659730000000  0.4429130000000  0.4853380000000 1.0
C      1  0.5266010000000  0.4506070000000  0.5095940000000 1.0
C      1  0.5361750000000  0.5442390000000  0.4911310000000 1.0
C      1  0.5098220000000  0.5252280000000  0.4558980000000 1.0
C      1  0.4802790000000  0.5387120000000  0.5615410000000 1.0
C      1  0.4849380000000  0.4648720000000  0.4487120000000 1.0
C      1  0.5626890000000  0.5093490000000  0.5093470000000 1.0
C      1  0.4884220000000  0.4924700000000  0.5585880000000 1.0
C      1  0.4882970000000  0.5514150000000  0.4915610000000 1.0
C      1  0.4474520000000  0.5113880000000  0.4903840000000 1.0
C      1  0.4860150000000  0.5132680000000  0.4483500000000 1.0
C      1  0.5107480000000  0.4602260000000  0.4878150000000 1.0
END
