TITL C-3578195-8548-325 -2.91163883429175e-06 125000 -1047.20062681138 0 0 169 (C1) n - 1
REM
REM in /home/bkarasulu/work/CARBON/AIRSS/Generating-Clusters/EDIP-Nigel-Params/with-SteepDescent/Higher-Symm/SD-CG/HFTN-CG
REM
REM
REM
REM
REM
REM ./C.cell (12c818d87b63d06a65506943cc24bca4)
REM
REM compiler GCC version 9.2.1 20190827 (Red Hat 9.2.1-1)
REM options -cpp -mtune=generic -march=x86-64 -g -O0 -fpre-include=/usr/include/finclude/math-vector-fortran.h
REM seed -1297967103 723796203 -1735256799 1057175630 2058486542 -1395676127 1563909358 147115293 -1913630083 -499970012 1230454627 1800526037 -2035046402 -417338338 -2013500489 -1687462875 -212593695 108611909 -478729360 557098927 -861339020 362029633 -34669349 -1555350831 -558444292 -606821241 641892156 -1465045553 -1237753386 -1043487137 -2131752491 -318774229 -1421273880
REM
CELL 1.54180   50.00000   50.00000   50.00000   90.00000   90.00000   90.00000
LATT -1
SFAC C  
C      1  0.5476770000000  0.5137820000000  0.4082240000000 1.0
C      1  0.4466230000000  0.4901240000000  0.5979350000000 1.0
C      1  0.4490670000000  0.5737820000000  0.5512100000000 1.0
C      1  0.5482090000000  0.4256200000000  0.4416940000000 1.0
C      1  0.4538760000000  0.4090720000000  0.4876690000000 1.0
C      1  0.5463640000000  0.5978730000000  0.5178570000000 1.0
C      1  0.5076110000000  0.4969030000000  0.3989040000000 1.0
C      1  0.4878330000000  0.5111170000000  0.6051120000000 1.0
C      1  0.4583080000000  0.5078570000000  0.3990960000000 1.0
C      1  0.5367450000000  0.4956040000000  0.5994690000000 1.0
C      1  0.5198660000000  0.4499280000000  0.5872660000000 1.0
C      1  0.4772770000000  0.5576550000000  0.4072950000000 1.0
C      1  0.4752210000000  0.5285070000000  0.4097920000000 1.0
C      1  0.5180620000000  0.4743280000000  0.6036700000000 1.0
C      1  0.4741000000000  0.5009610000000  0.5126620000000 1.0
C      1  0.5276720000000  0.4983810000000  0.4904490000000 1.0
C      1  0.5042250000000  0.5197850000000  0.4458180000000 1.0
C      1  0.4947000000000  0.4838660000000  0.5636290000000 1.0
C      1  0.4449020000000  0.5292260000000  0.5733470000000 1.0
C      1  0.5524680000000  0.4733160000000  0.4261550000000 1.0
C      1  0.5131880000000  0.4525690000000  0.5135250000000 1.0
C      1  0.4980460000000  0.5462430000000  0.4894690000000 1.0
C      1  0.5386350000000  0.5138850000000  0.4624620000000 1.0
C      1  0.4662850000000  0.4865650000000  0.5430370000000 1.0
C      1  0.4761390000000  0.4272490000000  0.4918680000000 1.0
C      1  0.5278430000000  0.5734710000000  0.5215610000000 1.0
C      1  0.5048300000000  0.5237800000000  0.4142430000000 1.0
C      1  0.4904590000000  0.4829130000000  0.5940960000000 1.0
C      1  0.3832730000000  0.4996830000000  0.4884030000000 1.0
C      1  0.6201250000000  0.4973310000000  0.5102870000000 1.0
C      1  0.5106680000000  0.4491050000000  0.4209660000000 1.0
C      1  0.4857760000000  0.5551820000000  0.5780830000000 1.0
C      1  0.5450660000000  0.4726090000000  0.4901770000000 1.0
C      1  0.4594920000000  0.5260920000000  0.5050240000000 1.0
C      1  0.5846880000000  0.5477140000000  0.4708970000000 1.0
C      1  0.4173090000000  0.4540270000000  0.5326690000000 1.0
C      1  0.4432590000000  0.4815120000000  0.4882960000000 1.0
C      1  0.5631840000000  0.5022980000000  0.5177930000000 1.0
C      1  0.5827270000000  0.5275260000000  0.5096130000000 1.0
C      1  0.4190640000000  0.4637250000000  0.4897820000000 1.0
C      1  0.4259390000000  0.5816660000000  0.4813980000000 1.0
C      1  0.5755090000000  0.4189040000000  0.5080340000000 1.0
C      1  0.5020910000000  0.4072930000000  0.4517600000000 1.0
C      1  0.4940430000000  0.5906400000000  0.5432580000000 1.0
C      1  0.4134560000000  0.4953650000000  0.5540130000000 1.0
C      1  0.5878800000000  0.5080610000000  0.4448450000000 1.0
C      1  0.4815870000000  0.5716440000000  0.4517630000000 1.0
C      1  0.5202880000000  0.4201380000000  0.5545520000000 1.0
C      1  0.4538110000000  0.4192280000000  0.5349700000000 1.0
C      1  0.5497310000000  0.5859810000000  0.4669560000000 1.0
C      1  0.4870970000000  0.5409290000000  0.5360070000000 1.0
C      1  0.5131660000000  0.4565500000000  0.4643650000000 1.0
C      1  0.5293980000000  0.4000370000000  0.5053760000000 1.0
C      1  0.4734850000000  0.5955050000000  0.4878280000000 1.0
C      1  0.5945060000000  0.4375340000000  0.5174630000000 1.0
C      1  0.4139050000000  0.5557140000000  0.4833490000000 1.0
C      1  0.5046620000000  0.5894110000000  0.4506480000000 1.0
C      1  0.4976440000000  0.4024180000000  0.5542810000000 1.0
C      1  0.4281960000000  0.4686950000000  0.5554560000000 1.0
C      1  0.5737170000000  0.5358890000000  0.4466440000000 1.0
C      1  0.4651120000000  0.5489480000000  0.5580940000000 1.0
C      1  0.5332130000000  0.4517590000000  0.4395160000000 1.0
C      1  0.5701070000000  0.5819120000000  0.5119160000000 1.0
C      1  0.4286380000000  0.4219980000000  0.4906470000000 1.0
C      1  0.4874950000000  0.3947040000000  0.4756850000000 1.0
C      1  0.5095850000000  0.6076980000000  0.5233460000000 1.0
C      1  0.4631080000000  0.4660700000000  0.5960070000000 1.0
C      1  0.5386580000000  0.5407960000000  0.4087240000000 1.0
C      1  0.4016410000000  0.5017730000000  0.4394920000000 1.0
C      1  0.5943180000000  0.4991220000000  0.5566610000000 1.0
C      1  0.4381070000000  0.4768340000000  0.4341320000000 1.0
C      1  0.5538290000000  0.5246490000000  0.5632460000000 1.0
C      1  0.5072490000000  0.5188100000000  0.5344950000000 1.0
C      1  0.4899810000000  0.4766260000000  0.4681660000000 1.0
C      1  0.5203510000000  0.5905760000000  0.4762110000000 1.0
C      1  0.4820500000000  0.4030900000000  0.5283810000000 1.0
C      1  0.4468750000000  0.5369760000000  0.6018130000000 1.0
C      1  0.5473140000000  0.4688220000000  0.3972610000000 1.0
C      1  0.4508490000000  0.5898640000000  0.4666030000000 1.0
C      1  0.5538290000000  0.4050800000000  0.5231190000000 1.0
C      1  0.5910120000000  0.4515390000000  0.4594330000000 1.0
C      1  0.4099600000000  0.5472080000000  0.5308920000000 1.0
C      1  0.5695160000000  0.5655670000000  0.5373950000000 1.0
C      1  0.4248430000000  0.4370380000000  0.4617880000000 1.0
C      1  0.5443400000000  0.4950450000000  0.5556080000000 1.0
C      1  0.4546290000000  0.5064960000000  0.4420840000000 1.0
C      1  0.4286790000000  0.5698310000000  0.5302410000000 1.0
C      1  0.5738940000000  0.4277360000000  0.4582460000000 1.0
C      1  0.5281110000000  0.4487120000000  0.4883420000000 1.0
C      1  0.4771960000000  0.5491390000000  0.5098580000000 1.0
C      1  0.3914130000000  0.4660960000000  0.5240830000000 1.0
C      1  0.6111860000000  0.5339810000000  0.4771160000000 1.0
C      1  0.5194500000000  0.5839330000000  0.4270190000000 1.0
C      1  0.4817530000000  0.4154830000000  0.5756830000000 1.0
C      1  0.4700520000000  0.4616260000000  0.4068600000000 1.0
C      1  0.5278570000000  0.5431820000000  0.5940160000000 1.0
C      1  0.4868260000000  0.5420560000000  0.4619920000000 1.0
C      1  0.5107230000000  0.4577090000000  0.5591040000000 1.0
C      1  0.5305240000000  0.4638610000000  0.5368770000000 1.0
C      1  0.4556860000000  0.5318840000000  0.4612400000000 1.0
C      1  0.5882800000000  0.4729660000000  0.4815000000000 1.0
C      1  0.4178150000000  0.5194080000000  0.5172230000000 1.0
C      1  0.5020740000000  0.5304080000000  0.5854140000000 1.0
C      1  0.4950270000000  0.4752940000000  0.4167000000000 1.0
C      1  0.5722160000000  0.4824690000000  0.5675140000000 1.0
C      1  0.4212230000000  0.5184360000000  0.4262830000000 1.0
C      1  0.4633050000000  0.4650890000000  0.4735370000000 1.0
C      1  0.5323950000000  0.5130020000000  0.5167750000000 1.0
C      1  0.5206510000000  0.5645480000000  0.4929920000000 1.0
C      1  0.4880180000000  0.4388630000000  0.5153830000000 1.0
C      1  0.4329610000000  0.4332760000000  0.5184980000000 1.0
C      1  0.5691130000000  0.5703930000000  0.4838410000000 1.0
C      1  0.4383290000000  0.4896000000000  0.5181060000000 1.0
C      1  0.5699420000000  0.5070440000000  0.4796000000000 1.0
C      1  0.4493740000000  0.4526510000000  0.4497650000000 1.0
C      1  0.5418110000000  0.5548280000000  0.5458350000000 1.0
C      1  0.5833520000000  0.5263400000000  0.5590690000000 1.0
C      1  0.4084580000000  0.4739430000000  0.4359820000000 1.0
C      1  0.4544690000000  0.5010890000000  0.5701110000000 1.0
C      1  0.5414320000000  0.4998420000000  0.4339320000000 1.0
C      1  0.5123230000000  0.5083480000000  0.5609400000000 1.0
C      1  0.4862820000000  0.4939350000000  0.4434290000000 1.0
C      1  0.4590290000000  0.4289550000000  0.5622340000000 1.0
C      1  0.5458400000000  0.5771520000000  0.4387960000000 1.0
C      1  0.4512070000000  0.4556290000000  0.5703510000000 1.0
C      1  0.5534900000000  0.5509400000000  0.4314710000000 1.0
C      1  0.5998040000000  0.4574870000000  0.5364500000000 1.0
C      1  0.4023500000000  0.5402420000000  0.4623700000000 1.0
C      1  0.4589690000000  0.5136300000000  0.6124870000000 1.0
C      1  0.5359140000000  0.4937390000000  0.3901120000000 1.0
C      1  0.3993240000000  0.5116180000000  0.4665370000000 1.0
C      1  0.6022340000000  0.4861720000000  0.5312260000000 1.0
C      1  0.4654580000000  0.4395720000000  0.4274960000000 1.0
C      1  0.5314020000000  0.5652220000000  0.5726720000000 1.0
C      1  0.5390620000000  0.4176780000000  0.4834810000000 1.0
C      1  0.4670300000000  0.5791380000000  0.5114350000000 1.0
C      1  0.6141220000000  0.5257270000000  0.5055460000000 1.0
C      1  0.3890250000000  0.4712090000000  0.4950570000000 1.0
C      1  0.5478710000000  0.4196340000000  0.5471520000000 1.0
C      1  0.4616470000000  0.5718440000000  0.4278730000000 1.0
C      1  0.5002500000000  0.3921430000000  0.5039040000000 1.0
C      1  0.5008110000000  0.6082960000000  0.4938560000000 1.0
C      1  0.6148590000000  0.4867690000000  0.4829910000000 1.0
C      1  0.3883590000000  0.5119560000000  0.5147060000000 1.0
C      1  0.4160200000000  0.5222760000000  0.5666950000000 1.0
C      1  0.5818320000000  0.4822330000000  0.4292590000000 1.0
C      1  0.4357190000000  0.5246220000000  0.4873820000000 1.0
C      1  0.5682880000000  0.4710000000000  0.5082620000000 1.0
C      1  0.5045950000000  0.5668330000000  0.4091180000000 1.0
C      1  0.4995580000000  0.4305440000000  0.5923640000000 1.0
C      1  0.5568960000000  0.4469840000000  0.5367520000000 1.0
C      1  0.4413460000000  0.5565810000000  0.4485520000000 1.0
C      1  0.5779730000000  0.4557910000000  0.5564250000000 1.0
C      1  0.4165590000000  0.5447530000000  0.4368470000000 1.0
C      1  0.6128570000000  0.5085090000000  0.4623020000000 1.0
C      1  0.3890800000000  0.4922390000000  0.5372300000000 1.0
C      1  0.4660370000000  0.5964180000000  0.5452060000000 1.0
C      1  0.5311280000000  0.4060620000000  0.4562700000000 1.0
C      1  0.5039750000000  0.5765740000000  0.5683030000000 1.0
C      1  0.4923780000000  0.4308080000000  0.4350090000000 1.0
C      1  0.5878850000000  0.5434640000000  0.5358760000000 1.0
C      1  0.4018580000000  0.4549610000000  0.4566770000000 1.0
C      1  0.5766240000000  0.4102160000000  0.4810410000000 1.0
C      1  0.4300870000000  0.5890320000000  0.5086350000000 1.0
C      1  0.4000850000000  0.5428840000000  0.5570040000000 1.0
C      1  0.5989680000000  0.4611270000000  0.4342660000000 1.0
C      1  0.4487530000000  0.4814550000000  0.4056820000000 1.0
C      1  0.5471200000000  0.5213770000000  0.5924140000000 1.0
C      1  0.4970620000000  0.4932000000000  0.4911370000000 1.0
END
