TITL C-3578199-7832-768 -5.50798251375553e-06 125000 -1088.26383299106 0 0 172 (C1) n - 1
REM
REM in /home/bkarasulu/work/CARBON/AIRSS/Generating-Clusters/EDIP-Nigel-Params/with-SteepDescent/Higher-Symm/SD-CG/HFTN-CG
REM
REM
REM
REM
REM
REM ./C.cell (12c818d87b63d06a65506943cc24bca4)
REM
REM compiler GCC version 9.2.1 20190827 (Red Hat 9.2.1-1)
REM options -cpp -mtune=generic -march=x86-64 -g -O0 -fpre-include=/usr/include/finclude/math-vector-fortran.h
REM seed 426850080 -478171210 402154947 803498375 -1351856909 -1745053589 -1103556469 -1198159681 -269205997 2112180114 -1876851322 -1115150168 1609757756 -82690357 -963493036 -2144353391 -1177294575 -1230625172 -610800275 -699142387 1218051447 1938791077 -50459499 -477009515 -636990679 1059354088 823011331 -975295728 1946141757 -2022557607 1932593136 -1247947040 -2118348252
REM
CELL 1.54180   50.00000   50.00000   50.00000   90.00000   90.00000   90.00000
LATT -1
SFAC C  
C      1  0.4277490000000  0.5806860000000  0.5404990000000 1.0
C      1  0.4289690000000  0.4916590000000  0.4075380000000 1.0
C      1  0.4284000000000  0.4253680000000  0.5554120000000 1.0
C      1  0.5140390000000  0.5328010000000  0.4569740000000 1.0
C      1  0.5147640000000  0.4467790000000  0.4947390000000 1.0
C      1  0.5145060000000  0.5239250000000  0.5464530000000 1.0
C      1  0.4368560000000  0.4540500000000  0.5316980000000 1.0
C      1  0.4383340000000  0.5356890000000  0.5246920000000 1.0
C      1  0.4372470000000  0.4993060000000  0.4452020000000 1.0
C      1  0.4211010000000  0.5454040000000  0.4967970000000 1.0
C      1  0.4203840000000  0.4761620000000  0.4583770000000 1.0
C      1  0.4199820000000  0.4794220000000  0.5435910000000 1.0
C      1  0.5309130000000  0.5179940000000  0.5219480000000 1.0
C      1  0.5289470000000  0.5094950000000  0.4701150000000 1.0
C      1  0.5298700000000  0.4697140000000  0.5066460000000 1.0
C      1  0.5539240000000  0.5312290000000  0.5739520000000 1.0
C      1  0.5540030000000  0.5497510000000  0.4355120000000 1.0
C      1  0.5546850000000  0.4204310000000  0.4902460000000 1.0
C      1  0.5684900000000  0.4620710000000  0.5903540000000 1.0
C      1  0.5657090000000  0.5974180000000  0.4895840000000 1.0
C      1  0.5683000000000  0.4424800000000  0.4225270000000 1.0
C      1  0.5121970000000  0.4433330000000  0.5916530000000 1.0
C      1  0.5071910000000  0.6003000000000  0.5026980000000 1.0
C      1  0.5083090000000  0.4523480000000  0.4108910000000 1.0
C      1  0.4930520000000  0.5892210000000  0.4305750000000 1.0
C      1  0.4934040000000  0.3986060000000  0.4588200000000 1.0
C      1  0.4940190000000  0.5136290000000  0.6104270000000 1.0
C      1  0.4364570000000  0.5420360000000  0.5718340000000 1.0
C      1  0.4355780000000  0.5439760000000  0.4239830000000 1.0
C      1  0.4366050000000  0.4171500000000  0.5014710000000 1.0
C      1  0.5449450000000  0.5150240000000  0.4038820000000 1.0
C      1  0.5459230000000  0.4093290000000  0.5361710000000 1.0
C      1  0.5446890000000  0.5762450000000  0.5622150000000 1.0
C      1  0.4334040000000  0.4649850000000  0.4832030000000 1.0
C      1  0.4370490000000  0.5051750000000  0.5387590000000 1.0
C      1  0.4320490000000  0.5324860000000  0.4718740000000 1.0
C      1  0.5639070000000  0.5056420000000  0.5610390000000 1.0
C      1  0.5629780000000  0.5511930000000  0.4640470000000 1.0
C      1  0.5636660000000  0.4446630000000  0.4748710000000 1.0
C      1  0.5906200000000  0.5150340000000  0.5237310000000 1.0
C      1  0.5896340000000  0.5136600000000  0.4755080000000 1.0
C      1  0.5905860000000  0.4726000000000  0.5017330000000 1.0
C      1  0.4556010000000  0.5642700000000  0.5772560000000 1.0
C      1  0.4557600000000  0.5340630000000  0.4040180000000 1.0
C      1  0.4559310000000  0.4032140000000  0.5196960000000 1.0
C      1  0.4331680000000  0.5813680000000  0.4630000000000 1.0
C      1  0.4338120000000  0.4281260000000  0.4493400000000 1.0
C      1  0.4352790000000  0.4937760000000  0.5892710000000 1.0
C      1  0.4746020000000  0.5092500000000  0.5712110000000 1.0
C      1  0.4720990000000  0.5587600000000  0.4541790000000 1.0
C      1  0.4729750000000  0.4348980000000  0.4725690000000 1.0
C      1  0.5997070000000  0.5561910000000  0.4960020000000 1.0
C      1  0.6004680000000  0.4692410000000  0.4545800000000 1.0
C      1  0.6016030000000  0.4766220000000  0.5506020000000 1.0
C      1  0.5304050000000  0.4212570000000  0.4419040000000 1.0
C      1  0.5274080000000  0.4877790000000  0.5925510000000 1.0
C      1  0.5294610000000  0.5914310000000  0.4594360000000 1.0
C      1  0.6004980000000  0.5273800000000  0.4987070000000 1.0
C      1  0.6005290000000  0.4861760000000  0.4779480000000 1.0
C      1  0.6021070000000  0.4883130000000  0.5240780000000 1.0
C      1  0.4858690000000  0.4505920000000  0.4959380000000 1.0
C      1  0.4857970000000  0.5201750000000  0.5447800000000 1.0
C      1  0.4849810000000  0.5309410000000  0.4564480000000 1.0
C      1  0.4722370000000  0.5033860000000  0.4439930000000 1.0
C      1  0.4730230000000  0.4502170000000  0.5270020000000 1.0
C      1  0.4699900000000  0.5417400000000  0.5269760000000 1.0
C      1  0.4664510000000  0.4492510000000  0.5726680000000 1.0
C      1  0.4662420000000  0.5847410000000  0.5092380000000 1.0
C      1  0.4665350000000  0.4638820000000  0.4198620000000 1.0
C      1  0.4827450000000  0.5468020000000  0.4040170000000 1.0
C      1  0.4828250000000  0.3964080000000  0.5088630000000 1.0
C      1  0.4828960000000  0.5574170000000  0.5874890000000 1.0
C      1  0.4749250000000  0.4294470000000  0.5505800000000 1.0
C      1  0.4740700000000  0.5720830000000  0.5353250000000 1.0
C      1  0.4750660000000  0.4935810000000  0.4141330000000 1.0
C      1  0.4538210000000  0.5148520000000  0.4827040000000 1.0
C      1  0.4545230000000  0.4872080000000  0.4934260000000 1.0
C      1  0.4571240000000  0.4911650000000  0.5222040000000 1.0
C      1  0.5349830000000  0.4582600000000  0.5601410000000 1.0
C      1  0.5309680000000  0.5697890000000  0.5006300000000 1.0
C      1  0.5327680000000  0.4688600000000  0.4356610000000 1.0
C      1  0.5483270000000  0.5774310000000  0.4776770000000 1.0
C      1  0.5492720000000  0.4444180000000  0.4445120000000 1.0
C      1  0.5499060000000  0.4792650000000  0.5757840000000 1.0
C      1  0.4229560000000  0.5501850000000  0.5463570000000 1.0
C      1  0.4186190000000  0.5210040000000  0.4312050000000 1.0
C      1  0.4187940000000  0.4333920000000  0.5178200000000 1.0
C      1  0.4527850000000  0.4096760000000  0.5481230000000 1.0
C      1  0.4539360000000  0.5827700000000  0.5547200000000 1.0
C      1  0.4533320000000  0.5055000000000  0.3981390000000 1.0
C      1  0.4777880000000  0.4553160000000  0.4473500000000 1.0
C      1  0.4828410000000  0.4756430000000  0.5706750000000 1.0
C      1  0.4791730000000  0.5710680000000  0.4847930000000 1.0
C      1  0.4760530000000  0.5330730000000  0.6012320000000 1.0
C      1  0.4755030000000  0.5705070000000  0.4189640000000 1.0
C      1  0.4760970000000  0.3984420000000  0.4808530000000 1.0
C      1  0.5673130000000  0.5887340000000  0.5164180000000 1.0
C      1  0.5709080000000  0.4693440000000  0.4143220000000 1.0
C      1  0.5725330000000  0.4411830000000  0.5711670000000 1.0
C      1  0.4555670000000  0.4850760000000  0.6073280000000 1.0
C      1  0.4548150000000  0.6002200000000  0.4621650000000 1.0
C      1  0.4557350000000  0.4191400000000  0.4331970000000 1.0
C      1  0.5866260000000  0.4509320000000  0.5479480000000 1.0
C      1  0.5847670000000  0.5663300000000  0.5199260000000 1.0
C      1  0.5854120000000  0.4844440000000  0.4338040000000 1.0
C      1  0.5450940000000  0.5904960000000  0.5365070000000 1.0
C      1  0.5465170000000  0.4850780000000  0.4028360000000 1.0
C      1  0.5484070000000  0.4219710000000  0.5633440000000 1.0
C      1  0.4364410000000  0.4637890000000  0.4156940000000 1.0
C      1  0.4367090000000  0.4470000000000  0.5751300000000 1.0
C      1  0.4361190000000  0.5891860000000  0.5119110000000 1.0
C      1  0.3909230000000  0.5197810000000  0.5250160000000 1.0
C      1  0.3909110000000  0.5163070000000  0.4740790000000 1.0
C      1  0.3941770000000  0.4752400000000  0.5007120000000 1.0
C      1  0.5017780000000  0.4997830000000  0.4023030000000 1.0
C      1  0.5022100000000  0.4171410000000  0.5506810000000 1.0
C      1  0.5010870000000  0.5778760000000  0.5463260000000 1.0
C      1  0.5032400000000  0.4709740000000  0.5938630000000 1.0
C      1  0.5066750000000  0.6037100000000  0.4733890000000 1.0
C      1  0.5082060000000  0.4258300000000  0.4231880000000 1.0
C      1  0.5884220000000  0.5140770000000  0.4308110000000 1.0
C      1  0.5894760000000  0.4335170000000  0.5236420000000 1.0
C      1  0.5879450000000  0.5536580000000  0.5467790000000 1.0
C      1  0.5650850000000  0.5284310000000  0.4198330000000 1.0
C      1  0.5657120000000  0.4174030000000  0.5165750000000 1.0
C      1  0.5657000000000  0.5563700000000  0.5662480000000 1.0
C      1  0.4843510000000  0.4964930000000  0.5285240000000 1.0
C      1  0.4811760000000  0.5233240000000  0.4943020000000 1.0
C      1  0.4835390000000  0.4796260000000  0.4877070000000 1.0
C      1  0.5929950000000  0.5568310000000  0.4650890000000 1.0
C      1  0.5937250000000  0.4422820000000  0.4693440000000 1.0
C      1  0.5940040000000  0.5027660000000  0.5663680000000 1.0
C      1  0.4886310000000  0.4808770000000  0.4582180000000 1.0
C      1  0.4924690000000  0.4719460000000  0.5412580000000 1.0
C      1  0.4980620000000  0.5491600000000  0.4948270000000 1.0
C      1  0.3959940000000  0.4874040000000  0.4742080000000 1.0
C      1  0.3971470000000  0.4903220000000  0.5259210000000 1.0
C      1  0.3936440000000  0.5329780000000  0.4987450000000 1.0
C      1  0.5180980000000  0.4759630000000  0.3963720000000 1.0
C      1  0.5196190000000  0.4222570000000  0.5738950000000 1.0
C      1  0.5168480000000  0.5965240000000  0.5305050000000 1.0
C      1  0.4838240000000  0.4131460000000  0.4353550000000 1.0
C      1  0.4833320000000  0.4856840000000  0.6139920000000 1.0
C      1  0.4827200000000  0.6030710000000  0.4547730000000 1.0
C      1  0.4204990000000  0.4526370000000  0.4384040000000 1.0
C      1  0.4213500000000  0.4728470000000  0.5739080000000 1.0
C      1  0.4213090000000  0.5754010000000  0.4902140000000 1.0
C      1  0.5116520000000  0.5656010000000  0.5729760000000 1.0
C      1  0.5158680000000  0.5276270000000  0.4049750000000 1.0
C      1  0.5162230000000  0.4052800000000  0.5253650000000 1.0
C      1  0.5247040000000  0.5477240000000  0.4329340000000 1.0
C      1  0.5253480000000  0.4189050000000  0.4933620000000 1.0
C      1  0.5244710000000  0.5343230000000  0.5725290000000 1.0
C      1  0.5591400000000  0.4682020000000  0.4953410000000 1.0
C      1  0.5596200000000  0.5096850000000  0.5303730000000 1.0
C      1  0.5582190000000  0.5216370000000  0.4753460000000 1.0
C      1  0.3965040000000  0.5383530000000  0.5457330000000 1.0
C      1  0.3992970000000  0.5299260000000  0.4506940000000 1.0
C      1  0.4024190000000  0.4482540000000  0.4996470000000 1.0
C      1  0.4433690000000  0.4354730000000  0.4771800000000 1.0
C      1  0.4452370000000  0.5128220000000  0.5685570000000 1.0
C      1  0.4424640000000  0.5546950000000  0.4524270000000 1.0
C      1  0.6038010000000  0.4454110000000  0.4994930000000 1.0
C      1  0.6030810000000  0.5274310000000  0.5484120000000 1.0
C      1  0.6028360000000  0.5290260000000  0.4530360000000 1.0
C      1  0.5195210000000  0.5779330000000  0.4353680000000 1.0
C      1  0.5202060000000  0.4069650000000  0.4656310000000 1.0
C      1  0.5185050000000  0.5147840000000  0.5950850000000 1.0
C      1  0.5184810000000  0.4847160000000  0.4555910000000 1.0
C      1  0.5217250000000  0.4681680000000  0.5362580000000 1.0
C      1  0.5282920000000  0.5405010000000  0.5021330000000 1.0
C      1  0.5163320000000  0.4979230000000  0.4987790000000 1.0
END
