TITL C-3578209-2550-384 5.34251452205306e-07 125000 -1095.89556828629 0 0 177 (C1) n - 1
REM
REM in /home/bkarasulu/work/CARBON/AIRSS/Generating-Clusters/EDIP-Nigel-Params/with-SteepDescent/Higher-Symm/SD-CG/HFTN-CG
REM
REM
REM
REM
REM
REM ./C.cell (12c818d87b63d06a65506943cc24bca4)
REM
REM compiler GCC version 9.2.1 20190827 (Red Hat 9.2.1-1)
REM options -cpp -mtune=generic -march=x86-64 -g -O0 -fpre-include=/usr/include/finclude/math-vector-fortran.h
REM seed -1548922874 474798558 -763287508 845118068 1745996780 1032921850 32401157 2095535511 152688299 971038166 471473089 1094741591 -1476956489 -1959163461 -1325535119 -1200499646 -1244611094 156248136 -1872701008 -1528151337 -502371327 1423355242 -1255233544 734466548 903351923 -1580442951 1008543169 -945214443 2105300651 -122695626 -856616454 90771707 1169923105
REM
CELL 1.54180   50.00000   50.00000   50.00000   90.00000   90.00000   90.00000
LATT -1
SFAC C  
C      1  0.5680890000000  0.5805730000000  0.5493840000000 1.0
C      1  0.5558320000000  0.5707960000000  0.5971190000000 1.0
C      1  0.5778160000000  0.5344520000000  0.5677280000000 1.0
C      1  0.4358670000000  0.5853590000000  0.4500910000000 1.0
C      1  0.5657020000000  0.4287400000000  0.4544120000000 1.0
C      1  0.4326510000000  0.4172710000000  0.5505910000000 1.0
C      1  0.4419910000000  0.5558820000000  0.4127310000000 1.0
C      1  0.5571860000000  0.4294360000000  0.4049990000000 1.0
C      1  0.4475120000000  0.4372510000000  0.5932770000000 1.0
C      1  0.3990620000000  0.5497430000000  0.4323330000000 1.0
C      1  0.5905350000000  0.4602980000000  0.4247400000000 1.0
C      1  0.4211950000000  0.4657170000000  0.5580610000000 1.0
C      1  0.5615460000000  0.4051920000000  0.5440000000000 1.0
C      1  0.5449510000000  0.4314020000000  0.5889830000000 1.0
C      1  0.5843970000000  0.4419700000000  0.5609940000000 1.0
C      1  0.4246070000000  0.4054890000000  0.4458840000000 1.0
C      1  0.5669500000000  0.5981330000000  0.4517210000000 1.0
C      1  0.4369400000000  0.6038640000000  0.5452670000000 1.0
C      1  0.4523890000000  0.4274140000000  0.4123910000000 1.0
C      1  0.5454010000000  0.5617430000000  0.4204350000000 1.0
C      1  0.4499230000000  0.5695920000000  0.5826020000000 1.0
C      1  0.4216990000000  0.4561880000000  0.4395210000000 1.0
C      1  0.5935470000000  0.5600250000000  0.4311400000000 1.0
C      1  0.4086130000000  0.5644710000000  0.5577390000000 1.0
C      1  0.4072280000000  0.5269190000000  0.4173980000000 1.0
C      1  0.4244480000000  0.3967230000000  0.5047680000000 1.0
C      1  0.5276320000000  0.4234590000000  0.4036080000000 1.0
C      1  0.5903470000000  0.4901740000000  0.5754960000000 1.0
C      1  0.4057730000000  0.5134610000000  0.5660740000000 1.0
C      1  0.5968090000000  0.5098470000000  0.4224710000000 1.0
C      1  0.5777840000000  0.4084840000000  0.4976030000000 1.0
C      1  0.4363270000000  0.5943000000000  0.4859120000000 1.0
C      1  0.5664960000000  0.5971720000000  0.5121020000000 1.0
C      1  0.4771320000000  0.4316240000000  0.5987100000000 1.0
C      1  0.5252330000000  0.5742560000000  0.6025480000000 1.0
C      1  0.4674990000000  0.5653140000000  0.4216770000000 1.0
C      1  0.4018860000000  0.5004300000000  0.4274750000000 1.0
C      1  0.4359680000000  0.5975370000000  0.5154380000000 1.0
C      1  0.4938200000000  0.5583150000000  0.4107140000000 1.0
C      1  0.5766240000000  0.4658170000000  0.5751050000000 1.0
C      1  0.4133530000000  0.5403690000000  0.5731040000000 1.0
C      1  0.5856550000000  0.5357900000000  0.4190320000000 1.0
C      1  0.5662640000000  0.5987430000000  0.4826980000000 1.0
C      1  0.4240210000000  0.4009240000000  0.4761920000000 1.0
C      1  0.5826850000000  0.4110080000000  0.5249390000000 1.0
C      1  0.4960400000000  0.5744560000000  0.6023410000000 1.0
C      1  0.5068640000000  0.4300980000000  0.5990100000000 1.0
C      1  0.4994710000000  0.4229590000000  0.3979810000000 1.0
C      1  0.5577230000000  0.4880400000000  0.4041220000000 1.0
C      1  0.4193860000000  0.5503290000000  0.4928780000000 1.0
C      1  0.4838250000000  0.4157500000000  0.5518910000000 1.0
C      1  0.4434860000000  0.4938260000000  0.5940260000000 1.0
C      1  0.5566760000000  0.5095470000000  0.6065200000000 1.0
C      1  0.4453090000000  0.5096520000000  0.3907410000000 1.0
C      1  0.5911650000000  0.5588850000000  0.5135890000000 1.0
C      1  0.4144270000000  0.4414520000000  0.5168480000000 1.0
C      1  0.5985940000000  0.4503900000000  0.4852300000000 1.0
C      1  0.5157110000000  0.4162350000000  0.4475660000000 1.0
C      1  0.4847860000000  0.5992500000000  0.4506840000000 1.0
C      1  0.5177080000000  0.5853140000000  0.5551820000000 1.0
C      1  0.5485370000000  0.5160390000000  0.3959690000000 1.0
C      1  0.4066170000000  0.4427050000000  0.4896920000000 1.0
C      1  0.4882610000000  0.5901590000000  0.5575150000000 1.0
C      1  0.4507330000000  0.5230200000000  0.6017510000000 1.0
C      1  0.5438690000000  0.4834470000000  0.6103630000000 1.0
C      1  0.4393010000000  0.4808570000000  0.3992900000000 1.0
C      1  0.6041390000000  0.4542940000000  0.5140420000000 1.0
C      1  0.4198570000000  0.5519580000000  0.5229270000000 1.0
C      1  0.5886710000000  0.5559070000000  0.4848070000000 1.0
C      1  0.5117100000000  0.5876940000000  0.4478950000000 1.0
C      1  0.4872070000000  0.4155730000000  0.4430600000000 1.0
C      1  0.5121060000000  0.4098400000000  0.5548370000000 1.0
C      1  0.5970310000000  0.5316890000000  0.5205250000000 1.0
C      1  0.5177770000000  0.5798950000000  0.5262030000000 1.0
C      1  0.5199830000000  0.5197420000000  0.6002390000000 1.0
C      1  0.4079760000000  0.5245290000000  0.4862720000000 1.0
C      1  0.5924540000000  0.4782780000000  0.4785740000000 1.0
C      1  0.3977610000000  0.4828290000000  0.5129810000000 1.0
C      1  0.4889080000000  0.5850580000000  0.4859290000000 1.0
C      1  0.5164100000000  0.4175720000000  0.4761040000000 1.0
C      1  0.4821590000000  0.4174440000000  0.5231290000000 1.0
C      1  0.4751010000000  0.5058450000000  0.3930110000000 1.0
C      1  0.5275430000000  0.4777840000000  0.4020580000000 1.0
C      1  0.4734080000000  0.4872470000000  0.5890770000000 1.0
C      1  0.5981490000000  0.4826300000000  0.5156360000000 1.0
C      1  0.5190120000000  0.4101730000000  0.5260520000000 1.0
C      1  0.5157320000000  0.4896050000000  0.6025720000000 1.0
C      1  0.3993010000000  0.4704290000000  0.4855040000000 1.0
C      1  0.5891820000000  0.5272620000000  0.4829320000000 1.0
C      1  0.4033220000000  0.5115390000000  0.5121300000000 1.0
C      1  0.4786100000000  0.4168600000000  0.4711820000000 1.0
C      1  0.5167960000000  0.5816960000000  0.4762270000000 1.0
C      1  0.4869220000000  0.5861480000000  0.5243790000000 1.0
C      1  0.4720340000000  0.4754260000000  0.3989310000000 1.0
C      1  0.5192060000000  0.5083030000000  0.3973310000000 1.0
C      1  0.4812450000000  0.5164720000000  0.5947440000000 1.0
C      1  0.4762330000000  0.5027920000000  0.4498580000000 1.0
C      1  0.4457670000000  0.4832770000000  0.5169860000000 1.0
C      1  0.5382920000000  0.4588100000000  0.4886690000000 1.0
C      1  0.5290690000000  0.5219500000000  0.5523820000000 1.0
C      1  0.4937340000000  0.4856300000000  0.5415260000000 1.0
C      1  0.5206360000000  0.4833890000000  0.4486790000000 1.0
C      1  0.5411970000000  0.4811270000000  0.4690430000000 1.0
C      1  0.4660240000000  0.5107790000000  0.4769460000000 1.0
C      1  0.5418260000000  0.5096810000000  0.5114370000000 1.0
C      1  0.5034780000000  0.4674880000000  0.5191810000000 1.0
C      1  0.5254760000000  0.5302460000000  0.5243680000000 1.0
C      1  0.4871990000000  0.5304630000000  0.4886980000000 1.0
C      1  0.4733430000000  0.4729300000000  0.4485860000000 1.0
C      1  0.4501670000000  0.5097160000000  0.5297490000000 1.0
C      1  0.5151050000000  0.5279380000000  0.4718790000000 1.0
C      1  0.5296070000000  0.4929120000000  0.5532500000000 1.0
C      1  0.4796750000000  0.5145250000000  0.5392840000000 1.0
C      1  0.5065740000000  0.5094410000000  0.4481860000000 1.0
C      1  0.5400400000000  0.5104230000000  0.4822380000000 1.0
C      1  0.4489650000000  0.4854610000000  0.4863950000000 1.0
C      1  0.5481910000000  0.4861840000000  0.5294900000000 1.0
C      1  0.4960770000000  0.5266480000000  0.5173720000000 1.0
C      1  0.5328610000000  0.4612490000000  0.5176110000000 1.0
C      1  0.4687170000000  0.4639990000000  0.4777290000000 1.0
C      1  0.4699890000000  0.5624290000000  0.5189650000000 1.0
C      1  0.5165520000000  0.4743730000000  0.5768550000000 1.0
C      1  0.5671470000000  0.5172190000000  0.4682920000000 1.0
C      1  0.5347750000000  0.5595470000000  0.4846310000000 1.0
C      1  0.4587680000000  0.4352420000000  0.4831020000000 1.0
C      1  0.5422970000000  0.4258640000000  0.5179780000000 1.0
C      1  0.4851200000000  0.4612910000000  0.4233650000000 1.0
C      1  0.5086620000000  0.5239600000000  0.4209250000000 1.0
C      1  0.4851310000000  0.5332620000000  0.5677410000000 1.0
C      1  0.4219340000000  0.5227470000000  0.5334210000000 1.0
C      1  0.5798840000000  0.4900990000000  0.5384730000000 1.0
C      1  0.4215770000000  0.4812590000000  0.4684380000000 1.0
C      1  0.4589110000000  0.4289940000000  0.5119670000000 1.0
C      1  0.5153230000000  0.5350850000000  0.5732030000000 1.0
C      1  0.5715410000000  0.4884770000000  0.4592740000000 1.0
C      1  0.5417400000000  0.4296640000000  0.4847450000000 1.0
C      1  0.4719510000000  0.5593070000000  0.4898030000000 1.0
C      1  0.5362990000000  0.5590350000000  0.5154590000000 1.0
C      1  0.4783290000000  0.5231210000000  0.4168930000000 1.0
C      1  0.5159810000000  0.4647130000000  0.4264960000000 1.0
C      1  0.4877690000000  0.4706210000000  0.5683510000000 1.0
C      1  0.4199600000000  0.4686050000000  0.5276860000000 1.0
C      1  0.5850790000000  0.5199010000000  0.5429400000000 1.0
C      1  0.4127750000000  0.5087410000000  0.4625560000000 1.0
C      1  0.5888990000000  0.4380390000000  0.5324650000000 1.0
C      1  0.5171100000000  0.5662800000000  0.4279230000000 1.0
C      1  0.4398450000000  0.5425290000000  0.5833190000000 1.0
C      1  0.4293490000000  0.4308970000000  0.4737770000000 1.0
C      1  0.5633050000000  0.5686940000000  0.4759490000000 1.0
C      1  0.4430910000000  0.5702780000000  0.5279300000000 1.0
C      1  0.4798520000000  0.5700020000000  0.5782290000000 1.0
C      1  0.5197670000000  0.4304920000000  0.5738810000000 1.0
C      1  0.4802940000000  0.4311850000000  0.4185670000000 1.0
C      1  0.5574770000000  0.5359700000000  0.4145740000000 1.0
C      1  0.4230970000000  0.4804160000000  0.4241680000000 1.0
C      1  0.5550800000000  0.4604160000000  0.5933930000000 1.0
C      1  0.5657920000000  0.5714850000000  0.5231350000000 1.0
C      1  0.5299510000000  0.4366860000000  0.4310910000000 1.0
C      1  0.4241000000000  0.4913500000000  0.5719500000000 1.0
C      1  0.4416220000000  0.5652740000000  0.4786280000000 1.0
C      1  0.5844160000000  0.4258450000000  0.4764360000000 1.0
C      1  0.4327690000000  0.4194510000000  0.5216830000000 1.0
C      1  0.4769830000000  0.4402790000000  0.5688760000000 1.0
C      1  0.5265120000000  0.5637360000000  0.5736350000000 1.0
C      1  0.4626160000000  0.5886220000000  0.4370180000000 1.0
C      1  0.5790600000000  0.4868110000000  0.4272930000000 1.0
C      1  0.4349640000000  0.5284160000000  0.4104550000000 1.0
C      1  0.5782420000000  0.5133810000000  0.5877010000000 1.0
C      1  0.4211910000000  0.5673250000000  0.4296530000000 1.0
C      1  0.5735730000000  0.4377930000000  0.4277880000000 1.0
C      1  0.4336370000000  0.4402380000000  0.5674970000000 1.0
C      1  0.5662760000000  0.4202580000000  0.5688230000000 1.0
C      1  0.5688480000000  0.5745010000000  0.4336080000000 1.0
C      1  0.4289640000000  0.5843320000000  0.5663180000000 1.0
C      1  0.5702050000000  0.5630000000000  0.5722300000000 1.0
C      1  0.4306400000000  0.4296510000000  0.4299980000000 1.0
C      1  0.4913180000000  0.4681350000000  0.4944100000000 1.0
END
