TITL C-3577077-324-138 -5.63969931363172e-06 125000 -252.37167987234 0 0 42 (C1) n - 1
REM
REM in /home/bkarasulu/work/CARBON/AIRSS/Generating-Clusters/EDIP-Nigel-Params/with-SteepDescent/Higher-Symm/SD-CG/HFTN-CG
REM
REM
REM
REM
REM
REM ./C.cell (12c818d87b63d06a65506943cc24bca4)
REM
REM compiler GCC version 9.2.1 20190827 (Red Hat 9.2.1-1)
REM options -cpp -mtune=generic -march=x86-64 -g -O0 -fpre-include=/usr/include/finclude/math-vector-fortran.h
REM seed -1890778472 -1520198505 -1069200933 -1167846463 -1709144932 295365603 -557022854 1274859480 -1175894028 1294394210 524563566 233296427 1503070227 729109202 1453477991 -100864481 -127900038 64395017 -1107387408 -1532279004 -1608242542 982603212 2043458724 -344298667 1054992647 490064490 -165933705 -716925460 304124525 713220186 1486250637 135770013 -965636390
REM
CELL 1.54180   50.00000   50.00000   50.00000   90.00000   90.00000   90.00000
LATT -1
SFAC C  
C      1  0.5412620000000  0.4610350000000  0.4626130000000 1.0
C      1  0.4890880000000  0.4615050000000  0.4452220000000 1.0
C      1  0.4479670000000  0.4652050000000  0.4819720000000 1.0
C      1  0.4583720000000  0.4621860000000  0.5363820000000 1.0
C      1  0.5106180000000  0.4648610000000  0.5532090000000 1.0
C      1  0.5521510000000  0.4628790000000  0.5162960000000 1.0
C      1  0.5437900000000  0.5368730000000  0.4635280000000 1.0
C      1  0.4902590000000  0.5324990000000  0.4462020000000 1.0
C      1  0.4480750000000  0.5363810000000  0.4819360000000 1.0
C      1  0.4589350000000  0.5334010000000  0.5357270000000 1.0
C      1  0.5112820000000  0.5360530000000  0.5541990000000 1.0
C      1  0.5524490000000  0.5338530000000  0.5175540000000 1.0
C      1  0.4735070000000  0.5431270000000  0.4904640000000 1.0
C      1  0.4789350000000  0.5429250000000  0.5185220000000 1.0
C      1  0.5059840000000  0.5432540000000  0.5280400000000 1.0
C      1  0.5276970000000  0.5439760000000  0.5093000000000 1.0
C      1  0.5227110000000  0.5440700000000  0.4809880000000 1.0
C      1  0.4954150000000  0.5420230000000  0.4720140000000 1.0
C      1  0.4728440000000  0.4553720000000  0.4903880000000 1.0
C      1  0.4782450000000  0.4551110000000  0.5185120000000 1.0
C      1  0.5054180000000  0.4554270000000  0.5273080000000 1.0
C      1  0.5267290000000  0.4559650000000  0.5081730000000 1.0
C      1  0.5215000000000  0.4520790000000  0.4802240000000 1.0
C      1  0.4942200000000  0.4542660000000  0.4713410000000 1.0
C      1  0.4337420000000  0.5137030000000  0.4774580000000 1.0
C      1  0.4572720000000  0.5106750000000  0.5519960000000 1.0
C      1  0.5136940000000  0.5130520000000  0.5685210000000 1.0
C      1  0.5667430000000  0.5109980000000  0.5104010000000 1.0
C      1  0.5379300000000  0.5102170000000  0.4567690000000 1.0
C      1  0.4763520000000  0.5099710000000  0.4371360000000 1.0
C      1  0.4333640000000  0.4880710000000  0.4889700000000 1.0
C      1  0.4473350000000  0.4851030000000  0.5460060000000 1.0
C      1  0.5238710000000  0.4874820000000  0.5629810000000 1.0
C      1  0.5655720000000  0.4857110000000  0.5223740000000 1.0
C      1  0.5521610000000  0.4854200000000  0.4554280000000 1.0
C      1  0.4867080000000  0.4845980000000  0.4311760000000 1.0
C      1  0.4905100000000  0.4982350000000  0.4690310000000 1.0
C      1  0.5309440000000  0.5000670000000  0.5077810000000 1.0
C      1  0.4776370000000  0.4990400000000  0.5231520000000 1.0
C      1  0.5088370000000  0.4992780000000  0.5308550000000 1.0
C      1  0.4685200000000  0.4992660000000  0.4923000000000 1.0
C      1  0.5213570000000  0.4957840000000  0.4775500000000 1.0
END
