TITL C-3578194-7807-731 -2.53796742269585e-07 125000 -451.746421402019 0 0 72 (C1) n - 1
REM
REM in /home/bkarasulu/work/CARBON/AIRSS/Generating-Clusters/EDIP-Nigel-Params/with-SteepDescent/Higher-Symm/SD-CG/HFTN-CG
REM
REM
REM
REM
REM
REM ./C.cell (12c818d87b63d06a65506943cc24bca4)
REM
REM compiler GCC version 9.2.1 20190827 (Red Hat 9.2.1-1)
REM options -cpp -mtune=generic -march=x86-64 -g -O0 -fpre-include=/usr/include/finclude/math-vector-fortran.h
REM seed 943950196 -1706365653 679648790 1681896922 -1754013049 -1248003559 2091423779 -762996959 -459653409 -1129268929 -160668275 1979103124 1346870725 -411324553 257109263 -301856871 -1318432623 -1148413069 832578206 -941795753 1741858915 1941328569 1341657063 1745851882 1890980685 -1949460098 -465159400 -1001678150 -1583204226 583886696 -1491845373 503633323 -1297456768
REM
CELL 1.54180   50.00000   50.00000   50.00000   90.00000   90.00000   90.00000
LATT -1
SFAC C  
C      1  0.4603920000000  0.5467470000000  0.4474670000000 1.0
C      1  0.4616540000000  0.5021900000000  0.4291280000000 1.0
C      1  0.4674290000000  0.4558110000000  0.4447080000000 1.0
C      1  0.4690680000000  0.4293610000000  0.4870700000000 1.0
C      1  0.4679520000000  0.4365030000000  0.5353500000000 1.0
C      1  0.4701140000000  0.4742240000000  0.5668180000000 1.0
C      1  0.4697620000000  0.5235290000000  0.5672240000000 1.0
C      1  0.4640090000000  0.5621130000000  0.5366750000000 1.0
C      1  0.4614920000000  0.5711400000000  0.4895080000000 1.0
C      1  0.5095280000000  0.5472180000000  0.4464510000000 1.0
C      1  0.5102780000000  0.5022420000000  0.4280630000000 1.0
C      1  0.5075330000000  0.4575350000000  0.4439230000000 1.0
C      1  0.5090020000000  0.4310160000000  0.4862000000000 1.0
C      1  0.5124150000000  0.4374010000000  0.5334700000000 1.0
C      1  0.5107390000000  0.4753450000000  0.5656530000000 1.0
C      1  0.5099030000000  0.5238550000000  0.5653870000000 1.0
C      1  0.5122640000000  0.5625090000000  0.5346320000000 1.0
C      1  0.5116880000000  0.5715500000000  0.4886370000000 1.0
C      1  0.5497160000000  0.5427730000000  0.5072470000000 1.0
C      1  0.5418900000000  0.5370580000000  0.4789240000000 1.0
C      1  0.5403610000000  0.5148040000000  0.4606820000000 1.0
C      1  0.5480120000000  0.4859280000000  0.4578150000000 1.0
C      1  0.5356640000000  0.4680430000000  0.4785990000000 1.0
C      1  0.5452610000000  0.4584440000000  0.5052850000000 1.0
C      1  0.5350340000000  0.4752600000000  0.5277010000000 1.0
C      1  0.5455190000000  0.4996880000000  0.5411370000000 1.0
C      1  0.5366210000000  0.5248020000000  0.5274640000000 1.0
C      1  0.5863840000000  0.5223190000000  0.5313830000000 1.0
C      1  0.5798430000000  0.5382390000000  0.5094000000000 1.0
C      1  0.5911660000000  0.5288810000000  0.4857130000000 1.0
C      1  0.5902580000000  0.5089230000000  0.4676450000000 1.0
C      1  0.5783750000000  0.4843450000000  0.4619780000000 1.0
C      1  0.5854010000000  0.4649070000000  0.4807490000000 1.0
C      1  0.5753710000000  0.4590520000000  0.5060920000000 1.0
C      1  0.5843960000000  0.4754210000000  0.5269180000000 1.0
C      1  0.5757320000000  0.4982500000000  0.5406080000000 1.0
C      1  0.4895880000000  0.4822170000000  0.5442740000000 1.0
C      1  0.4890200000000  0.5169340000000  0.5434640000000 1.0
C      1  0.4878680000000  0.5473970000000  0.5246970000000 1.0
C      1  0.4868130000000  0.5538070000000  0.4922020000000 1.0
C      1  0.4855490000000  0.5349330000000  0.4605100000000 1.0
C      1  0.4863310000000  0.5032420000000  0.4469510000000 1.0
C      1  0.4872030000000  0.4730000000000  0.4617930000000 1.0
C      1  0.4883130000000  0.4532390000000  0.4924800000000 1.0
C      1  0.4894030000000  0.4544150000000  0.5248560000000 1.0
C      1  0.4526620000000  0.4552800000000  0.5517730000000 1.0
C      1  0.4530240000000  0.4984960000000  0.5699740000000 1.0
C      1  0.4509780000000  0.5423780000000  0.5537890000000 1.0
C      1  0.4448210000000  0.5672250000000  0.5142860000000 1.0
C      1  0.4445840000000  0.5580900000000  0.4693200000000 1.0
C      1  0.4431960000000  0.5240560000000  0.4378170000000 1.0
C      1  0.4484620000000  0.4776550000000  0.4376400000000 1.0
C      1  0.4519160000000  0.4395320000000  0.4648890000000 1.0
C      1  0.4514190000000  0.4299650000000  0.5116520000000 1.0
C      1  0.5262810000000  0.5245910000000  0.4372820000000 1.0
C      1  0.5269460000000  0.4781240000000  0.4329290000000 1.0
C      1  0.5230690000000  0.4457840000000  0.4654210000000 1.0
C      1  0.5287630000000  0.4317970000000  0.5093600000000 1.0
C      1  0.5269170000000  0.4573190000000  0.5488300000000 1.0
C      1  0.5279890000000  0.4998620000000  0.5678570000000 1.0
C      1  0.5260730000000  0.5414560000000  0.5484450000000 1.0
C      1  0.5303260000000  0.5695410000000  0.5120840000000 1.0
C      1  0.5270560000000  0.5592350000000  0.4670670000000 1.0
C      1  0.4356180000000  0.5339150000000  0.4826850000000 1.0
C      1  0.4289080000000  0.5133700000000  0.4626250000000 1.0
C      1  0.4370520000000  0.4849920000000  0.4634560000000 1.0
C      1  0.4343870000000  0.4597070000000  0.4784690000000 1.0
C      1  0.4350500000000  0.4547210000000  0.5079480000000 1.0
C      1  0.4399470000000  0.4723050000000  0.5316830000000 1.0
C      1  0.4353340000000  0.4982460000000  0.5453540000000 1.0
C      1  0.4390740000000  0.5250070000000  0.5337500000000 1.0
C      1  0.4298320000000  0.5407420000000  0.5106860000000 1.0
END
