TITL C-3578195-8548-518 -2.5028691555142e-06 125000 -162.191643253588 0 0 28 (Ci) n - 1
REM
REM in /home/bkarasulu/work/CARBON/AIRSS/Generating-Clusters/EDIP-Nigel-Params/with-SteepDescent/Higher-Symm/SD-CG/HFTN-CG
REM
REM
REM
REM
REM
REM ./C.cell (12c818d87b63d06a65506943cc24bca4)
REM
REM compiler GCC version 9.2.1 20190827 (Red Hat 9.2.1-1)
REM options -cpp -mtune=generic -march=x86-64 -g -O0 -fpre-include=/usr/include/finclude/math-vector-fortran.h
REM seed 478858313 1205958786 -243200297 580923939 -1609768032 496271870 1816450739 -1662280107 1924019270 -16885134 -202865993 678458315 33225449 161732497 674259081 1657381598 1032851668 445080506 -857173964 -79905092 936179829 470617583 1685731746 -1475937036 -1756037207 1170968974 1673000312 1337832532 271720057 -984275184 1417893350 -2109077979 546935541
REM
CELL 1.54180   50.00000   50.00000   50.00000   90.00000   90.00000   90.00000
LATT -1
SFAC C  
C      1  0.4744010000000  0.5007930000000  0.4496710000000 1.0
C      1  0.5255990000000  0.4992070000000  0.5503290000000 1.0
C      1  0.4544680000000  0.4941940000000  0.4721990000000 1.0
C      1  0.5455320000000  0.5058060000000  0.5278010000000 1.0
C      1  0.5453800000000  0.5612950000000  0.4737990000000 1.0
C      1  0.4546200000000  0.4387050000000  0.5262010000000 1.0
C      1  0.5189100000000  0.5311270000000  0.4456460000000 1.0
C      1  0.4810900000000  0.4688730000000  0.5543540000000 1.0
C      1  0.4705870000000  0.4413830000000  0.5036720000000 1.0
C      1  0.5294130000000  0.5586170000000  0.4963280000000 1.0
C      1  0.4773330000000  0.4434710000000  0.5414540000000 1.0
C      1  0.5226670000000  0.5565290000000  0.4585460000000 1.0
C      1  0.5029100000000  0.4955770000000  0.5272310000000 1.0
C      1  0.4970900000000  0.5044230000000  0.4727690000000 1.0
C      1  0.5084710000000  0.4769220000000  0.5609710000000 1.0
C      1  0.4915290000000  0.5230780000000  0.4390290000000 1.0
C      1  0.4993270000000  0.4757390000000  0.4825600000000 1.0
C      1  0.5006730000000  0.5242610000000  0.5174400000000 1.0
C      1  0.5419930000000  0.4891590000000  0.5035440000000 1.0
C      1  0.4580070000000  0.5108410000000  0.4964560000000 1.0
C      1  0.4538220000000  0.5007250000000  0.5222320000000 1.0
C      1  0.5461780000000  0.4992750000000  0.4777680000000 1.0
C      1  0.4729980000000  0.4641160000000  0.4865610000000 1.0
C      1  0.5270020000000  0.5358840000000  0.5134390000000 1.0
C      1  0.5358880000000  0.5112620000000  0.4559120000000 1.0
C      1  0.4641120000000  0.4887380000000  0.5440880000000 1.0
C      1  0.4845570000000  0.5230660000000  0.4931720000000 1.0
C      1  0.5154430000000  0.4769340000000  0.5068280000000 1.0
END
