TITL C-3577078-809-428 -7.13471273965361e-07 125000 -720.778793746701 0 0 117 (C1) n - 1
REM
REM in /home/bkarasulu/work/CARBON/AIRSS/Generating-Clusters/EDIP-Nigel-Params/with-SteepDescent/Higher-Symm/SD-CG/HFTN-CG
REM
REM
REM
REM
REM
REM ./C.cell (12c818d87b63d06a65506943cc24bca4)
REM
REM compiler GCC version 9.2.1 20190827 (Red Hat 9.2.1-1)
REM options -cpp -mtune=generic -march=x86-64 -g -O0 -fpre-include=/usr/include/finclude/math-vector-fortran.h
REM seed 835080478 596325035 2067467881 -1361602783 1319713160 245117287 -1311689613 2024524454 -1907517778 -207044078 -940768820 -692932238 1476668768 1666957310 -359921605 989074594 -486994056 1918013451 1788155054 -1103148114 407141110 1921656422 -1505539406 -164815990 -789856444 1122924362 -534379892 -1181482359 -1421133654 86995616 -327570687 -926998236 1277428518
REM
CELL 1.54180   50.00000   50.00000   50.00000   90.00000   90.00000   90.00000
LATT -1
SFAC C  
C      1  0.4373590000000  0.4168200000000  0.5027680000000 1.0
C      1  0.4469740000000  0.4212550000000  0.5299640000000 1.0
C      1  0.5043390000000  0.4186960000000  0.5568650000000 1.0
C      1  0.5329870000000  0.4225230000000  0.5549670000000 1.0
C      1  0.5447970000000  0.4181250000000  0.5282140000000 1.0
C      1  0.5566020000000  0.4123530000000  0.4715620000000 1.0
C      1  0.5432250000000  0.4128930000000  0.4458630000000 1.0
C      1  0.4830160000000  0.4187230000000  0.4366240000000 1.0
C      1  0.4638530000000  0.4220740000000  0.4581240000000 1.0
C      1  0.4546580000000  0.5184830000000  0.5241240000000 1.0
C      1  0.4651330000000  0.5125260000000  0.5528570000000 1.0
C      1  0.4947670000000  0.5196330000000  0.5539870000000 1.0
C      1  0.5315290000000  0.5093110000000  0.5214120000000 1.0
C      1  0.5456840000000  0.5023180000000  0.4963190000000 1.0
C      1  0.5394370000000  0.5133820000000  0.4674690000000 1.0
C      1  0.5146770000000  0.5064440000000  0.4488260000000 1.0
C      1  0.4828720000000  0.5053120000000  0.4789010000000 1.0
C      1  0.4601500000000  0.5010800000000  0.4987810000000 1.0
C      1  0.5468040000000  0.5931460000000  0.4833920000000 1.0
C      1  0.5276260000000  0.5894330000000  0.4621120000000 1.0
C      1  0.4989690000000  0.5912220000000  0.4651290000000 1.0
C      1  0.4683360000000  0.5800040000000  0.4827840000000 1.0
C      1  0.4506400000000  0.5947200000000  0.5031010000000 1.0
C      1  0.4584750000000  0.5937040000000  0.5323600000000 1.0
C      1  0.4857220000000  0.5991190000000  0.5448040000000 1.0
C      1  0.5110770000000  0.5955410000000  0.5304930000000 1.0
C      1  0.5397960000000  0.5808690000000  0.5096430000000 1.0
C      1  0.5659840000000  0.5424890000000  0.4479270000000 1.0
C      1  0.5188310000000  0.5454090000000  0.4190590000000 1.0
C      1  0.4669610000000  0.5338160000000  0.4346370000000 1.0
C      1  0.4380350000000  0.5397420000000  0.4766800000000 1.0
C      1  0.4176590000000  0.5427960000000  0.5261270000000 1.0
C      1  0.4659600000000  0.5490810000000  0.5862520000000 1.0
C      1  0.5147310000000  0.5467450000000  0.5826920000000 1.0
C      1  0.5553970000000  0.5418140000000  0.5494990000000 1.0
C      1  0.5693590000000  0.5412830000000  0.5010250000000 1.0
C      1  0.4899420000000  0.5637470000000  0.5861740000000 1.0
C      1  0.5277110000000  0.5555950000000  0.5563170000000 1.0
C      1  0.5717010000000  0.5558910000000  0.5285580000000 1.0
C      1  0.5773660000000  0.5555890000000  0.4742230000000 1.0
C      1  0.5441890000000  0.5586740000000  0.4291430000000 1.0
C      1  0.4924650000000  0.5519850000000  0.4361070000000 1.0
C      1  0.4453360000000  0.5508270000000  0.4484150000000 1.0
C      1  0.4191530000000  0.5556500000000  0.4979550000000 1.0
C      1  0.4324760000000  0.5547600000000  0.5505950000000 1.0
C      1  0.4711480000000  0.5054890000000  0.4492360000000 1.0
C      1  0.4384040000000  0.5074720000000  0.4788130000000 1.0
C      1  0.4247030000000  0.5142390000000  0.5262650000000 1.0
C      1  0.4494250000000  0.5355860000000  0.5679990000000 1.0
C      1  0.5078360000000  0.5173120000000  0.5799580000000 1.0
C      1  0.5521110000000  0.5134500000000  0.5423090000000 1.0
C      1  0.5745080000000  0.5090050000000  0.5007850000000 1.0
C      1  0.5637880000000  0.5094390000000  0.4497600000000 1.0
C      1  0.5213540000000  0.5166490000000  0.4208860000000 1.0
C      1  0.5813630000000  0.4765710000000  0.5001540000000 1.0
C      1  0.5569080000000  0.4750760000000  0.4532290000000 1.0
C      1  0.5189180000000  0.4788550000000  0.4221410000000 1.0
C      1  0.4689150000000  0.4751900000000  0.4427380000000 1.0
C      1  0.4245430000000  0.4822200000000  0.4675590000000 1.0
C      1  0.4306460000000  0.4765860000000  0.5249940000000 1.0
C      1  0.4650490000000  0.4777190000000  0.5565970000000 1.0
C      1  0.5112930000000  0.4816440000000  0.5661420000000 1.0
C      1  0.5504740000000  0.4754260000000  0.5411900000000 1.0
C      1  0.4538990000000  0.3939830000000  0.4957080000000 1.0
C      1  0.4651260000000  0.3986480000000  0.5319710000000 1.0
C      1  0.4930920000000  0.4004560000000  0.5374690000000 1.0
C      1  0.5108490000000  0.3843120000000  0.5232150000000 1.0
C      1  0.5335530000000  0.3964510000000  0.5126520000000 1.0
C      1  0.5406810000000  0.3924590000000  0.4852150000000 1.0
C      1  0.5227370000000  0.3922810000000  0.4512250000000 1.0
C      1  0.4946430000000  0.3929810000000  0.4455600000000 1.0
C      1  0.4656840000000  0.3955080000000  0.4699260000000 1.0
C      1  0.4395620000000  0.4652700000000  0.4459530000000 1.0
C      1  0.4204230000000  0.4633060000000  0.4903340000000 1.0
C      1  0.4373230000000  0.4650070000000  0.5520270000000 1.0
C      1  0.4867820000000  0.4651130000000  0.5750480000000 1.0
C      1  0.5397840000000  0.4692490000000  0.5687490000000 1.0
C      1  0.5738750000000  0.4612710000000  0.5262970000000 1.0
C      1  0.5768800000000  0.4599910000000  0.4733640000000 1.0
C      1  0.5449900000000  0.4632470000000  0.4280670000000 1.0
C      1  0.4916060000000  0.4646400000000  0.4233610000000 1.0
C      1  0.5426430000000  0.4420650000000  0.5722370000000 1.0
C      1  0.5663190000000  0.4344250000000  0.5156220000000 1.0
C      1  0.5652000000000  0.4358800000000  0.4862270000000 1.0
C      1  0.5449560000000  0.4350100000000  0.4281720000000 1.0
C      1  0.5027680000000  0.4409240000000  0.4376440000000 1.0
C      1  0.4383100000000  0.4358780000000  0.4544050000000 1.0
C      1  0.4247500000000  0.4349150000000  0.4815060000000 1.0
C      1  0.4369930000000  0.4372610000000  0.5504500000000 1.0
C      1  0.4901300000000  0.4373600000000  0.5722000000000 1.0
C      1  0.5064910000000  0.4821870000000  0.5343320000000 1.0
C      1  0.5279570000000  0.4655460000000  0.5218890000000 1.0
C      1  0.5427800000000  0.4726370000000  0.4961850000000 1.0
C      1  0.5291330000000  0.4702090000000  0.4692520000000 1.0
C      1  0.5053210000000  0.4524190000000  0.4661440000000 1.0
C      1  0.4794810000000  0.4672320000000  0.4704330000000 1.0
C      1  0.4582150000000  0.4530850000000  0.4889180000000 1.0
C      1  0.4582470000000  0.4740350000000  0.5106970000000 1.0
C      1  0.4790710000000  0.4707140000000  0.5313840000000 1.0
C      1  0.4250150000000  0.5833600000000  0.4996030000000 1.0
C      1  0.4384850000000  0.5828570000000  0.5497480000000 1.0
C      1  0.4888960000000  0.5878720000000  0.5709040000000 1.0
C      1  0.5270240000000  0.5842150000000  0.5509820000000 1.0
C      1  0.5636910000000  0.5828740000000  0.5266070000000 1.0
C      1  0.5720100000000  0.5831820000000  0.4756940000000 1.0
C      1  0.5389000000000  0.5851870000000  0.4368780000000 1.0
C      1  0.4844060000000  0.5805380000000  0.4419930000000 1.0
C      1  0.4566180000000  0.5784770000000  0.4530570000000 1.0
C      1  0.4612700000000  0.5468420000000  0.5179550000000 1.0
C      1  0.4835010000000  0.5573640000000  0.5313530000000 1.0
C      1  0.5060120000000  0.5426570000000  0.5388220000000 1.0
C      1  0.5189930000000  0.5336700000000  0.5148730000000 1.0
C      1  0.5381160000000  0.5507220000000  0.4999940000000 1.0
C      1  0.5344180000000  0.5465590000000  0.4699980000000 1.0
C      1  0.5050910000000  0.5404380000000  0.4612430000000 1.0
C      1  0.4883650000000  0.5337050000000  0.4833650000000 1.0
C      1  0.4647900000000  0.5499950000000  0.4895130000000 1.0
END
