TITL C-3578195-8548-382 -1.83932481887154e-06 125000 -1110.23178110768 0 0 178 (C1) n - 1
REM
REM in /home/bkarasulu/work/CARBON/AIRSS/Generating-Clusters/EDIP-Nigel-Params/with-SteepDescent/Higher-Symm/SD-CG/HFTN-CG
REM
REM
REM
REM
REM
REM ./C.cell (12c818d87b63d06a65506943cc24bca4)
REM
REM compiler GCC version 9.2.1 20190827 (Red Hat 9.2.1-1)
REM options -cpp -mtune=generic -march=x86-64 -g -O0 -fpre-include=/usr/include/finclude/math-vector-fortran.h
REM seed -1619209236 840918931 1186291440 1210707907 -1857512569 -415421610 56020942 -1379267700 -2085969448 922116028 392543147 -699069780 -359775652 -304618841 702821741 1387089303 -323989937 1724755349 -1530673616 -547545343 1746850114 2077734091 2117995318 -338228286 1340776109 -1956108755 1561434023 872165037 -691717358 1415892648 -317249823 -1283665674 316833645
REM
CELL 1.54180   50.00000   50.00000   50.00000   90.00000   90.00000   90.00000
LATT -1
SFAC C  
C      1  0.4227050000000  0.4564410000000  0.4724620000000 1.0
C      1  0.4189320000000  0.5447060000000  0.4703390000000 1.0
C      1  0.5139180000000  0.4356430000000  0.5815400000000 1.0
C      1  0.5179070000000  0.5648770000000  0.5867610000000 1.0
C      1  0.5586930000000  0.5733690000000  0.5059050000000 1.0
C      1  0.5509650000000  0.4228890000000  0.5175520000000 1.0
C      1  0.4284630000000  0.4565270000000  0.4424930000000 1.0
C      1  0.4213780000000  0.5489420000000  0.4392390000000 1.0
C      1  0.4219670000000  0.5272480000000  0.4187840000000 1.0
C      1  0.4366250000000  0.4830260000000  0.4314490000000 1.0
C      1  0.5538630000000  0.5927140000000  0.4836190000000 1.0
C      1  0.5532330000000  0.4078440000000  0.4920420000000 1.0
C      1  0.5241830000000  0.5362640000000  0.4298170000000 1.0
C      1  0.5326150000000  0.4703160000000  0.4403020000000 1.0
C      1  0.3975610000000  0.5231710000000  0.4814110000000 1.0
C      1  0.4002880000000  0.4787420000000  0.4822560000000 1.0
C      1  0.4483250000000  0.4670830000000  0.4878480000000 1.0
C      1  0.4476160000000  0.5356380000000  0.4846130000000 1.0
C      1  0.4814100000000  0.5229540000000  0.5548940000000 1.0
C      1  0.4781780000000  0.4726530000000  0.5542980000000 1.0
C      1  0.5371330000000  0.5794180000000  0.4515350000000 1.0
C      1  0.5402190000000  0.4225800000000  0.4586250000000 1.0
C      1  0.4986430000000  0.4357830000000  0.4676560000000 1.0
C      1  0.4954380000000  0.5624400000000  0.4628520000000 1.0
C      1  0.4179260000000  0.5379740000000  0.5244350000000 1.0
C      1  0.4150970000000  0.4604220000000  0.5249440000000 1.0
C      1  0.4913590000000  0.5822920000000  0.5083850000000 1.0
C      1  0.4875220000000  0.4129120000000  0.5088100000000 1.0
C      1  0.5661050000000  0.5748250000000  0.4515670000000 1.0
C      1  0.5690920000000  0.4265740000000  0.4618240000000 1.0
C      1  0.5937890000000  0.5271070000000  0.5225100000000 1.0
C      1  0.6002710000000  0.4747230000000  0.5293410000000 1.0
C      1  0.3941820000000  0.5250060000000  0.5114560000000 1.0
C      1  0.3933720000000  0.4754840000000  0.5112700000000 1.0
C      1  0.4439610000000  0.4699470000000  0.5176920000000 1.0
C      1  0.4469850000000  0.5290630000000  0.5156510000000 1.0
C      1  0.4334030000000  0.4280860000000  0.5708940000000 1.0
C      1  0.4376470000000  0.5687980000000  0.5704150000000 1.0
C      1  0.4860630000000  0.4338240000000  0.5826060000000 1.0
C      1  0.4899190000000  0.5635000000000  0.5825310000000 1.0
C      1  0.4426150000000  0.5409760000000  0.5639440000000 1.0
C      1  0.4389850000000  0.4558400000000  0.5650180000000 1.0
C      1  0.5663850000000  0.5906600000000  0.5537960000000 1.0
C      1  0.5642400000000  0.4062180000000  0.5609380000000 1.0
C      1  0.4597170000000  0.5553550000000  0.4069040000000 1.0
C      1  0.4687290000000  0.4547300000000  0.4125740000000 1.0
C      1  0.5488070000000  0.3833970000000  0.5580950000000 1.0
C      1  0.5514110000000  0.6137660000000  0.5511780000000 1.0
C      1  0.5072530000000  0.4588070000000  0.4069300000000 1.0
C      1  0.5118590000000  0.5536580000000  0.3912110000000 1.0
C      1  0.6106350000000  0.4643240000000  0.4797880000000 1.0
C      1  0.6039580000000  0.5335600000000  0.4697540000000 1.0
C      1  0.4522660000000  0.4796130000000  0.4058880000000 1.0
C      1  0.4460840000000  0.5294400000000  0.3998910000000 1.0
C      1  0.4687960000000  0.5200870000000  0.4446490000000 1.0
C      1  0.4830510000000  0.4774580000000  0.4578220000000 1.0
C      1  0.5456920000000  0.5353010000000  0.5246670000000 1.0
C      1  0.5559070000000  0.4644520000000  0.5325560000000 1.0
C      1  0.4508540000000  0.4151850000000  0.5528400000000 1.0
C      1  0.4550230000000  0.5813190000000  0.5521400000000 1.0
C      1  0.5392530000000  0.4616170000000  0.4882690000000 1.0
C      1  0.5307180000000  0.5354760000000  0.4793940000000 1.0
C      1  0.4219300000000  0.4293950000000  0.4846920000000 1.0
C      1  0.4209850000000  0.5708440000000  0.4857750000000 1.0
C      1  0.4420970000000  0.4160160000000  0.5245980000000 1.0
C      1  0.4459930000000  0.5790850000000  0.5247160000000 1.0
C      1  0.4870350000000  0.4433760000000  0.5170730000000 1.0
C      1  0.4977390000000  0.5532460000000  0.5208210000000 1.0
C      1  0.4178670000000  0.4304070000000  0.5147550000000 1.0
C      1  0.4199870000000  0.5679400000000  0.5161700000000 1.0
C      1  0.4592490000000  0.4066420000000  0.5026590000000 1.0
C      1  0.4623610000000  0.5877400000000  0.5030410000000 1.0
C      1  0.5334560000000  0.4414930000000  0.4134310000000 1.0
C      1  0.5361150000000  0.5686660000000  0.4024490000000 1.0
C      1  0.5593330000000  0.4614170000000  0.4265240000000 1.0
C      1  0.5505750000000  0.5450220000000  0.4157580000000 1.0
C      1  0.5422490000000  0.4732090000000  0.5765610000000 1.0
C      1  0.5446660000000  0.5234860000000  0.5770430000000 1.0
C      1  0.5017720000000  0.3993160000000  0.5511000000000 1.0
C      1  0.5044640000000  0.5989270000000  0.5489630000000 1.0
C      1  0.6203750000000  0.4715900000000  0.5057240000000 1.0
C      1  0.5967950000000  0.5423910000000  0.4965600000000 1.0
C      1  0.4879240000000  0.4224280000000  0.4433290000000 1.0
C      1  0.4844390000000  0.5807850000000  0.4430840000000 1.0
C      1  0.5272320000000  0.5880910000000  0.4236240000000 1.0
C      1  0.5301280000000  0.4166850000000  0.4302890000000 1.0
C      1  0.5725800000000  0.5511780000000  0.4355230000000 1.0
C      1  0.5779730000000  0.4497360000000  0.4468080000000 1.0
C      1  0.5265980000000  0.3981800000000  0.5663100000000 1.0
C      1  0.5298970000000  0.6002410000000  0.5624000000000 1.0
C      1  0.5075820000000  0.5341300000000  0.4986110000000 1.0
C      1  0.5030480000000  0.4973930000000  0.4690950000000 1.0
C      1  0.4496940000000  0.4207260000000  0.4786350000000 1.0
C      1  0.4484870000000  0.5793230000000  0.4785120000000 1.0
C      1  0.5331460000000  0.4752460000000  0.6040390000000 1.0
C      1  0.5385180000000  0.5194550000000  0.6053030000000 1.0
C      1  0.5932900000000  0.4720470000000  0.4580240000000 1.0
C      1  0.5851650000000  0.5272230000000  0.4485590000000 1.0
C      1  0.5734320000000  0.5410470000000  0.5405750000000 1.0
C      1  0.5788690000000  0.4533340000000  0.5463560000000 1.0
C      1  0.4561040000000  0.5835570000000  0.4495650000000 1.0
C      1  0.4591460000000  0.4178110000000  0.4497550000000 1.0
C      1  0.5067130000000  0.6045690000000  0.5208980000000 1.0
C      1  0.5045440000000  0.3931000000000  0.5236260000000 1.0
C      1  0.4911470000000  0.5491150000000  0.4134550000000 1.0
C      1  0.4900120000000  0.4649560000000  0.4314770000000 1.0
C      1  0.4773820000000  0.4552400000000  0.4813710000000 1.0
C      1  0.4741600000000  0.5354110000000  0.4692870000000 1.0
C      1  0.5039350000000  0.5824030000000  0.4829860000000 1.0
C      1  0.5024680000000  0.4121790000000  0.4841060000000 1.0
C      1  0.4798780000000  0.4184150000000  0.5583030000000 1.0
C      1  0.4838510000000  0.5788360000000  0.5576790000000 1.0
C      1  0.5278230000000  0.5464540000000  0.5673520000000 1.0
C      1  0.5247950000000  0.4529910000000  0.5619710000000 1.0
C      1  0.4481640000000  0.4378610000000  0.4308060000000 1.0
C      1  0.4419440000000  0.5677470000000  0.4290290000000 1.0
C      1  0.5729610000000  0.4693480000000  0.5730770000000 1.0
C      1  0.5733080000000  0.5254670000000  0.5680420000000 1.0
C      1  0.5198320000000  0.5287980000000  0.3806470000000 1.0
C      1  0.5132800000000  0.4827420000000  0.3922890000000 1.0
C      1  0.4184390000000  0.5282730000000  0.5524970000000 1.0
C      1  0.4153050000000  0.4694330000000  0.5534250000000 1.0
C      1  0.5725850000000  0.5718050000000  0.5330740000000 1.0
C      1  0.5716700000000  0.4233560000000  0.5391300000000 1.0
C      1  0.4533830000000  0.5269500000000  0.5889440000000 1.0
C      1  0.4511650000000  0.4702670000000  0.5894100000000 1.0
C      1  0.5270380000000  0.4498600000000  0.4641110000000 1.0
C      1  0.5229130000000  0.5525820000000  0.4557130000000 1.0
C      1  0.5260350000000  0.3971180000000  0.4912220000000 1.0
C      1  0.5256750000000  0.6012860000000  0.4870570000000 1.0
C      1  0.4636980000000  0.4529490000000  0.5356100000000 1.0
C      1  0.4693870000000  0.5434310000000  0.5360560000000 1.0
C      1  0.5384230000000  0.4497260000000  0.5150810000000 1.0
C      1  0.5527080000000  0.5458100000000  0.4975090000000 1.0
C      1  0.4993130000000  0.5917890000000  0.4218050000000 1.0
C      1  0.5047560000000  0.4046740000000  0.4290700000000 1.0
C      1  0.4790140000000  0.4633040000000  0.5826470000000 1.0
C      1  0.4819290000000  0.5335690000000  0.5831060000000 1.0
C      1  0.5237300000000  0.5504650000000  0.5383130000000 1.0
C      1  0.5121370000000  0.4570940000000  0.5302970000000 1.0
C      1  0.5863100000000  0.4977090000000  0.4413460000000 1.0
C      1  0.5305130000000  0.5037420000000  0.3866500000000 1.0
C      1  0.4687480000000  0.4989840000000  0.6228010000000 1.0
C      1  0.5879680000000  0.4974290000000  0.5689870000000 1.0
C      1  0.5065530000000  0.4870080000000  0.5234240000000 1.0
C      1  0.3887800000000  0.5002070000000  0.5268380000000 1.0
C      1  0.4480270000000  0.4989430000000  0.6019870000000 1.0
C      1  0.5756470000000  0.4954390000000  0.4911140000000 1.0
C      1  0.6122360000000  0.4929600000000  0.5507620000000 1.0
C      1  0.4656770000000  0.4988240000000  0.5514140000000 1.0
C      1  0.5533990000000  0.5033030000000  0.4026020000000 1.0
C      1  0.4192420000000  0.5018760000000  0.4830210000000 1.0
C      1  0.4480180000000  0.4969470000000  0.4798090000000 1.0
C      1  0.4819410000000  0.4958540000000  0.5084190000000 1.0
C      1  0.5807160000000  0.4989200000000  0.5197120000000 1.0
C      1  0.3881610000000  0.4981100000000  0.4392260000000 1.0
C      1  0.5234350000000  0.4983670000000  0.6161110000000 1.0
C      1  0.5323570000000  0.5014290000000  0.5148190000000 1.0
C      1  0.5205010000000  0.5031170000000  0.4294460000000 1.0
C      1  0.4893170000000  0.5154480000000  0.4872230000000 1.0
C      1  0.6051360000000  0.5064580000000  0.4830690000000 1.0
C      1  0.4065270000000  0.4994620000000  0.5584680000000 1.0
C      1  0.4862140000000  0.5178840000000  0.4206740000000 1.0
C      1  0.4562560000000  0.4990010000000  0.5234320000000 1.0
C      1  0.6275420000000  0.5011530000000  0.5054430000000 1.0
C      1  0.5454360000000  0.4904090000000  0.4888140000000 1.0
C      1  0.4035920000000  0.5001790000000  0.5876560000000 1.0
C      1  0.4578900000000  0.4945230000000  0.4520840000000 1.0
C      1  0.6204220000000  0.5153250000000  0.5321090000000 1.0
C      1  0.5523260000000  0.4930930000000  0.5355350000000 1.0
C      1  0.4199020000000  0.5001080000000  0.6095820000000 1.0
C      1  0.5379660000000  0.4987180000000  0.5623430000000 1.0
C      1  0.5699130000000  0.4879240000000  0.4190680000000 1.0
C      1  0.3794980000000  0.4964550000000  0.4653400000000 1.0
C      1  0.4127470000000  0.5006000000000  0.4262420000000 1.0
C      1  0.4960730000000  0.5003380000000  0.6226400000000 1.0
C      1  0.4661440000000  0.5058890000000  0.3990820000000 1.0
C      1  0.5318590000000  0.5057320000000  0.4664610000000 1.0
END
