TITL C-3577077-324-324 1.54612610482943e-07 125000 -359.814209378457 0 0 58 (C2) n - 1
REM
REM in /home/bkarasulu/work/CARBON/AIRSS/Generating-Clusters/EDIP-Nigel-Params/with-SteepDescent/Higher-Symm/SD-CG/HFTN-CG
REM
REM
REM
REM
REM
REM ./C.cell (12c818d87b63d06a65506943cc24bca4)
REM
REM compiler GCC version 9.2.1 20190827 (Red Hat 9.2.1-1)
REM options -cpp -mtune=generic -march=x86-64 -g -O0 -fpre-include=/usr/include/finclude/math-vector-fortran.h
REM seed -1736188083 372054083 -950885094 -283988889 1503347192 1648258614 -1323692548 -1035834984 1799111771 -56192514 -105651642 -920338039 -625824566 -782032912 1575516301 -1412472465 -672042557 1043375855 -1123019419 -1488068799 225458949 500605313 1377187795 -1206757718 -1347205563 -77676742 -497756722 -1383292940 1677071299 657594835 10813701 -1269106934 -655899434
REM
CELL 1.54180   50.00000   50.00000   50.00000   90.00000   90.00000   90.00000
LATT -1
SFAC C  
C      1  0.5721190000000  0.5051940000000  0.4640750000000 1.0
C      1  0.4279630000000  0.5059660000000  0.5359660000000 1.0
C      1  0.4293980000000  0.4962790000000  0.4697050000000 1.0
C      1  0.5705420000000  0.4950560000000  0.5302650000000 1.0
C      1  0.4948480000000  0.4427300000000  0.5355080000000 1.0
C      1  0.5043370000000  0.4429170000000  0.4640850000000 1.0
C      1  0.5063330000000  0.5599010000000  0.5355900000000 1.0
C      1  0.4945260000000  0.5602380000000  0.4648390000000 1.0
C      1  0.5213330000000  0.5135220000000  0.5340140000000 1.0
C      1  0.4788650000000  0.5140670000000  0.4660850000000 1.0
C      1  0.4751110000000  0.4862570000000  0.5371120000000 1.0
C      1  0.5246940000000  0.4861680000000  0.4627910000000 1.0
C      1  0.5249670000000  0.5415170000000  0.5445750000000 1.0
C      1  0.4756320000000  0.5421860000000  0.4557240000000 1.0
C      1  0.4738470000000  0.4575810000000  0.5461880000000 1.0
C      1  0.5255490000000  0.4575430000000  0.4535100000000 1.0
C      1  0.5251310000000  0.4868550000000  0.4926300000000 1.0
C      1  0.4746860000000  0.4871630000000  0.5072790000000 1.0
C      1  0.4845210000000  0.5134600000000  0.4970470000000 1.0
C      1  0.5156710000000  0.5132160000000  0.5030490000000 1.0
C      1  0.5653620000000  0.5388320000000  0.5257780000000 1.0
C      1  0.4352020000000  0.5399440000000  0.4745040000000 1.0
C      1  0.4294340000000  0.4558040000000  0.5234820000000 1.0
C      1  0.5699310000000  0.4549700000000  0.4762010000000 1.0
C      1  0.5330910000000  0.4692390000000  0.5382070000000 1.0
C      1  0.4664770000000  0.4699880000000  0.4615770000000 1.0
C      1  0.4668980000000  0.5312420000000  0.5405420000000 1.0
C      1  0.5335480000000  0.5310550000000  0.4596810000000 1.0
C      1  0.4377190000000  0.4551740000000  0.4952250000000 1.0
C      1  0.5616370000000  0.4542560000000  0.5044530000000 1.0
C      1  0.5579910000000  0.5415240000000  0.4977210000000 1.0
C      1  0.4426100000000  0.5423300000000  0.5025790000000 1.0
C      1  0.5293810000000  0.5376010000000  0.4878810000000 1.0
C      1  0.4711600000000  0.5379290000000  0.5123890000000 1.0
C      1  0.4674180000000  0.4627200000000  0.4897300000000 1.0
C      1  0.5320470000000  0.4621870000000  0.5100030000000 1.0
C      1  0.4205010000000  0.4713100000000  0.4792420000000 1.0
C      1  0.5790820000000  0.4700310000000  0.5205500000000 1.0
C      1  0.5756940000000  0.5273710000000  0.4810300000000 1.0
C      1  0.4247050000000  0.5283120000000  0.5191700000000 1.0
C      1  0.4179400000000  0.4804670000000  0.5302040000000 1.0
C      1  0.5817760000000  0.4795140000000  0.4696540000000 1.0
C      1  0.5850710000000  0.5192000000000  0.5314820000000 1.0
C      1  0.4152150000000  0.5206360000000  0.4686610000000 1.0
C      1  0.5451970000000  0.5061160000000  0.4529670000000 1.0
C      1  0.4548940000000  0.5064250000000  0.5470780000000 1.0
C      1  0.4561960000000  0.4956630000000  0.4592130000000 1.0
C      1  0.5437370000000  0.4947480000000  0.5407540000000 1.0
C      1  0.5088850000000  0.4416190000000  0.5111910000000 1.0
C      1  0.4902850000000  0.4418330000000  0.4883940000000 1.0
C      1  0.4915210000000  0.5606040000000  0.5120380000000 1.0
C      1  0.5093460000000  0.5605620000000  0.4883950000000 1.0
C      1  0.5503280000000  0.4462930000000  0.4583830000000 1.0
C      1  0.4489100000000  0.4467210000000  0.5412360000000 1.0
C      1  0.4498870000000  0.5522200000000  0.4541530000000 1.0
C      1  0.5508530000000  0.5511710000000  0.5462160000000 1.0
C      1  0.5009060000000  0.4999330000000  0.4542510000000 1.0
C      1  0.4990920000000  0.4996200000000  0.5457490000000 1.0
END
