TITL C-3578209-2550-382 -7.16549876272889e-06 125000 -1208.95175871939 0 0 192 (C1) n - 1
REM
REM in /home/bkarasulu/work/CARBON/AIRSS/Generating-Clusters/EDIP-Nigel-Params/with-SteepDescent/Higher-Symm/SD-CG/HFTN-CG
REM
REM
REM
REM
REM
REM ./C.cell (12c818d87b63d06a65506943cc24bca4)
REM
REM compiler GCC version 9.2.1 20190827 (Red Hat 9.2.1-1)
REM options -cpp -mtune=generic -march=x86-64 -g -O0 -fpre-include=/usr/include/finclude/math-vector-fortran.h
REM seed 719013216 -38652979 -892097821 801292339 251299563 482120539 -791379456 98640090 -95913332 -577994692 207067014 2113063599 -1894682683 68616836 -1471851253 607878257 363632696 1237235215 -2013980477 -846895591 1172710547 1198170319 -1004092892 1030348083 -737923349 830540666 -2022991892 615439573 -266040898 2104417306 796601862 1455355710 -973544653
REM
CELL 1.54180   50.00000   50.00000   50.00000   90.00000   90.00000   90.00000
LATT -1
SFAC C  
C      1  0.5857280000000  0.5446340000000  0.4573800000000 1.0
C      1  0.4939210000000  0.5447350000000  0.5960120000000 1.0
C      1  0.4202150000000  0.5447500000000  0.4469050000000 1.0
C      1  0.5998020000000  0.5647500000000  0.4754400000000 1.0
C      1  0.4712560000000  0.5649000000000  0.5990160000000 1.0
C      1  0.4287940000000  0.5649430000000  0.4257060000000 1.0
C      1  0.5579040000000  0.5778270000000  0.4333850000000 1.0
C      1  0.5286620000000  0.5780760000000  0.5837110000000 1.0
C      1  0.4135770000000  0.5779960000000  0.4831470000000 1.0
C      1  0.5125570000000  0.5060000000000  0.5996790000000 1.0
C      1  0.4077020000000  0.5060270000000  0.4612550000000 1.0
C      1  0.5798290000000  0.5058290000000  0.4394280000000 1.0
C      1  0.4135510000000  0.5096280000000  0.4335510000000 1.0
C      1  0.6006880000000  0.5095860000000  0.4585510000000 1.0
C      1  0.4856060000000  0.5095510000000  0.6083590000000 1.0
C      1  0.5321040000000  0.4181100000000  0.4468230000000 1.0
C      1  0.5302560000000  0.4185570000000  0.5549470000000 1.0
C      1  0.4376210000000  0.4184440000000  0.4991860000000 1.0
C      1  0.5585220000000  0.5373150000000  0.5209820000000 1.0
C      1  0.4528820000000  0.5371640000000  0.5401340000000 1.0
C      1  0.4885700000000  0.5369900000000  0.4381420000000 1.0
C      1  0.5041110000000  0.5065180000000  0.4784400000000 1.0
C      1  0.5146880000000  0.5078240000000  0.5153390000000 1.0
C      1  0.4812430000000  0.5072560000000  0.5057660000000 1.0
C      1  0.4848840000000  0.5754200000000  0.5259350000000 1.0
C      1  0.4853690000000  0.5751560000000  0.4736400000000 1.0
C      1  0.5299910000000  0.5755540000000  0.5004120000000 1.0
C      1  0.5094840000000  0.4588020000000  0.4002690000000 1.0
C      1  0.5829580000000  0.4583680000000  0.5591170000000 1.0
C      1  0.4077010000000  0.4580370000000  0.5425200000000 1.0
C      1  0.5580210000000  0.4125430000000  0.5593230000000 1.0
C      1  0.4198310000000  0.4123210000000  0.5208430000000 1.0
C      1  0.5219310000000  0.4123250000000  0.4205760000000 1.0
C      1  0.5780330000000  0.5046740000000  0.5950120000000 1.0
C      1  0.3793050000000  0.5047390000000  0.5202350000000 1.0
C      1  0.5429890000000  0.5044230000000  0.3852120000000 1.0
C      1  0.3810780000000  0.4887410000000  0.4948650000000 1.0
C      1  0.5641860000000  0.4884750000000  0.3994910000000 1.0
C      1  0.5549690000000  0.4886990000000  0.6058860000000 1.0
C      1  0.5779840000000  0.4895900000000  0.5248590000000 1.0
C      1  0.4397190000000  0.4895080000000  0.5554300000000 1.0
C      1  0.4820070000000  0.4894830000000  0.4189770000000 1.0
C      1  0.5349930000000  0.4908810000000  0.4407140000000 1.0
C      1  0.5334110000000  0.4912250000000  0.5599870000000 1.0
C      1  0.4316570000000  0.4912350000000  0.4991910000000 1.0
C      1  0.5081290000000  0.5304650000000  0.4599440000000 1.0
C      1  0.5296210000000  0.5315180000000  0.5273580000000 1.0
C      1  0.4625790000000  0.5310130000000  0.5120890000000 1.0
C      1  0.4947410000000  0.4814660000000  0.4645820000000 1.0
C      1  0.5315690000000  0.4826400000000  0.5127060000000 1.0
C      1  0.4734070000000  0.4820850000000  0.5210710000000 1.0
C      1  0.5028640000000  0.4581600000000  0.5574860000000 1.0
C      1  0.4487930000000  0.4584070000000  0.4739310000000 1.0
C      1  0.5482330000000  0.4583230000000  0.4688480000000 1.0
C      1  0.5063530000000  0.5917320000000  0.4620370000000 1.0
C      1  0.5297010000000  0.5920620000000  0.5244970000000 1.0
C      1  0.4642730000000  0.5918190000000  0.5134290000000 1.0
C      1  0.4117700000000  0.4994070000000  0.5582760000000 1.0
C      1  0.4931700000000  0.4994940000000  0.3933250000000 1.0
C      1  0.5938470000000  0.4999360000000  0.5477480000000 1.0
C      1  0.4338910000000  0.4176390000000  0.5452920000000 1.0
C      1  0.4936750000000  0.4177840000000  0.4199990000000 1.0
C      1  0.5725150000000  0.4179320000000  0.5350770000000 1.0
C      1  0.5213460000000  0.4007890000000  0.4671330000000 1.0
C      1  0.5179790000000  0.4012490000000  0.5356960000000 1.0
C      1  0.4604520000000  0.4010920000000  0.4979990000000 1.0
C      1  0.4724380000000  0.5591500000000  0.5482680000000 1.0
C      1  0.4720850000000  0.5589070000000  0.4516860000000 1.0
C      1  0.5554950000000  0.5591710000000  0.4998670000000 1.0
C      1  0.4590240000000  0.4532160000000  0.4123460000000 1.0
C      1  0.5961630000000  0.4535470000000  0.5089620000000 1.0
C      1  0.4446200000000  0.4532900000000  0.5788470000000 1.0
C      1  0.6042200000000  0.4839170000000  0.4733490000000 1.0
C      1  0.4712770000000  0.4836820000000  0.6039320000000 1.0
C      1  0.4242470000000  0.4837510000000  0.4232170000000 1.0
C      1  0.4943540000000  0.5468440000000  0.4066210000000 1.0
C      1  0.5834030000000  0.5470560000000  0.5418060000000 1.0
C      1  0.4222660000000  0.5468470000000  0.5513720000000 1.0
C      1  0.4735690000000  0.4391210000000  0.4663870000000 1.0
C      1  0.5421710000000  0.4393040000000  0.4942330000000 1.0
C      1  0.4837990000000  0.4392180000000  0.5396110000000 1.0
C      1  0.4517390000000  0.4157120000000  0.4441870000000 1.0
C      1  0.5723740000000  0.4158820000000  0.4866770000000 1.0
C      1  0.4757460000000  0.4155200000000  0.5694710000000 1.0
C      1  0.5741650000000  0.4581130000000  0.4399090000000 1.0
C      1  0.5153620000000  0.4580160000000  0.5942890000000 1.0
C      1  0.4106930000000  0.4581730000000  0.4663280000000 1.0
C      1  0.5431440000000  0.4889230000000  0.4706490000000 1.0
C      1  0.5033480000000  0.4888540000000  0.5527850000000 1.0
C      1  0.4530850000000  0.4890810000000  0.4769760000000 1.0
C      1  0.4943990000000  0.4141740000000  0.5235640000000 1.0
C      1  0.4824810000000  0.4144660000000  0.4837220000000 1.0
C      1  0.5229040000000  0.4143280000000  0.4934430000000 1.0
C      1  0.5218110000000  0.5573230000000  0.6043560000000 1.0
C      1  0.3990890000000  0.5572800000000  0.4669090000000 1.0
C      1  0.5792400000000  0.5571430000000  0.4290000000000 1.0
C      1  0.6069110000000  0.4795360000000  0.5022180000000 1.0
C      1  0.4450160000000  0.4791930000000  0.5916730000000 1.0
C      1  0.4477240000000  0.4791470000000  0.4062540000000 1.0
C      1  0.5539110000000  0.5875890000000  0.5387960000000 1.0
C      1  0.4398230000000  0.5875800000000  0.5273730000000 1.0
C      1  0.5066540000000  0.5873260000000  0.4339330000000 1.0
C      1  0.4127790000000  0.5252570000000  0.5709730000000 1.0
C      1  0.4819230000000  0.5255800000000  0.3883290000000 1.0
C      1  0.6049210000000  0.5253730000000  0.5401630000000 1.0
C      1  0.5434640000000  0.5294960000000  0.4034040000000 1.0
C      1  0.5619000000000  0.5297070000000  0.5860760000000 1.0
C      1  0.3950800000000  0.5296820000000  0.5106280000000 1.0
C      1  0.5443990000000  0.5190330000000  0.4325110000000 1.0
C      1  0.5360970000000  0.5193160000000  0.5723350000000 1.0
C      1  0.4198540000000  0.5193060000000  0.4952290000000 1.0
C      1  0.5500590000000  0.4834370000000  0.5348330000000 1.0
C      1  0.4450060000000  0.4835260000000  0.5261190000000 1.0
C      1  0.5050690000000  0.4822940000000  0.4375940000000 1.0
C      1  0.5403080000000  0.4716750000000  0.5837020000000 1.0
C      1  0.4075640000000  0.4716790000000  0.4932870000000 1.0
C      1  0.5525260000000  0.4714030000000  0.4233630000000 1.0
C      1  0.4739460000000  0.5691940000000  0.4038240000000 1.0
C      1  0.5961940000000  0.5691710000000  0.5254120000000 1.0
C      1  0.4299670000000  0.5690570000000  0.5705730000000 1.0
C      1  0.5342120000000  0.5407360000000  0.4506220000000 1.0
C      1  0.5253450000000  0.5412240000000  0.5547850000000 1.0
C      1  0.4407240000000  0.5409830000000  0.4947330000000 1.0
C      1  0.5335220000000  0.3931740000000  0.5121920000000 1.0
C      1  0.4735400000000  0.3919190000000  0.5228410000000 1.0
C      1  0.4929210000000  0.3932790000000  0.4650530000000 1.0
C      1  0.5240750000000  0.5529200000000  0.4029090000000 1.0
C      1  0.5720130000000  0.5531670000000  0.5695300000000 1.0
C      1  0.4042330000000  0.5531100000000  0.5276170000000 1.0
C      1  0.4471990000000  0.4471780000000  0.5017680000000 1.0
C      1  0.5249740000000  0.4468620000000  0.4537650000000 1.0
C      1  0.5278130000000  0.4471710000000  0.5449730000000 1.0
C      1  0.5052590000000  0.5902880000000  0.5402120000000 1.0
C      1  0.4628810000000  0.5899130000000  0.4844320000000 1.0
C      1  0.5321100000000  0.5902140000000  0.4754740000000 1.0
C      1  0.4594530000000  0.4036010000000  0.5489410000000 1.0
C      1  0.4775610000000  0.4037010000000  0.4400890000000 1.0
C      1  0.5629140000000  0.4040030000000  0.5110950000000 1.0
C      1  0.4461570000000  0.5401900000000  0.4636040000000 1.0
C      1  0.5581680000000  0.5401400000000  0.4712830000000 1.0
C      1  0.4955930000000  0.5403450000000  0.5652130000000 1.0
C      1  0.4397140000000  0.5258260000000  0.5867100000000 1.0
C      1  0.4548650000000  0.5260010000000  0.4039870000000 1.0
C      1  0.6049930000000  0.5257180000000  0.5089630000000 1.0
C      1  0.3815810000000  0.5382820000000  0.4838610000000 1.0
C      1  0.5734630000000  0.5381370000000  0.4052890000000 1.0
C      1  0.5452640000000  0.5383480000000  0.6111290000000 1.0
C      1  0.5037820000000  0.5864710000000  0.5695840000000 1.0
C      1  0.4381410000000  0.5864660000000  0.4685310000000 1.0
C      1  0.5581970000000  0.5863040000000  0.4619970000000 1.0
C      1  0.5297210000000  0.5668820000000  0.4290550000000 1.0
C      1  0.5466410000000  0.5673210000000  0.5614480000000 1.0
C      1  0.4240550000000  0.5671790000000  0.5097580000000 1.0
C      1  0.3818280000000  0.5096090000000  0.4728030000000 1.0
C      1  0.5827880000000  0.5094460000000  0.4112310000000 1.0
C      1  0.5355320000000  0.5096290000000  0.6162250000000 1.0
C      1  0.5620390000000  0.5110550000000  0.4796420000000 1.0
C      1  0.4863740000000  0.5112450000000  0.5643670000000 1.0
C      1  0.4513760000000  0.5110680000000  0.4560840000000 1.0
C      1  0.4685740000000  0.5146410000000  0.4311370000000 1.0
C      1  0.5745730000000  0.5147180000000  0.5071540000000 1.0
C      1  0.4564560000000  0.5148040000000  0.5612930000000 1.0
C      1  0.5000730000000  0.4539960000000  0.4758060000000 1.0
C      1  0.5205000000000  0.4544260000000  0.5119670000000 1.0
C      1  0.4793190000000  0.4540060000000  0.5116890000000 1.0
C      1  0.4905290000000  0.3662160000000  0.5097200000000 1.0
C      1  0.4896630000000  0.3668260000000  0.4797380000000 1.0
C      1  0.5198800000000  0.3675910000000  0.5031450000000 1.0
C      1  0.5180410000000  0.4898160000000  0.3815030000000 1.0
C      1  0.5937820000000  0.4903220000000  0.5751980000000 1.0
C      1  0.3884250000000  0.4901300000000  0.5436360000000 1.0
C      1  0.5914610000000  0.4591090000000  0.4631790000000 1.0
C      1  0.4865580000000  0.4588560000000  0.5979130000000 1.0
C      1  0.4219290000000  0.4590520000000  0.4395880000000 1.0
C      1  0.5856120000000  0.4411940000000  0.4855410000000 1.0
C      1  0.4700700000000  0.4407880000000  0.5817290000000 1.0
C      1  0.4440960000000  0.4410270000000  0.4333440000000 1.0
C      1  0.5321820000000  0.4494190000000  0.4158310000000 1.0
C      1  0.5573110000000  0.4498320000000  0.5700530000000 1.0
C      1  0.4107600000000  0.4496470000000  0.5147760000000 1.0
C      1  0.4431060000000  0.5548730000000  0.5935700000000 1.0
C      1  0.4473940000000  0.5550660000000  0.4038280000000 1.0
C      1  0.6092720000000  0.5547670000000  0.5024950000000 1.0
C      1  0.5874750000000  0.4431030000000  0.5347590000000 1.0
C      1  0.4266870000000  0.4427950000000  0.5584240000000 1.0
C      1  0.4860050000000  0.4431650000000  0.4075350000000 1.0
C      1  0.5822310000000  0.5879680000000  0.4797930000000 1.0
C      1  0.4763040000000  0.5880140000000  0.5814430000000 1.0
C      1  0.4415330000000  0.5880430000000  0.4387960000000 1.0
C      1  0.4519470000000  0.5831160000000  0.5575800000000 1.0
C      1  0.4743530000000  0.5831600000000  0.4294110000000 1.0
C      1  0.5738710000000  0.5832210000000  0.5129600000000 1.0
END
