TITL C-3578209-2550-187 -3.25227673922724e-07 125000 -754.213468072735 0 0 122 (C1) n - 1
REM
REM in /home/bkarasulu/work/CARBON/AIRSS/Generating-Clusters/EDIP-Nigel-Params/with-SteepDescent/Higher-Symm/SD-CG/HFTN-CG
REM
REM
REM
REM
REM
REM ./C.cell (12c818d87b63d06a65506943cc24bca4)
REM
REM compiler GCC version 9.2.1 20190827 (Red Hat 9.2.1-1)
REM options -cpp -mtune=generic -march=x86-64 -g -O0 -fpre-include=/usr/include/finclude/math-vector-fortran.h
REM seed -1986224987 -1313411376 -1275354256 1459451302 -1990748759 1707362411 156558113 1429371711 -1603850929 1639806359 735237640 1384632081 451547892 847186092 -2081203393 -51857802 -694970502 -1299642701 -2036887714 -1251184499 1172503099 -2133176839 1282956182 129533998 1977704631 -1540160446 -1433375706 19904615 1753608793 1223197551 1372743873 -1399141946 1478578465
REM
CELL 1.54180   50.00000   50.00000   50.00000   90.00000   90.00000   90.00000
LATT -1
SFAC C  
C      1  0.5276720000000  0.5188620000000  0.5446280000000 1.0
C      1  0.5274140000000  0.5180650000000  0.4555230000000 1.0
C      1  0.5193230000000  0.5616060000000  0.4243740000000 1.0
C      1  0.5214500000000  0.5619030000000  0.5768690000000 1.0
C      1  0.5632260000000  0.5388860000000  0.4305120000000 1.0
C      1  0.5646130000000  0.5383490000000  0.5696920000000 1.0
C      1  0.4964120000000  0.4148980000000  0.5421980000000 1.0
C      1  0.4972530000000  0.4240150000000  0.4605410000000 1.0
C      1  0.5331030000000  0.5058290000000  0.4086670000000 1.0
C      1  0.5340360000000  0.5055950000000  0.5915300000000 1.0
C      1  0.4721150000000  0.4679190000000  0.4290510000000 1.0
C      1  0.4714100000000  0.4691480000000  0.5701670000000 1.0
C      1  0.5763610000000  0.4521240000000  0.4433660000000 1.0
C      1  0.5757540000000  0.4514600000000  0.5567430000000 1.0
C      1  0.4330300000000  0.5483850000000  0.4482500000000 1.0
C      1  0.4356130000000  0.5540630000000  0.5551920000000 1.0
C      1  0.5485090000000  0.4465600000000  0.4839350000000 1.0
C      1  0.5482020000000  0.4474730000000  0.5153570000000 1.0
C      1  0.4885810000000  0.5888240000000  0.5163180000000 1.0
C      1  0.4869420000000  0.5867700000000  0.4861350000000 1.0
C      1  0.4170100000000  0.4557050000000  0.5104400000000 1.0
C      1  0.4122950000000  0.4641090000000  0.4828970000000 1.0
C      1  0.4748490000000  0.5780400000000  0.4390340000000 1.0
C      1  0.4769250000000  0.5803810000000  0.5634630000000 1.0
C      1  0.4470620000000  0.5654850000000  0.5297060000000 1.0
C      1  0.4444320000000  0.5616280000000  0.4727020000000 1.0
C      1  0.4879150000000  0.5343010000000  0.4397370000000 1.0
C      1  0.4890150000000  0.5358810000000  0.5616120000000 1.0
C      1  0.5412160000000  0.4947520000000  0.4839520000000 1.0
C      1  0.5414730000000  0.4958830000000  0.5157890000000 1.0
C      1  0.5017040000000  0.5236940000000  0.3966990000000 1.0
C      1  0.5030650000000  0.5236310000000  0.6043300000000 1.0
C      1  0.5657950000000  0.4899130000000  0.4428690000000 1.0
C      1  0.5663850000000  0.4895810000000  0.5570740000000 1.0
C      1  0.4910280000000  0.5044670000000  0.5156080000000 1.0
C      1  0.4921640000000  0.5039470000000  0.4858220000000 1.0
C      1  0.5061630000000  0.5089430000000  0.5642690000000 1.0
C      1  0.5055740000000  0.5080540000000  0.4363610000000 1.0
C      1  0.5692880000000  0.4983320000000  0.4735270000000 1.0
C      1  0.5702500000000  0.4982290000000  0.5263070000000 1.0
C      1  0.5758120000000  0.5260900000000  0.4853510000000 1.0
C      1  0.5815990000000  0.5243370000000  0.5149950000000 1.0
C      1  0.5113060000000  0.5746790000000  0.5322480000000 1.0
C      1  0.5110760000000  0.5744600000000  0.4689110000000 1.0
C      1  0.5071460000000  0.4594960000000  0.4029600000000 1.0
C      1  0.5066710000000  0.4603180000000  0.5967260000000 1.0
C      1  0.4783750000000  0.5078590000000  0.5987790000000 1.0
C      1  0.4776380000000  0.5072330000000  0.4018760000000 1.0
C      1  0.4553550000000  0.5204250000000  0.5840720000000 1.0
C      1  0.4543390000000  0.5190000000000  0.4166700000000 1.0
C      1  0.4969190000000  0.4764120000000  0.5273750000000 1.0
C      1  0.4966340000000  0.4753810000000  0.4732170000000 1.0
C      1  0.4786230000000  0.4774720000000  0.4012020000000 1.0
C      1  0.4784680000000  0.4780530000000  0.5982610000000 1.0
C      1  0.5104950000000  0.5259190000000  0.5223600000000 1.0
C      1  0.5110620000000  0.5255560000000  0.4783700000000 1.0
C      1  0.4564520000000  0.5507220000000  0.5763640000000 1.0
C      1  0.4543330000000  0.5483580000000  0.4270540000000 1.0
C      1  0.4438780000000  0.4756550000000  0.5559100000000 1.0
C      1  0.4445080000000  0.4753010000000  0.4410710000000 1.0
C      1  0.5372560000000  0.4193740000000  0.5172050000000 1.0
C      1  0.5393280000000  0.4162530000000  0.4847150000000 1.0
C      1  0.4941880000000  0.5468570000000  0.4682230000000 1.0
C      1  0.4942550000000  0.5476460000000  0.5324410000000 1.0
C      1  0.5284100000000  0.4775540000000  0.4142920000000 1.0
C      1  0.5285940000000  0.4775420000000  0.5855640000000 1.0
C      1  0.5402770000000  0.4711060000000  0.4415460000000 1.0
C      1  0.5402800000000  0.4713110000000  0.5582030000000 1.0
C      1  0.5858430000000  0.4756560000000  0.4852640000000 1.0
C      1  0.5858860000000  0.4751760000000  0.5148550000000 1.0
C      1  0.5095160000000  0.4117020000000  0.4838820000000 1.0
C      1  0.5075950000000  0.4181230000000  0.5152480000000 1.0
C      1  0.4661500000000  0.5449450000000  0.5170520000000 1.0
C      1  0.4658970000000  0.5435830000000  0.4852490000000 1.0
C      1  0.4401750000000  0.5056770000000  0.5631330000000 1.0
C      1  0.4354990000000  0.5024040000000  0.4324900000000 1.0
C      1  0.4714960000000  0.4603950000000  0.5154670000000 1.0
C      1  0.4681500000000  0.4637000000000  0.4851170000000 1.0
C      1  0.4315830000000  0.4554860000000  0.4609740000000 1.0
C      1  0.4327880000000  0.4532770000000  0.5349560000000 1.0
C      1  0.5619830000000  0.5564810000000  0.5143580000000 1.0
C      1  0.5541290000000  0.5465110000000  0.4885800000000 1.0
C      1  0.4099160000000  0.4937120000000  0.4844020000000 1.0
C      1  0.4174300000000  0.5000490000000  0.5121530000000 1.0
C      1  0.5065000000000  0.4331680000000  0.5624190000000 1.0
C      1  0.5067370000000  0.4273670000000  0.4330770000000 1.0
C      1  0.5382700000000  0.5456880000000  0.4436860000000 1.0
C      1  0.5396290000000  0.5458650000000  0.5570400000000 1.0
C      1  0.5416990000000  0.5629920000000  0.4680370000000 1.0
C      1  0.5429050000000  0.5651240000000  0.5341850000000 1.0
C      1  0.4559220000000  0.4365580000000  0.5268040000000 1.0
C      1  0.4533730000000  0.4395650000000  0.4733380000000 1.0
C      1  0.4965110000000  0.5468660000000  0.4136360000000 1.0
C      1  0.4987940000000  0.5475280000000  0.5881390000000 1.0
C      1  0.4256070000000  0.5273070000000  0.5487580000000 1.0
C      1  0.4232540000000  0.5205240000000  0.4519330000000 1.0
C      1  0.5559160000000  0.4348940000000  0.5695920000000 1.0
C      1  0.5568700000000  0.4349490000000  0.4310270000000 1.0
C      1  0.5295180000000  0.4704660000000  0.5277150000000 1.0
C      1  0.5295590000000  0.4692080000000  0.4719710000000 1.0
C      1  0.4652890000000  0.5134780000000  0.4775560000000 1.0
C      1  0.4606300000000  0.5143640000000  0.5253350000000 1.0
C      1  0.5764410000000  0.4505840000000  0.4728200000000 1.0
C      1  0.5759380000000  0.4502080000000  0.5271490000000 1.0
C      1  0.5587740000000  0.5121440000000  0.4230880000000 1.0
C      1  0.5597600000000  0.5117020000000  0.5770730000000 1.0
C      1  0.4926930000000  0.4819930000000  0.4453040000000 1.0
C      1  0.4922780000000  0.4834790000000  0.5549100000000 1.0
C      1  0.5042060000000  0.5812830000000  0.4405910000000 1.0
C      1  0.5061120000000  0.5818530000000  0.5608720000000 1.0
C      1  0.5311190000000  0.4339620000000  0.4193580000000 1.0
C      1  0.5293820000000  0.4339220000000  0.5795780000000 1.0
C      1  0.4455060000000  0.4891650000000  0.5139370000000 1.0
C      1  0.4485920000000  0.4892250000000  0.4826320000000 1.0
C      1  0.4658890000000  0.5872830000000  0.5367040000000 1.0
C      1  0.4637560000000  0.5837730000000  0.4659740000000 1.0
C      1  0.3997250000000  0.5134430000000  0.4654860000000 1.0
C      1  0.4226480000000  0.5259130000000  0.5209160000000 1.0
C      1  0.4807530000000  0.4404280000000  0.5748890000000 1.0
C      1  0.4806150000000  0.4384050000000  0.4222700000000 1.0
C      1  0.4690240000000  0.4236490000000  0.4560870000000 1.0
C      1  0.4678650000000  0.4187450000000  0.5457240000000 1.0
END
