TITL C-3578195-8548-664 2.27480805766715e-07 125000 -843.859363104176 0 0 136 (C1) n - 1
REM
REM in /home/bkarasulu/work/CARBON/AIRSS/Generating-Clusters/EDIP-Nigel-Params/with-SteepDescent/Higher-Symm/SD-CG/HFTN-CG
REM
REM
REM
REM
REM
REM ./C.cell (12c818d87b63d06a65506943cc24bca4)
REM
REM compiler GCC version 9.2.1 20190827 (Red Hat 9.2.1-1)
REM options -cpp -mtune=generic -march=x86-64 -g -O0 -fpre-include=/usr/include/finclude/math-vector-fortran.h
REM seed 778935271 576405504 -473689933 -2003637141 1411843849 2136683523 1198208888 1257417835 -1488519209 -1468701944 -749933821 -1343990208 -1519649459 -1332028465 -407760807 -1089277486 941121644 -1448933270 1624632208 -838753889 -79787456 1002613653 -238430379 -310597648 -576557617 -239538533 -1578196276 1202419972 1755996055 -29483629 2112368495 -2029849811 -1410180548
REM
CELL 1.54180   50.00000   50.00000   50.00000   90.00000   90.00000   90.00000
LATT -1
SFAC C  
C      1  0.5439420000000  0.4995260000000  0.5395520000000 1.0
C      1  0.5473170000000  0.5386190000000  0.4710540000000 1.0
C      1  0.5466220000000  0.4600580000000  0.4812060000000 1.0
C      1  0.5864110000000  0.5470850000000  0.5256380000000 1.0
C      1  0.5905080000000  0.4971370000000  0.4526930000000 1.0
C      1  0.5890650000000  0.4449060000000  0.5299640000000 1.0
C      1  0.5839470000000  0.5265520000000  0.5040600000000 1.0
C      1  0.5866290000000  0.4856980000000  0.4810430000000 1.0
C      1  0.5891280000000  0.4978010000000  0.5177690000000 1.0
C      1  0.4889840000000  0.4147410000000  0.5248210000000 1.0
C      1  0.4948000000000  0.5710180000000  0.5633020000000 1.0
C      1  0.4893710000000  0.5223380000000  0.4137710000000 1.0
C      1  0.4203410000000  0.4662680000000  0.4347390000000 1.0
C      1  0.4202970000000  0.4598830000000  0.5640850000000 1.0
C      1  0.4192070000000  0.5756120000000  0.5057290000000 1.0
C      1  0.5262060000000  0.5450020000000  0.5309150000000 1.0
C      1  0.5253210000000  0.4835870000000  0.4464930000000 1.0
C      1  0.5176950000000  0.4492450000000  0.5269100000000 1.0
C      1  0.4548060000000  0.4615350000000  0.5149090000000 1.0
C      1  0.4571450000000  0.5298740000000  0.5259150000000 1.0
C      1  0.4547790000000  0.5080520000000  0.4606030000000 1.0
C      1  0.5374390000000  0.5202280000000  0.4222350000000 1.0
C      1  0.5352800000000  0.4094550000000  0.5180110000000 1.0
C      1  0.5283600000000  0.5695920000000  0.5672290000000 1.0
C      1  0.4461170000000  0.5829390000000  0.5065750000000 1.0
C      1  0.4470420000000  0.4644610000000  0.4264900000000 1.0
C      1  0.4471970000000  0.4544020000000  0.5696250000000 1.0
C      1  0.5594830000000  0.4786460000000  0.5250810000000 1.0
C      1  0.5545500000000  0.5273380000000  0.4981710000000 1.0
C      1  0.5559470000000  0.4880650000000  0.4784920000000 1.0
C      1  0.5864120000000  0.5059530000000  0.5486050000000 1.0
C      1  0.5909750000000  0.5412220000000  0.4771850000000 1.0
C      1  0.5901980000000  0.4554300000000  0.4795380000000 1.0
C      1  0.5075250000000  0.5159800000000  0.5939720000000 1.0
C      1  0.5058100000000  0.5730030000000  0.4392680000000 1.0
C      1  0.5080540000000  0.4165260000000  0.4661690000000 1.0
C      1  0.5005490000000  0.5388130000000  0.4661080000000 1.0
C      1  0.5016420000000  0.4558660000000  0.4850240000000 1.0
C      1  0.5009370000000  0.5061380000000  0.5492080000000 1.0
C      1  0.4360940000000  0.4864550000000  0.4767070000000 1.0
C      1  0.4362770000000  0.4862170000000  0.5248740000000 1.0
C      1  0.4366260000000  0.5282640000000  0.5006860000000 1.0
C      1  0.5030460000000  0.4703890000000  0.4105130000000 1.0
C      1  0.5021090000000  0.4365480000000  0.5724310000000 1.0
C      1  0.5021510000000  0.5925290000000  0.5148730000000 1.0
C      1  0.5855510000000  0.5261510000000  0.4528040000000 1.0
C      1  0.5882690000000  0.4370330000000  0.5029180000000 1.0
C      1  0.5800670000000  0.5343260000000  0.5506930000000 1.0
C      1  0.5515280000000  0.4049010000000  0.4955340000000 1.0
C      1  0.5452310000000  0.5485300000000  0.5807110000000 1.0
C      1  0.5537490000000  0.5434710000000  0.4277240000000 1.0
C      1  0.5047740000000  0.5105510000000  0.5050800000000 1.0
C      1  0.5055900000000  0.5113470000000  0.4747750000000 1.0
C      1  0.4975640000000  0.4800310000000  0.5053290000000 1.0
C      1  0.4597120000000  0.5023260000000  0.5872640000000 1.0
C      1  0.4559850000000  0.5743190000000  0.4552690000000 1.0
C      1  0.4594920000000  0.4263800000000  0.4577680000000 1.0
C      1  0.5785560000000  0.4114440000000  0.4976130000000 1.0
C      1  0.5723490000000  0.5484940000000  0.5736240000000 1.0
C      1  0.5818810000000  0.5404990000000  0.4288660000000 1.0
C      1  0.4836460000000  0.5323900000000  0.5113370000000 1.0
C      1  0.4821650000000  0.4957510000000  0.4624090000000 1.0
C      1  0.4826810000000  0.4675470000000  0.5271140000000 1.0
C      1  0.5114100000000  0.5300530000000  0.4300110000000 1.0
C      1  0.5111920000000  0.4252820000000  0.5090630000000 1.0
C      1  0.5109790000000  0.5366130000000  0.5552860000000 1.0
C      1  0.4555960000000  0.4332450000000  0.5518460000000 1.0
C      1  0.4576690000000  0.5774380000000  0.5325220000000 1.0
C      1  0.4550640000000  0.4901390000000  0.4162470000000 1.0
C      1  0.5718040000000  0.5661230000000  0.4841900000000 1.0
C      1  0.5732570000000  0.4514450000000  0.4535000000000 1.0
C      1  0.5716220000000  0.4876900000000  0.5667740000000 1.0
C      1  0.5295630000000  0.4309320000000  0.5704200000000 1.0
C      1  0.5290550000000  0.5934620000000  0.5204660000000 1.0
C      1  0.5305330000000  0.4741170000000  0.4034100000000 1.0
C      1  0.4389830000000  0.5101050000000  0.5681790000000 1.0
C      1  0.4358020000000  0.5542170000000  0.4593580000000 1.0
C      1  0.4379520000000  0.4376650000000  0.4738410000000 1.0
C      1  0.5349160000000  0.5063060000000  0.4642410000000 1.0
C      1  0.5381580000000  0.4639660000000  0.5102400000000 1.0
C      1  0.5333260000000  0.5198470000000  0.5178180000000 1.0
C      1  0.4518090000000  0.5347590000000  0.4756940000000 1.0
C      1  0.4522990000000  0.4623740000000  0.4837290000000 1.0
C      1  0.4526300000000  0.5041040000000  0.5420500000000 1.0
C      1  0.4150760000000  0.5427310000000  0.5413340000000 1.0
C      1  0.4117910000000  0.5134380000000  0.4435000000000 1.0
C      1  0.4126490000000  0.4432820000000  0.5184770000000 1.0
C      1  0.4778810000000  0.4665410000000  0.4676700000000 1.0
C      1  0.4770180000000  0.4881780000000  0.5483790000000 1.0
C      1  0.4781610000000  0.5466420000000  0.4852110000000 1.0
C      1  0.5697330000000  0.5692170000000  0.5157180000000 1.0
C      1  0.5732490000000  0.4779880000000  0.4356610000000 1.0
C      1  0.5668580000000  0.4561100000000  0.5444610000000 1.0
C      1  0.4764470000000  0.5621040000000  0.4379180000000 1.0
C      1  0.4796950000000  0.4203010000000  0.4782920000000 1.0
C      1  0.4804940000000  0.5235230000000  0.5844180000000 1.0
C      1  0.4731220000000  0.5491430000000  0.5692560000000 1.0
C      1  0.4661290000000  0.5378050000000  0.4226690000000 1.0
C      1  0.4668920000000  0.4157400000000  0.5060900000000 1.0
C      1  0.4034350000000  0.4616330000000  0.5415020000000 1.0
C      1  0.4039970000000  0.5541330000000  0.5155520000000 1.0
C      1  0.4030170000000  0.4845340000000  0.4473900000000 1.0
C      1  0.4058140000000  0.5154220000000  0.5500010000000 1.0
C      1  0.4033340000000  0.5342730000000  0.4637820000000 1.0
C      1  0.4053490000000  0.4501820000000  0.4897830000000 1.0
C      1  0.4066800000000  0.4769190000000  0.4761200000000 1.0
C      1  0.4070470000000  0.4902720000000  0.5335570000000 1.0
C      1  0.4066570000000  0.5334890000000  0.4938020000000 1.0
C      1  0.5192210000000  0.4818390000000  0.5813570000000 1.0
C      1  0.5121590000000  0.5910050000000  0.4637240000000 1.0
C      1  0.5149920000000  0.4290310000000  0.4381850000000 1.0
C      1  0.5230470000000  0.4582990000000  0.4630310000000 1.0
C      1  0.5213320000000  0.4859520000000  0.5517680000000 1.0
C      1  0.5223090000000  0.5557400000000  0.4763630000000 1.0
C      1  0.4697230000000  0.4500920000000  0.4415110000000 1.0
C      1  0.4697230000000  0.4749220000000  0.5756410000000 1.0
C      1  0.4650480000000  0.5834420000000  0.4828380000000 1.0
C      1  0.5357420000000  0.5219160000000  0.5880180000000 1.0
C      1  0.5395950000000  0.5675320000000  0.4384920000000 1.0
C      1  0.5373830000000  0.4178000000000  0.4741570000000 1.0
C      1  0.4498160000000  0.5520730000000  0.5465910000000 1.0
C      1  0.4453810000000  0.5143500000000  0.4316950000000 1.0
C      1  0.4452770000000  0.4337570000000  0.5232840000000 1.0
C      1  0.5429360000000  0.5712740000000  0.5316350000000 1.0
C      1  0.5440770000000  0.4891450000000  0.4241630000000 1.0
C      1  0.5411140000000  0.4364490000000  0.5450190000000 1.0
C      1  0.5505290000000  0.5809030000000  0.4641440000000 1.0
C      1  0.5520020000000  0.4292190000000  0.4513300000000 1.0
C      1  0.5535510000000  0.4981850000000  0.5879550000000 1.0
C      1  0.4939730000000  0.5876710000000  0.4873860000000 1.0
C      1  0.4944480000000  0.4458910000000  0.4248490000000 1.0
C      1  0.4959920000000  0.4623570000000  0.5860390000000 1.0
C      1  0.4855730000000  0.5834610000000  0.5371450000000 1.0
C      1  0.4836710000000  0.4933690000000  0.4119150000000 1.0
C      1  0.4841550000000  0.4301710000000  0.5495780000000 1.0
C      1  0.4350040000000  0.5002920000000  0.5007630000000 1.0
END
