TITL C-3577084-3642-212 -2.98074236253686e-05 125000 -262.899099261378 0 0 44 (C1) n - 1
REM
REM in /home/bkarasulu/work/CARBON/AIRSS/Generating-Clusters/EDIP-Nigel-Params/with-SteepDescent/Higher-Symm/SD-CG/HFTN-CG
REM
REM
REM
REM
REM
REM ./C.cell (12c818d87b63d06a65506943cc24bca4)
REM
REM compiler GCC version 9.2.1 20190827 (Red Hat 9.2.1-1)
REM options -cpp -mtune=generic -march=x86-64 -g -O0 -fpre-include=/usr/include/finclude/math-vector-fortran.h
REM seed 1859232427 1172738704 -1688941477 2104689399 -1571279376 -758073190 -1306891554 -928713306 863962088 768485337 34126612 -813660164 1893597614 -2093102449 -1116371080 30220015 -1973071170 1800553184 1636735395 1067738250 -1027325748 782206686 -1094370055 280597212 103104766 -306330629 885129199 -1502914656 -530197816 -292202582 907785727 -1073506444 -1742468355
REM
CELL 1.54180   50.00000   50.00000   50.00000   90.00000   90.00000   90.00000
LATT -1
SFAC C  
C      1  0.4612340000000  0.5203820000000  0.5357460000000 1.0
C      1  0.5503940000000  0.4448030000000  0.4755110000000 1.0
C      1  0.4734470000000  0.4506050000000  0.5177490000000 1.0
C      1  0.4423130000000  0.4846350000000  0.5672650000000 1.0
C      1  0.4720680000000  0.5543470000000  0.4683100000000 1.0
C      1  0.5140810000000  0.5162810000000  0.4841810000000 1.0
C      1  0.5266690000000  0.4718120000000  0.4493820000000 1.0
C      1  0.5710240000000  0.4883350000000  0.4720720000000 1.0
C      1  0.4532110000000  0.5325090000000  0.4597640000000 1.0
C      1  0.4905420000000  0.5601450000000  0.5396300000000 1.0
C      1  0.4931850000000  0.5376210000000  0.4404500000000 1.0
C      1  0.5646440000000  0.4828970000000  0.4992590000000 1.0
C      1  0.5265370000000  0.4312150000000  0.4678930000000 1.0
C      1  0.5135880000000  0.4947690000000  0.4379780000000 1.0
C      1  0.5501220000000  0.4576010000000  0.5028590000000 1.0
C      1  0.5045320000000  0.5211590000000  0.5638520000000 1.0
C      1  0.5459480000000  0.4975430000000  0.5444150000000 1.0
C      1  0.5110060000000  0.5258930000000  0.5126370000000 1.0
C      1  0.5222400000000  0.4814100000000  0.5368320000000 1.0
C      1  0.4920730000000  0.5003540000000  0.4698510000000 1.0
C      1  0.5331480000000  0.5242780000000  0.5540910000000 1.0
C      1  0.5316540000000  0.5286830000000  0.4658820000000 1.0
C      1  0.5005980000000  0.5014560000000  0.5318980000000 1.0
C      1  0.4757340000000  0.5156620000000  0.4482270000000 1.0
C      1  0.4393840000000  0.5200430000000  0.4845700000000 1.0
C      1  0.5635250000000  0.5030520000000  0.5206980000000 1.0
C      1  0.4817940000000  0.5360750000000  0.5518390000000 1.0
C      1  0.5188150000000  0.5234830000000  0.4409380000000 1.0
C      1  0.4525840000000  0.4699160000000  0.4808810000000 1.0
C      1  0.4715450000000  0.4912710000000  0.4908000000000 1.0
C      1  0.5009390000000  0.4451520000000  0.5109480000000 1.0
C      1  0.4833340000000  0.4797600000000  0.5156540000000 1.0
C      1  0.4565610000000  0.5289710000000  0.5073930000000 1.0
C      1  0.5612120000000  0.5307330000000  0.5146850000000 1.0
C      1  0.5357560000000  0.5368440000000  0.5264640000000 1.0
C      1  0.4286810000000  0.4816250000000  0.5441700000000 1.0
C      1  0.4532630000000  0.4478860000000  0.4983460000000 1.0
C      1  0.5547220000000  0.4691000000000  0.4583590000000 1.0
C      1  0.5237970000000  0.4618780000000  0.5152390000000 1.0
C      1  0.4716420000000  0.5516250000000  0.4974260000000 1.0
C      1  0.4332040000000  0.4912920000000  0.4824270000000 1.0
C      1  0.4397440000000  0.5070640000000  0.5500920000000 1.0
C      1  0.5133600000000  0.4471900000000  0.4501250000000 1.0
C      1  0.4961480000000  0.5526440000000  0.5132110000000 1.0
END
