TITL C-3578203-1966-609 -4.04333095212846e-07 125000 -227.146158729546 0 0 38 (C1) n - 1
REM
REM in /home/bkarasulu/work/CARBON/AIRSS/Generating-Clusters/EDIP-Nigel-Params/with-SteepDescent/Higher-Symm/SD-CG/HFTN-CG
REM
REM
REM
REM
REM
REM ./C.cell (12c818d87b63d06a65506943cc24bca4)
REM
REM compiler GCC version 9.2.1 20190827 (Red Hat 9.2.1-1)
REM options -cpp -mtune=generic -march=x86-64 -g -O0 -fpre-include=/usr/include/finclude/math-vector-fortran.h
REM seed 223425402 -36738463 1879053688 2072171973 -1907769225 2124155546 -356903774 -513142639 1793311167 2011134558 368098289 -1714211653 -1157356733 2018164604 1750833321 994462657 788511691 1427574542 -930556599 -54866817 985262490 -1372138867 -1958361087 1854530227 1244661269 1233655480 1428911628 965677528 -473781241 1352680342 -1371244309 -1007940423 -767778094
REM
CELL 1.54180   50.00000   50.00000   50.00000   90.00000   90.00000   90.00000
LATT -1
SFAC C  
C      1  0.4859480000000  0.4945750000000  0.5631540000000 1.0
C      1  0.4690340000000  0.4816110000000  0.4799930000000 1.0
C      1  0.5081920000000  0.4773410000000  0.5646950000000 1.0
C      1  0.4765050000000  0.5391540000000  0.5361250000000 1.0
C      1  0.5307230000000  0.4599810000000  0.4775460000000 1.0
C      1  0.5047600000000  0.4338860000000  0.5087500000000 1.0
C      1  0.5547370000000  0.5316660000000  0.4981650000000 1.0
C      1  0.4944110000000  0.5592400000000  0.5271790000000 1.0
C      1  0.4874780000000  0.5051820000000  0.4915560000000 1.0
C      1  0.5239590000000  0.5219060000000  0.5385950000000 1.0
C      1  0.5212180000000  0.5176200000000  0.4547000000000 1.0
C      1  0.5070570000000  0.4569500000000  0.4622250000000 1.0
C      1  0.5351150000000  0.4688340000000  0.5237220000000 1.0
C      1  0.4727390000000  0.5325880000000  0.4892310000000 1.0
C      1  0.5150490000000  0.5071760000000  0.4818810000000 1.0
C      1  0.5011460000000  0.5382660000000  0.4475730000000 1.0
C      1  0.4780620000000  0.5205540000000  0.4437430000000 1.0
C      1  0.5323290000000  0.4797870000000  0.5502410000000 1.0
C      1  0.4628620000000  0.4621600000000  0.5040510000000 1.0
C      1  0.4617090000000  0.4822850000000  0.5542650000000 1.0
C      1  0.5362730000000  0.4882910000000  0.4905360000000 1.0
C      1  0.5164920000000  0.5607230000000  0.5113270000000 1.0
C      1  0.4559370000000  0.5344810000000  0.5138270000000 1.0
C      1  0.5286890000000  0.4476010000000  0.5047320000000 1.0
C      1  0.4881980000000  0.4958860000000  0.5189940000000 1.0
C      1  0.4432850000000  0.5064890000000  0.5104380000000 1.0
C      1  0.4942500000000  0.5145130000000  0.5410130000000 1.0
C      1  0.5433760000000  0.5053650000000  0.5505600000000 1.0
C      1  0.4614520000000  0.4850480000000  0.5246980000000 1.0
C      1  0.4565220000000  0.5244690000000  0.4655270000000 1.0
C      1  0.4444390000000  0.5000080000000  0.4787700000000 1.0
C      1  0.5595810000000  0.5067480000000  0.4827680000000 1.0
C      1  0.4890740000000  0.4925740000000  0.4369120000000 1.0
C      1  0.5500560000000  0.5246990000000  0.4606380000000 1.0
C      1  0.4788880000000  0.4402260000000  0.5086610000000 1.0
C      1  0.4830270000000  0.4704650000000  0.4556900000000 1.0
C      1  0.5178300000000  0.4958910000000  0.4345760000000 1.0
C      1  0.5295960000000  0.5357610000000  0.5129410000000 1.0
END
