TITL C-3578200-9634-801 1.70443315882246e-07 125000 -264.115405744441 0 0 45 (C1) n - 1
REM
REM in /home/bkarasulu/work/CARBON/AIRSS/Generating-Clusters/EDIP-Nigel-Params/with-SteepDescent/Higher-Symm/SD-CG/HFTN-CG
REM
REM
REM
REM
REM
REM ./C.cell (12c818d87b63d06a65506943cc24bca4)
REM
REM compiler GCC version 9.2.1 20190827 (Red Hat 9.2.1-1)
REM options -cpp -mtune=generic -march=x86-64 -g -O0 -fpre-include=/usr/include/finclude/math-vector-fortran.h
REM seed -884838519 -1390127984 508247173 -1136427882 -1839287233 -1713027713 -1936222382 1810128698 -1463631311 -2095804399 -1354803705 503762241 49584778 -706306151 -917689518 -28425386 1963700135 604033480 513127852 -1169592766 -1910279008 175244179 210477149 -1299075756 -1120700260 -338254292 -347062257 2131005858 -1528314099 -674290414 -1751269750 1749867463 568979874
REM
CELL 1.54180   50.00000   50.00000   50.00000   90.00000   90.00000   90.00000
LATT -1
SFAC C  
C      1  0.5087450000000  0.5612700000000  0.5204770000000 1.0
C      1  0.4428700000000  0.4782550000000  0.5182760000000 1.0
C      1  0.5551200000000  0.4624060000000  0.5135000000000 1.0
C      1  0.5340020000000  0.5235910000000  0.5429220000000 1.0
C      1  0.4438180000000  0.5272980000000  0.5350390000000 1.0
C      1  0.5113670000000  0.4615610000000  0.5431210000000 1.0
C      1  0.4569520000000  0.4541160000000  0.4711430000000 1.0
C      1  0.5615610000000  0.4869680000000  0.4650820000000 1.0
C      1  0.4801950000000  0.5600570000000  0.4723570000000 1.0
C      1  0.4846000000000  0.4514680000000  0.5452550000000 1.0
C      1  0.5530610000000  0.5030810000000  0.5469080000000 1.0
C      1  0.4596580000000  0.5492510000000  0.5384240000000 1.0
C      1  0.4827220000000  0.4431790000000  0.4757250000000 1.0
C      1  0.5581950000000  0.5147590000000  0.4722940000000 1.0
C      1  0.4588580000000  0.5420890000000  0.4777810000000 1.0
C      1  0.4700290000000  0.4707260000000  0.5297340000000 1.0
C      1  0.5546600000000  0.4914610000000  0.5209900000000 1.0
C      1  0.4868550000000  0.5434050000000  0.5336780000000 1.0
C      1  0.5030590000000  0.4560900000000  0.4919800000000 1.0
C      1  0.5368320000000  0.5255020000000  0.4909580000000 1.0
C      1  0.4626500000000  0.5186330000000  0.4945530000000 1.0
C      1  0.4888520000000  0.5241940000000  0.5103800000000 1.0
C      1  0.4856140000000  0.4777270000000  0.5056920000000 1.0
C      1  0.5307700000000  0.4977520000000  0.5027540000000 1.0
C      1  0.4771380000000  0.4834430000000  0.4346540000000 1.0
C      1  0.5233010000000  0.4927750000000  0.4315650000000 1.0
C      1  0.4921890000000  0.5280280000000  0.4343650000000 1.0
C      1  0.5368590000000  0.4769300000000  0.4511400000000 1.0
C      1  0.5005450000000  0.5460830000000  0.4549200000000 1.0
C      1  0.4595920000000  0.4802840000000  0.4570300000000 1.0
C      1  0.5091100000000  0.5275680000000  0.4774200000000 1.0
C      1  0.4737500000000  0.4941420000000  0.4802020000000 1.0
C      1  0.5194780000000  0.4789730000000  0.4761540000000 1.0
C      1  0.4409440000000  0.5090860000000  0.5136110000000 1.0
C      1  0.5278290000000  0.4517780000000  0.5202280000000 1.0
C      1  0.5331690000000  0.5419590000000  0.5194190000000 1.0
C      1  0.5631170000000  0.4665540000000  0.4856620000000 1.0
C      1  0.4960750000000  0.5665270000000  0.4951460000000 1.0
C      1  0.4427610000000  0.4624340000000  0.4943180000000 1.0
C      1  0.4773100000000  0.5081620000000  0.5856270000000 1.0
C      1  0.5000540000000  0.5006920000000  0.4682740000000 1.0
C      1  0.5040400000000  0.4988330000000  0.5176140000000 1.0
C      1  0.5111610000000  0.4923610000000  0.5467940000000 1.0
C      1  0.4914550000000  0.4998730000000  0.5658550000000 1.0
C      1  0.4969450000000  0.5015310000000  0.4248210000000 1.0
END
