TITL C-3577089-586-473 -1.23704233944103e-06 125000 -1161.49047358724 0 0 183 (C1) n - 1
REM
REM in /home/bkarasulu/work/CARBON/AIRSS/Generating-Clusters/EDIP-Nigel-Params/with-SteepDescent/Higher-Symm/SD-CG/HFTN-CG
REM
REM
REM
REM
REM
REM ./C.cell (12c818d87b63d06a65506943cc24bca4)
REM
REM compiler GCC version 9.2.1 20190827 (Red Hat 9.2.1-1)
REM options -cpp -mtune=generic -march=x86-64 -g -O0 -fpre-include=/usr/include/finclude/math-vector-fortran.h
REM seed -1306351962 545585315 -38922222 864617392 -124403346 281298470 -1990051555 -999586510 1106277345 2108042004 -1479418305 -656156031 1936727425 -1749084609 -1934250854 1968559824 -1082717750 1652453746 -1929447626 1055274263 -2082295617 1223809743 2050024869 -45392589 -1600703069 1027892617 -493363125 -612353977 2067680175 -1224334872 -1992516287 787397220 1833611541
REM
CELL 1.54180   50.00000   50.00000   50.00000   90.00000   90.00000   90.00000
LATT -1
SFAC C  
C      1  0.4518200000000  0.5930460000000  0.5587060000000 1.0
C      1  0.6045280000000  0.4959450000000  0.5557230000000 1.0
C      1  0.4432450000000  0.4049800000000  0.5575680000000 1.0
C      1  0.4569380000000  0.5876910000000  0.4423070000000 1.0
C      1  0.6042290000000  0.4927230000000  0.4408280000000 1.0
C      1  0.4434040000000  0.4259770000000  0.4462070000000 1.0
C      1  0.5393350000000  0.5894550000000  0.5534050000000 1.0
C      1  0.3964310000000  0.4939420000000  0.5565150000000 1.0
C      1  0.5573630000000  0.4056430000000  0.5575260000000 1.0
C      1  0.5540960000000  0.5850720000000  0.4360580000000 1.0
C      1  0.3981230000000  0.4962790000000  0.4425070000000 1.0
C      1  0.5564760000000  0.4230710000000  0.4461610000000 1.0
C      1  0.5529320000000  0.5024670000000  0.4849730000000 1.0
C      1  0.4744440000000  0.4572730000000  0.4904750000000 1.0
C      1  0.4700050000000  0.5507650000000  0.4893380000000 1.0
C      1  0.5534650000000  0.5018430000000  0.5151850000000 1.0
C      1  0.4773770000000  0.4519300000000  0.5287460000000 1.0
C      1  0.4711630000000  0.5507040000000  0.5206970000000 1.0
C      1  0.4480240000000  0.5025720000000  0.4880320000000 1.0
C      1  0.5262170000000  0.4573490000000  0.4884660000000 1.0
C      1  0.5328440000000  0.5499990000000  0.4823030000000 1.0
C      1  0.4470770000000  0.5004010000000  0.5177000000000 1.0
C      1  0.5208860000000  0.4523520000000  0.5232560000000 1.0
C      1  0.5246420000000  0.5512570000000  0.5119000000000 1.0
C      1  0.5269080000000  0.4034140000000  0.5558680000000 1.0
C      1  0.4117140000000  0.5201300000000  0.5556760000000 1.0
C      1  0.5557130000000  0.5649550000000  0.5517000000000 1.0
C      1  0.5266260000000  0.4210860000000  0.4462370000000 1.0
C      1  0.4171170000000  0.5202040000000  0.4451900000000 1.0
C      1  0.5606240000000  0.5570090000000  0.4422540000000 1.0
C      1  0.4736650000000  0.4037530000000  0.5555240000000 1.0
C      1  0.5877940000000  0.5217700000000  0.5537290000000 1.0
C      1  0.4366070000000  0.5671290000000  0.5560310000000 1.0
C      1  0.4729920000000  0.4221930000000  0.4464350000000 1.0
C      1  0.5869240000000  0.5176130000000  0.4422940000000 1.0
C      1  0.4459340000000  0.5604300000000  0.4460030000000 1.0
C      1  0.4689180000000  0.5901250000000  0.5808490000000 1.0
C      1  0.5948370000000  0.4780820000000  0.5753070000000 1.0
C      1  0.4344560000000  0.4229470000000  0.5774260000000 1.0
C      1  0.4746960000000  0.5911540000000  0.4207260000000 1.0
C      1  0.5973150000000  0.4783840000000  0.4178530000000 1.0
C      1  0.4292000000000  0.4349580000000  0.4242660000000 1.0
C      1  0.5236770000000  0.5899460000000  0.5765630000000 1.0
C      1  0.4057110000000  0.4760310000000  0.5763450000000 1.0
C      1  0.5662000000000  0.4242770000000  0.5768030000000 1.0
C      1  0.5342700000000  0.5897700000000  0.4164830000000 1.0
C      1  0.4042570000000  0.4822530000000  0.4191800000000 1.0
C      1  0.5701420000000  0.4327570000000  0.4242530000000 1.0
C      1  0.4743030000000  0.5508100000000  0.3934210000000 1.0
C      1  0.5582000000000  0.4999540000000  0.3971100000000 1.0
C      1  0.4716010000000  0.4542830000000  0.4084910000000 1.0
C      1  0.4708060000000  0.5452740000000  0.6023470000000 1.0
C      1  0.5561130000000  0.4965560000000  0.5968490000000 1.0
C      1  0.4720620000000  0.4469420000000  0.5947910000000 1.0
C      1  0.5298370000000  0.5492770000000  0.3905930000000 1.0
C      1  0.4443040000000  0.5030570000000  0.4003540000000 1.0
C      1  0.5288430000000  0.4530900000000  0.4077960000000 1.0
C      1  0.5261080000000  0.5463740000000  0.5999940000000 1.0
C      1  0.4430730000000  0.4938200000000  0.6016040000000 1.0
C      1  0.5287000000000  0.4479810000000  0.5940530000000 1.0
C      1  0.5714470000000  0.5619470000000  0.5273010000000 1.0
C      1  0.5154950000000  0.3957880000000  0.5295230000000 1.0
C      1  0.4092690000000  0.5350650000000  0.5302140000000 1.0
C      1  0.5662280000000  0.5525200000000  0.4712610000000 1.0
C      1  0.5150880000000  0.3938140000000  0.4675890000000 1.0
C      1  0.4131980000000  0.5353790000000  0.4711120000000 1.0
C      1  0.4224420000000  0.5628670000000  0.5303580000000 1.0
C      1  0.4847590000000  0.3969150000000  0.5289720000000 1.0
C      1  0.5907190000000  0.5375340000000  0.5281470000000 1.0
C      1  0.4382340000000  0.5550830000000  0.4744410000000 1.0
C      1  0.4837400000000  0.3941380000000  0.4672390000000 1.0
C      1  0.5910000000000  0.5333000000000  0.4675350000000 1.0
C      1  0.5396560000000  0.4047200000000  0.4850150000000 1.0
C      1  0.4004910000000  0.5126350000000  0.4855640000000 1.0
C      1  0.5698330000000  0.5815760000000  0.4822800000000 1.0
C      1  0.5398590000000  0.4002410000000  0.5133050000000 1.0
C      1  0.3948420000000  0.5146010000000  0.5136870000000 1.0
C      1  0.5629680000000  0.5850140000000  0.5106190000000 1.0
C      1  0.4596100000000  0.4052440000000  0.4849090000000 1.0
C      1  0.6010080000000  0.5112510000000  0.4839500000000 1.0
C      1  0.4349130000000  0.5839100000000  0.4859350000000 1.0
C      1  0.4598390000000  0.4004770000000  0.5132340000000 1.0
C      1  0.6035810000000  0.5145610000000  0.5125150000000 1.0
C      1  0.4369170000000  0.5845710000000  0.5151180000000 1.0
C      1  0.5582150000000  0.5481960000000  0.3891520000000 1.0
C      1  0.5144300000000  0.4316710000000  0.4207660000000 1.0
C      1  0.4311440000000  0.5279850000000  0.3966900000000 1.0
C      1  0.5539890000000  0.5458230000000  0.5954530000000 1.0
C      1  0.5147170000000  0.4234830000000  0.5931660000000 1.0
C      1  0.4294800000000  0.5185810000000  0.6016760000000 1.0
C      1  0.4458910000000  0.5514240000000  0.3931220000000 1.0
C      1  0.4855260000000  0.4323560000000  0.4210670000000 1.0
C      1  0.5721990000000  0.5242900000000  0.3927090000000 1.0
C      1  0.4428110000000  0.5432770000000  0.5981800000000 1.0
C      1  0.4865440000000  0.4228930000000  0.5932400000000 1.0
C      1  0.5688680000000  0.5218500000000  0.5938150000000 1.0
C      1  0.3867730000000  0.4611220000000  0.5133800000000 1.0
C      1  0.5105010000000  0.6221500000000  0.5190880000000 1.0
C      1  0.5903890000000  0.4362530000000  0.5147720000000 1.0
C      1  0.3903700000000  0.4594110000000  0.4826940000000 1.0
C      1  0.5028180000000  0.6178000000000  0.4892240000000 1.0
C      1  0.5937350000000  0.4298060000000  0.4842860000000 1.0
C      1  0.6127080000000  0.4615090000000  0.5137600000000 1.0
C      1  0.4763500000000  0.6220240000000  0.5187240000000 1.0
C      1  0.4089240000000  0.4358000000000  0.5143890000000 1.0
C      1  0.6102110000000  0.4584600000000  0.4829430000000 1.0
C      1  0.4719270000000  0.6222090000000  0.4868440000000 1.0
C      1  0.4063590000000  0.4305740000000  0.4836560000000 1.0
C      1  0.5401230000000  0.5402440000000  0.5596130000000 1.0
C      1  0.5157490000000  0.4318340000000  0.5554450000000 1.0
C      1  0.4407250000000  0.5167130000000  0.5645620000000 1.0
C      1  0.5526650000000  0.5338750000000  0.4249820000000 1.0
C      1  0.5143810000000  0.4376750000000  0.4700780000000 1.0
C      1  0.4485970000000  0.5071420000000  0.4441530000000 1.0
C      1  0.4553830000000  0.5439350000000  0.5617850000000 1.0
C      1  0.4852300000000  0.4323980000000  0.5557230000000 1.0
C      1  0.5580940000000  0.5149200000000  0.5575050000000 1.0
C      1  0.4517990000000  0.5365810000000  0.4285230000000 1.0
C      1  0.4858670000000  0.4378490000000  0.4708270000000 1.0
C      1  0.5535090000000  0.5047720000000  0.4409520000000 1.0
C      1  0.5572800000000  0.4534620000000  0.4113300000000 1.0
C      1  0.4290930000000  0.4796090000000  0.4069190000000 1.0
C      1  0.5174470000000  0.5723340000000  0.4027830000000 1.0
C      1  0.5565760000000  0.4479500000000  0.5879410000000 1.0
C      1  0.4297280000000  0.4711930000000  0.5897360000000 1.0
C      1  0.5116210000000  0.5700880000000  0.5918380000000 1.0
C      1  0.4433620000000  0.4559270000000  0.4131450000000 1.0
C      1  0.5725780000000  0.4764110000000  0.4050830000000 1.0
C      1  0.4887380000000  0.5732450000000  0.4044920000000 1.0
C      1  0.4441070000000  0.4463510000000  0.5890090000000 1.0
C      1  0.5701590000000  0.4733190000000  0.5873460000000 1.0
C      1  0.4834290000000  0.5695350000000  0.5929500000000 1.0
C      1  0.4039540000000  0.4857250000000  0.4708410000000 1.0
C      1  0.5491860000000  0.5941380000000  0.4640080000000 1.0
C      1  0.5633250000000  0.4268950000000  0.4746410000000 1.0
C      1  0.3977460000000  0.4875060000000  0.5268140000000 1.0
C      1  0.5316100000000  0.5976570000000  0.5250540000000 1.0
C      1  0.5602220000000  0.4156440000000  0.5292820000000 1.0
C      1  0.5973340000000  0.4840720000000  0.4697630000000 1.0
C      1  0.4595180000000  0.5967790000000  0.4725270000000 1.0
C      1  0.4366790000000  0.4281430000000  0.4748130000000 1.0
C      1  0.6010290000000  0.4880750000000  0.5265320000000 1.0
C      1  0.4630870000000  0.5953030000000  0.5300760000000 1.0
C      1  0.4388820000000  0.4149780000000  0.5294970000000 1.0
C      1  0.5132930000000  0.5210050000000  0.6042400000000 1.0
C      1  0.5143820000000  0.4716020000000  0.6010100000000 1.0
C      1  0.4714900000000  0.4951000000000  0.6040950000000 1.0
C      1  0.5156500000000  0.5243220000000  0.3897120000000 1.0
C      1  0.5148420000000  0.4758020000000  0.3974500000000 1.0
C      1  0.4721030000000  0.5010350000000  0.3933150000000 1.0
C      1  0.4850570000000  0.5203850000000  0.6053060000000 1.0
C      1  0.4859590000000  0.4709150000000  0.6017200000000 1.0
C      1  0.5279670000000  0.4964440000000  0.6020000000000 1.0
C      1  0.4872620000000  0.5252040000000  0.3908060000000 1.0
C      1  0.4862260000000  0.4766310000000  0.3982500000000 1.0
C      1  0.5298740000000  0.4994230000000  0.3916570000000 1.0
C      1  0.5143870000000  0.4817240000000  0.4765390000000 1.0
C      1  0.4715080000000  0.5057950000000  0.4708170000000 1.0
C      1  0.5150700000000  0.5300690000000  0.4703860000000 1.0
C      1  0.5123330000000  0.4796210000000  0.5342630000000 1.0
C      1  0.4660070000000  0.5050940000000  0.5408950000000 1.0
C      1  0.5173810000000  0.5329050000000  0.5354920000000 1.0
C      1  0.4863830000000  0.4817310000000  0.4781990000000 1.0
C      1  0.5296590000000  0.5050580000000  0.4666850000000 1.0
C      1  0.4867620000000  0.5293290000000  0.4776360000000 1.0
C      1  0.4839880000000  0.4797480000000  0.5404520000000 1.0
C      1  0.5297020000000  0.5046580000000  0.5331330000000 1.0
C      1  0.4838290000000  0.5308830000000  0.5385240000000 1.0
C      1  0.5256130000000  0.5767540000000  0.4694010000000 1.0
C      1  0.5558980000000  0.4558470000000  0.4844520000000 1.0
C      1  0.4341370000000  0.4817680000000  0.4704550000000 1.0
C      1  0.5111050000000  0.5771630000000  0.5144670000000 1.0
C      1  0.5490000000000  0.4443240000000  0.5306550000000 1.0
C      1  0.4266220000000  0.4813270000000  0.5262340000000 1.0
C      1  0.4800500000000  0.5766610000000  0.4785960000000 1.0
C      1  0.4446220000000  0.4562930000000  0.4859320000000 1.0
C      1  0.5670310000000  0.4807530000000  0.4687790000000 1.0
C      1  0.4848170000000  0.5745750000000  0.5294090000000 1.0
C      1  0.4491420000000  0.4435270000000  0.5319570000000 1.0
C      1  0.5722210000000  0.4817860000000  0.5253040000000 1.0
C      1  0.5052400000000  0.5876470000000  0.4869770000000 1.0
C      1  0.4320390000000  0.4559250000000  0.5136790000000 1.0
C      1  0.5672100000000  0.4562710000000  0.5128160000000 1.0
END
