TITL C-3577082-504-394 -2.5688104732562e-06 125000 -1141.13144235367 0 0 182 (C1) n - 1
REM
REM in /home/bkarasulu/work/CARBON/AIRSS/Generating-Clusters/EDIP-Nigel-Params/with-SteepDescent/Higher-Symm/SD-CG/HFTN-CG
REM
REM
REM
REM
REM
REM ./C.cell (12c818d87b63d06a65506943cc24bca4)
REM
REM compiler GCC version 9.2.1 20190827 (Red Hat 9.2.1-1)
REM options -cpp -mtune=generic -march=x86-64 -g -O0 -fpre-include=/usr/include/finclude/math-vector-fortran.h
REM seed -1214918700 -61915051 892577645 -1842791472 1740206559 -459604929 -1410192367 -845921347 1525769426 -388912280 840372250 -1203231471 -1417635798 1476728063 517729371 -1233846252 -1146045671 -259406717 1144644655 -773011929 -46202687 1766005329 -953997792 -2072449112 -913702760 -1637463005 -751196548 -1141591900 1122675056 -845362805 1902363376 -757127161 -1370403969
REM
CELL 1.54180   50.00000   50.00000   50.00000   90.00000   90.00000   90.00000
LATT -1
SFAC C  
C      1  0.4903120000000  0.4428230000000  0.5235710000000 1.0
C      1  0.5075190000000  0.5589190000000  0.5259300000000 1.0
C      1  0.5209990000000  0.4408600000000  0.5178630000000 1.0
C      1  0.5269350000000  0.5571870000000  0.5016490000000 1.0
C      1  0.5249570000000  0.4417220000000  0.4864140000000 1.0
C      1  0.5110290000000  0.5583920000000  0.4745220000000 1.0
C      1  0.4955340000000  0.4429210000000  0.4754930000000 1.0
C      1  0.4804310000000  0.5569930000000  0.4814960000000 1.0
C      1  0.4742220000000  0.4404540000000  0.4975430000000 1.0
C      1  0.4797450000000  0.5543390000000  0.5131440000000 1.0
C      1  0.4905670000000  0.4488910000000  0.5944290000000 1.0
C      1  0.5473430000000  0.5557550000000  0.5819570000000 1.0
C      1  0.5843500000000  0.4459450000000  0.5385750000000 1.0
C      1  0.5965750000000  0.5550230000000  0.4771910000000 1.0
C      1  0.5628080000000  0.4465960000000  0.4288150000000 1.0
C      1  0.5097850000000  0.5552260000000  0.4076730000000 1.0
C      1  0.4534920000000  0.4467780000000  0.4166390000000 1.0
C      1  0.4150560000000  0.5516310000000  0.4631600000000 1.0
C      1  0.4088800000000  0.4440980000000  0.5201730000000 1.0
C      1  0.4350970000000  0.5532500000000  0.5701140000000 1.0
C      1  0.4044640000000  0.5506970000000  0.5115010000000 1.0
C      1  0.4278540000000  0.4456300000000  0.5680670000000 1.0
C      1  0.4797060000000  0.5544100000000  0.5950180000000 1.0
C      1  0.5390670000000  0.4489480000000  0.5870890000000 1.0
C      1  0.5856750000000  0.5538910000000  0.5482580000000 1.0
C      1  0.5953640000000  0.4464080000000  0.4888310000000 1.0
C      1  0.5716990000000  0.5534680000000  0.4339940000000 1.0
C      1  0.5193650000000  0.4478150000000  0.4021250000000 1.0
C      1  0.4590630000000  0.5543010000000  0.4123120000000 1.0
C      1  0.4164640000000  0.4455230000000  0.4514440000000 1.0
C      1  0.5075750000000  0.6024910000000  0.4767890000000 1.0
C      1  0.4965930000000  0.3986760000000  0.4698360000000 1.0
C      1  0.4780370000000  0.6011730000000  0.4825580000000 1.0
C      1  0.4757510000000  0.3966700000000  0.4916150000000 1.0
C      1  0.4735350000000  0.6003250000000  0.5125940000000 1.0
C      1  0.4783560000000  0.3946600000000  0.5411100000000 1.0
C      1  0.5004830000000  0.6025990000000  0.5257540000000 1.0
C      1  0.5203830000000  0.3968290000000  0.5131340000000 1.0
C      1  0.5468740000000  0.6049870000000  0.5085310000000 1.0
C      1  0.5238750000000  0.3976650000000  0.4831940000000 1.0
C      1  0.4027810000000  0.4654290000000  0.4697380000000 1.0
C      1  0.4012920000000  0.5304230000000  0.5338140000000 1.0
C      1  0.4391660000000  0.4668060000000  0.5870550000000 1.0
C      1  0.5011280000000  0.5344420000000  0.6028930000000 1.0
C      1  0.5611350000000  0.4686740000000  0.5822070000000 1.0
C      1  0.5996000000000  0.5331760000000  0.5308760000000 1.0
C      1  0.5962220000000  0.4668960000000  0.4666390000000 1.0
C      1  0.5584480000000  0.5330200000000  0.4164630000000 1.0
C      1  0.4987140000000  0.4690050000000  0.3952390000000 1.0
C      1  0.4377180000000  0.5333410000000  0.4174360000000 1.0
C      1  0.4688890000000  0.4659670000000  0.3967130000000 1.0
C      1  0.4166510000000  0.5339590000000  0.4381410000000 1.0
C      1  0.3966050000000  0.4628770000000  0.4987980000000 1.0
C      1  0.4113280000000  0.5339520000000  0.5618080000000 1.0
C      1  0.4654640000000  0.4660520000000  0.6018820000000 1.0
C      1  0.5308090000000  0.5369170000000  0.6007850000000 1.0
C      1  0.5828210000000  0.4656960000000  0.5626940000000 1.0
C      1  0.6086920000000  0.5348490000000  0.5012160000000 1.0
C      1  0.5853930000000  0.4650540000000  0.4391150000000 1.0
C      1  0.5333510000000  0.5362090000000  0.4015520000000 1.0
C      1  0.4756390000000  0.5668860000000  0.4367530000000 1.0
C      1  0.4445970000000  0.4334010000000  0.4605660000000 1.0
C      1  0.4325280000000  0.5637910000000  0.5038080000000 1.0
C      1  0.4465660000000  0.4330030000000  0.5449120000000 1.0
C      1  0.4797920000000  0.5670640000000  0.5655220000000 1.0
C      1  0.5230500000000  0.4367340000000  0.5628600000000 1.0
C      1  0.5585170000000  0.5661960000000  0.5382130000000 1.0
C      1  0.5676440000000  0.4342580000000  0.4969430000000 1.0
C      1  0.5552190000000  0.5656200000000  0.4582800000000 1.0
C      1  0.5182110000000  0.4340990000000  0.4316760000000 1.0
C      1  0.5609530000000  0.5131750000000  0.4549670000000 1.0
C      1  0.5219810000000  0.4882820000000  0.4275560000000 1.0
C      1  0.4756610000000  0.5139530000000  0.4278890000000 1.0
C      1  0.4391350000000  0.4860530000000  0.4565240000000 1.0
C      1  0.4258330000000  0.5121070000000  0.5018250000000 1.0
C      1  0.4380430000000  0.4860060000000  0.5472880000000 1.0
C      1  0.4767560000000  0.5139810000000  0.5728700000000 1.0
C      1  0.5238130000000  0.4885570000000  0.5714710000000 1.0
C      1  0.5619660000000  0.5144430000000  0.5433780000000 1.0
C      1  0.5745040000000  0.4866310000000  0.4992950000000 1.0
C      1  0.5171370000000  0.4600560000000  0.6039070000000 1.0
C      1  0.5745970000000  0.5429320000000  0.5738560000000 1.0
C      1  0.6018430000000  0.4577610000000  0.5159420000000 1.0
C      1  0.5943750000000  0.5418460000000  0.4497790000000 1.0
C      1  0.5469330000000  0.4590840000000  0.4052460000000 1.0
C      1  0.4829550000000  0.5434650000000  0.3976590000000 1.0
C      1  0.4261710000000  0.4578470000000  0.4257120000000 1.0
C      1  0.3971650000000  0.5397610000000  0.4849800000000 1.0
C      1  0.4072090000000  0.4564870000000  0.5489490000000 1.0
C      1  0.4520190000000  0.5424820000000  0.5936840000000 1.0
C      1  0.5578840000000  0.4883200000000  0.4726290000000 1.0
C      1  0.5313980000000  0.5122800000000  0.4450770000000 1.0
C      1  0.4924730000000  0.4902010000000  0.4337080000000 1.0
C      1  0.4582270000000  0.5096950000000  0.4542260000000 1.0
C      1  0.4369890000000  0.4867210000000  0.4878750000000 1.0
C      1  0.4398310000000  0.5092470000000  0.5283800000000 1.0
C      1  0.4669150000000  0.4903540000000  0.5577960000000 1.0
C      1  0.5075240000000  0.5132460000000  0.5644580000000 1.0
C      1  0.5438140000000  0.4894450000000  0.5470940000000 1.0
C      1  0.5623490000000  0.5113550000000  0.5125080000000 1.0
C      1  0.4952300000000  0.5069490000000  0.6122250000000 1.0
C      1  0.5616810000000  0.4962330000000  0.5929040000000 1.0
C      1  0.6048140000000  0.5051530000000  0.5389470000000 1.0
C      1  0.6067780000000  0.4940650000000  0.4698440000000 1.0
C      1  0.5689520000000  0.5057190000000  0.4121510000000 1.0
C      1  0.5042900000000  0.4965290000000  0.3849220000000 1.0
C      1  0.4378690000000  0.5057120000000  0.4067550000000 1.0
C      1  0.3959860000000  0.4931900000000  0.4617910000000 1.0
C      1  0.3891350000000  0.5030250000000  0.5317290000000 1.0
C      1  0.4290480000000  0.4947750000000  0.5897840000000 1.0
C      1  0.4872080000000  0.4751680000000  0.5220920000000 1.0
C      1  0.5078980000000  0.5146330000000  0.5258540000000 1.0
C      1  0.5165090000000  0.4851580000000  0.5190750000000 1.0
C      1  0.5273690000000  0.5262440000000  0.5033210000000 1.0
C      1  0.5219230000000  0.4854860000000  0.4870600000000 1.0
C      1  0.5128410000000  0.5141930000000  0.4783920000000 1.0
C      1  0.4959200000000  0.4731650000000  0.4740880000000 1.0
C      1  0.4813630000000  0.5133510000000  0.4858540000000 1.0
C      1  0.4749120000000  0.4844430000000  0.4933830000000 1.0
C      1  0.4791930000000  0.5231270000000  0.5149460000000 1.0
C      1  0.4564560000000  0.5765230000000  0.5232030000000 1.0
C      1  0.4772940000000  0.4225150000000  0.5483800000000 1.0
C      1  0.5079170000000  0.5815560000000  0.5477130000000 1.0
C      1  0.5361270000000  0.4174630000000  0.5319000000000 1.0
C      1  0.5548820000000  0.5773430000000  0.5065410000000 1.0
C      1  0.5435970000000  0.4188210000000  0.4734290000000 1.0
C      1  0.5200660000000  0.5819270000000  0.4559580000000 1.0
C      1  0.4921340000000  0.4222280000000  0.4497020000000 1.0
C      1  0.4630990000000  0.5794970000000  0.4673640000000 1.0
C      1  0.4527420000000  0.4182960000000  0.4925740000000 1.0
C      1  0.3992210000000  0.4863450000000  0.5535090000000 1.0
C      1  0.4493000000000  0.5126000000000  0.6011170000000 1.0
C      1  0.5186040000000  0.4900310000000  0.6104130000000 1.0
C      1  0.5800440000000  0.5128280000000  0.5782990000000 1.0
C      1  0.6099580000000  0.4876270000000  0.5165000000000 1.0
C      1  0.5994740000000  0.5113240000000  0.4476610000000 1.0
C      1  0.5492720000000  0.4890880000000  0.3993670000000 1.0
C      1  0.4809610000000  0.5136370000000  0.3888610000000 1.0
C      1  0.4206310000000  0.4879550000000  0.4218520000000 1.0
C      1  0.3905360000000  0.5098400000000  0.4846300000000 1.0
C      1  0.5034200000000  0.5789490000000  0.4297480000000 1.0
C      1  0.4632620000000  0.4233170000000  0.4374790000000 1.0
C      1  0.4332890000000  0.5756840000000  0.4754410000000 1.0
C      1  0.4328680000000  0.4206280000000  0.5186700000000 1.0
C      1  0.4520020000000  0.5764710000000  0.5542090000000 1.0
C      1  0.4955680000000  0.4258940000000  0.5731300000000 1.0
C      1  0.5383790000000  0.5795930000000  0.5592800000000 1.0
C      1  0.5660090000000  0.4218250000000  0.5251320000000 1.0
C      1  0.5735770000000  0.5766400000000  0.4810710000000 1.0
C      1  0.5450060000000  0.4225900000000  0.4422800000000 1.0
C      1  0.4051070000000  0.5063460000000  0.4384470000000 1.0
C      1  0.3879440000000  0.4904620000000  0.5062890000000 1.0
C      1  0.4089610000000  0.5061060000000  0.5733620000000 1.0
C      1  0.4698180000000  0.4943430000000  0.6115370000000 1.0
C      1  0.5404910000000  0.5090430000000  0.6064580000000 1.0
C      1  0.5949040000000  0.4930660000000  0.5623150000000 1.0
C      1  0.6140670000000  0.5057660000000  0.4941270000000 1.0
C      1  0.5885650000000  0.4927000000000  0.4278890000000 1.0
C      1  0.5293110000000  0.5087300000000  0.3903760000000 1.0
C      1  0.4590320000000  0.4942220000000  0.3921240000000 1.0
C      1  0.5582390000000  0.4616590000000  0.5074510000000 1.0
C      1  0.5562260000000  0.5374320000000  0.4721050000000 1.0
C      1  0.5249420000000  0.4620630000000  0.4435620000000 1.0
C      1  0.4881440000000  0.5391370000000  0.4418710000000 1.0
C      1  0.4570410000000  0.4618800000000  0.4574060000000 1.0
C      1  0.4429520000000  0.5366670000000  0.4940760000000 1.0
C      1  0.4476840000000  0.4606540000000  0.5315270000000 1.0
C      1  0.4726780000000  0.5379960000000  0.5546540000000 1.0
C      1  0.5100050000000  0.4643250000000  0.5574000000000 1.0
C      1  0.5443340000000  0.5394880000000  0.5415390000000 1.0
C      1  0.4806360000000  0.4636150000000  0.4389970000000 1.0
C      1  0.4511100000000  0.5368120000000  0.4655650000000 1.0
C      1  0.4402860000000  0.4594640000000  0.5024310000000 1.0
C      1  0.4483190000000  0.5355690000000  0.5380190000000 1.0
C      1  0.4805690000000  0.4650720000000  0.5604830000000 1.0
C      1  0.5200870000000  0.5405470000000  0.5583860000000 1.0
C      1  0.5482990000000  0.4607590000000  0.5358210000000 1.0
C      1  0.5698190000000  0.5364580000000  0.4984650000000 1.0
C      1  0.5481800000000  0.4611760000000  0.4621720000000 1.0
C      1  0.5179500000000  0.5396420000000  0.4427130000000 1.0
C      1  0.4911880000000  0.3949510000000  0.5164800000000 1.0
C      1  0.5195510000000  0.6039600000000  0.5036110000000 1.0
END
