TITL C-3578197-9521-389 2.44113922688459e-07 125000 -1161.52451024828 0 0 182 (C1) n - 1
REM
REM in /home/bkarasulu/work/CARBON/AIRSS/Generating-Clusters/EDIP-Nigel-Params/with-SteepDescent/Higher-Symm/SD-CG/HFTN-CG
REM
REM
REM
REM
REM
REM ./C.cell (12c818d87b63d06a65506943cc24bca4)
REM
REM compiler GCC version 9.2.1 20190827 (Red Hat 9.2.1-1)
REM options -cpp -mtune=generic -march=x86-64 -g -O0 -fpre-include=/usr/include/finclude/math-vector-fortran.h
REM seed 42175763 108350854 1337640484 -737868520 92007640 571687636 1830269438 1869660551 -1021194829 -1124188111 -1627445067 733624286 844231818 143772028 1725269765 -1936735695 1463847129 2030655920 1422538428 1584246397 -407713881 -1086479357 -1238682244 -1626095546 -620699996 -179047982 -328937153 648178407 1530618486 -603931634 1373668903 -519328807 -1471692128
REM
CELL 1.54180   50.00000   50.00000   50.00000   90.00000   90.00000   90.00000
LATT -1
SFAC C  
C      1  0.6291700000000  0.4872840000000  0.4828750000000 1.0
C      1  0.3664750000000  0.4844090000000  0.5159520000000 1.0
C      1  0.6334480000000  0.5183620000000  0.4831060000000 1.0
C      1  0.3690950000000  0.5157230000000  0.5154710000000 1.0
C      1  0.3640660000000  0.4844800000000  0.4850810000000 1.0
C      1  0.6333130000000  0.4865100000000  0.5132600000000 1.0
C      1  0.3666510000000  0.5155450000000  0.4850590000000 1.0
C      1  0.6372750000000  0.5170820000000  0.5140240000000 1.0
C      1  0.5180090000000  0.3882890000000  0.4522540000000 1.0
C      1  0.4781590000000  0.3873740000000  0.5459580000000 1.0
C      1  0.5218570000000  0.6131270000000  0.4477690000000 1.0
C      1  0.4806720000000  0.6107640000000  0.5477560000000 1.0
C      1  0.4667400000000  0.3871020000000  0.4481390000000 1.0
C      1  0.5289660000000  0.3882630000000  0.5531860000000 1.0
C      1  0.4719170000000  0.6102560000000  0.4481120000000 1.0
C      1  0.5318230000000  0.6116300000000  0.5501280000000 1.0
C      1  0.4057070000000  0.5503150000000  0.5116670000000 1.0
C      1  0.5993870000000  0.5552810000000  0.4896800000000 1.0
C      1  0.4014840000000  0.4482390000000  0.5127670000000 1.0
C      1  0.5953530000000  0.4519810000000  0.4893380000000 1.0
C      1  0.6061170000000  0.5549740000000  0.5189210000000 1.0
C      1  0.4024080000000  0.5496820000000  0.4821170000000 1.0
C      1  0.6001960000000  0.4508680000000  0.5189480000000 1.0
C      1  0.3980870000000  0.4481970000000  0.4833030000000 1.0
C      1  0.5631540000000  0.4293070000000  0.4607980000000 1.0
C      1  0.4309370000000  0.4199350000000  0.5425170000000 1.0
C      1  0.5545960000000  0.5768090000000  0.4694680000000 1.0
C      1  0.4365410000000  0.5786650000000  0.5410910000000 1.0
C      1  0.4215860000000  0.4218370000000  0.4463480000000 1.0
C      1  0.5750140000000  0.4219950000000  0.5554520000000 1.0
C      1  0.4266430000000  0.5777130000000  0.4451560000000 1.0
C      1  0.5804600000000  0.5770650000000  0.5588970000000 1.0
C      1  0.4372330000000  0.4671690000000  0.5537340000000 1.0
C      1  0.5552240000000  0.4646500000000  0.4302150000000 1.0
C      1  0.4409830000000  0.5339220000000  0.5530590000000 1.0
C      1  0.5632460000000  0.5329900000000  0.4460320000000 1.0
C      1  0.5660100000000  0.4652280000000  0.5597610000000 1.0
C      1  0.4312500000000  0.4681380000000  0.4391530000000 1.0
C      1  0.5677160000000  0.5305100000000  0.5605630000000 1.0
C      1  0.4341470000000  0.5344520000000  0.4406890000000 1.0
C      1  0.4788340000000  0.5200550000000  0.4170600000000 1.0
C      1  0.5275310000000  0.5223030000000  0.5912040000000 1.0
C      1  0.4714620000000  0.4770390000000  0.4095400000000 1.0
C      1  0.5211960000000  0.4788580000000  0.5842960000000 1.0
C      1  0.5256250000000  0.5197380000000  0.4143440000000 1.0
C      1  0.4883960000000  0.5185220000000  0.5709720000000 1.0
C      1  0.5103810000000  0.4808780000000  0.4304940000000 1.0
C      1  0.4745000000000  0.4779290000000  0.5855900000000 1.0
C      1  0.4836580000000  0.5913180000000  0.4306310000000 1.0
C      1  0.5205430000000  0.5912410000000  0.5658240000000 1.0
C      1  0.4782880000000  0.4074850000000  0.4324570000000 1.0
C      1  0.5153130000000  0.4078450000000  0.5682800000000 1.0
C      1  0.5134110000000  0.5917840000000  0.4309320000000 1.0
C      1  0.4908550000000  0.5907290000000  0.5646970000000 1.0
C      1  0.5079800000000  0.4079480000000  0.4347260000000 1.0
C      1  0.4856520000000  0.4073830000000  0.5642900000000 1.0
C      1  0.4723490000000  0.5764060000000  0.4855910000000 1.0
C      1  0.5273850000000  0.5789830000000  0.5125550000000 1.0
C      1  0.4658130000000  0.4193370000000  0.4861040000000 1.0
C      1  0.5312450000000  0.4224420000000  0.5154420000000 1.0
C      1  0.5263580000000  0.5792380000000  0.4813830000000 1.0
C      1  0.4883140000000  0.5759320000000  0.5118520000000 1.0
C      1  0.5120060000000  0.4223010000000  0.4902190000000 1.0
C      1  0.4855860000000  0.4211600000000  0.5099000000000 1.0
C      1  0.5359630000000  0.5292120000000  0.4864110000000 1.0
C      1  0.4422860000000  0.5258080000000  0.5150740000000 1.0
C      1  0.5529130000000  0.4661880000000  0.4918830000000 1.0
C      1  0.4640540000000  0.4692250000000  0.5132880000000 1.0
C      1  0.4392090000000  0.5255770000000  0.4783510000000 1.0
C      1  0.5376780000000  0.5289560000000  0.5199560000000 1.0
C      1  0.4604490000000  0.4690160000000  0.4791030000000 1.0
C      1  0.5593970000000  0.4730700000000  0.5219710000000 1.0
C      1  0.3972730000000  0.5223990000000  0.5243860000000 1.0
C      1  0.6074080000000  0.5300310000000  0.4732100000000 1.0
C      1  0.3910900000000  0.4728900000000  0.5265520000000 1.0
C      1  0.6001230000000  0.4804480000000  0.4775590000000 1.0
C      1  0.6160340000000  0.5291220000000  0.5296180000000 1.0
C      1  0.3933080000000  0.5216160000000  0.4725020000000 1.0
C      1  0.6072810000000  0.4796500000000  0.5273290000000 1.0
C      1  0.3868950000000  0.4730560000000  0.4710850000000 1.0
C      1  0.4213280000000  0.5148230000000  0.5960050000000 1.0
C      1  0.5853670000000  0.5160820000000  0.4033390000000 1.0
C      1  0.4172510000000  0.4882810000000  0.5937810000000 1.0
C      1  0.5871370000000  0.4890260000000  0.4034140000000 1.0
C      1  0.5932990000000  0.5116590000000  0.5983560000000 1.0
C      1  0.4109150000000  0.5153270000000  0.3992550000000 1.0
C      1  0.5900520000000  0.4849380000000  0.6004590000000 1.0
C      1  0.4070860000000  0.4887160000000  0.4013200000000 1.0
C      1  0.4899000000000  0.5451840000000  0.5795180000000 1.0
C      1  0.5158000000000  0.5470490000000  0.4146140000000 1.0
C      1  0.4844360000000  0.4508340000000  0.5828860000000 1.0
C      1  0.5083810000000  0.4542710000000  0.4215390000000 1.0
C      1  0.5176760000000  0.5485650000000  0.5854860000000 1.0
C      1  0.4868440000000  0.5468480000000  0.4150940000000 1.0
C      1  0.5131220000000  0.4517490000000  0.5845090000000 1.0
C      1  0.4812850000000  0.4509130000000  0.4146320000000 1.0
C      1  0.6114040000000  0.4862860000000  0.5561960000000 1.0
C      1  0.3865230000000  0.4844440000000  0.4432700000000 1.0
C      1  0.6144920000000  0.5165250000000  0.5567990000000 1.0
C      1  0.3893390000000  0.5146730000000  0.4434010000000 1.0
C      1  0.3933580000000  0.4845790000000  0.5540550000000 1.0
C      1  0.5940580000000  0.4888150000000  0.4493940000000 1.0
C      1  0.3963050000000  0.5148810000000  0.5538370000000 1.0
C      1  0.6044650000000  0.5162760000000  0.4454630000000 1.0
C      1  0.4798060000000  0.5631550000000  0.5588750000000 1.0
C      1  0.5242860000000  0.5637290000000  0.4375940000000 1.0
C      1  0.4748400000000  0.4352430000000  0.5588510000000 1.0
C      1  0.5187270000000  0.4353380000000  0.4411900000000 1.0
C      1  0.5306940000000  0.5631730000000  0.5623460000000 1.0
C      1  0.4739500000000  0.5635600000000  0.4356730000000 1.0
C      1  0.5264410000000  0.4354670000000  0.5642960000000 1.0
C      1  0.4679390000000  0.4355100000000  0.4366050000000 1.0
C      1  0.5473430000000  0.5130560000000  0.5729760000000 1.0
C      1  0.4580680000000  0.5138780000000  0.4369870000000 1.0
C      1  0.5416820000000  0.4854700000000  0.5641890000000 1.0
C      1  0.4523990000000  0.4860530000000  0.4286080000000 1.0
C      1  0.4651170000000  0.5127980000000  0.5542270000000 1.0
C      1  0.5415430000000  0.5136350000000  0.4377670000000 1.0
C      1  0.4593870000000  0.4847100000000  0.5621390000000 1.0
C      1  0.5362480000000  0.4845510000000  0.4446850000000 1.0
C      1  0.5141040000000  0.5532350000000  0.4675520000000 1.0
C      1  0.4900040000000  0.5517570000000  0.5316170000000 1.0
C      1  0.5083600000000  0.4459320000000  0.4694810000000 1.0
C      1  0.4860460000000  0.4453580000000  0.5304480000000 1.0
C      1  0.4823480000000  0.5530090000000  0.4655330000000 1.0
C      1  0.5216500000000  0.5537970000000  0.5325160000000 1.0
C      1  0.4755140000000  0.4438610000000  0.4669150000000 1.0
C      1  0.5184980000000  0.4468440000000  0.5352580000000 1.0
C      1  0.4132810000000  0.4723670000000  0.5710370000000 1.0
C      1  0.5839230000000  0.4730500000000  0.4265380000000 1.0
C      1  0.4176760000000  0.5261170000000  0.5703700000000 1.0
C      1  0.5875630000000  0.5307270000000  0.4272640000000 1.0
C      1  0.5911530000000  0.4744930000000  0.5741810000000 1.0
C      1  0.4054830000000  0.4729990000000  0.4245190000000 1.0
C      1  0.5942960000000  0.5271120000000  0.5748940000000 1.0
C      1  0.4095370000000  0.5259580000000  0.4254300000000 1.0
C      1  0.4198470000000  0.4317940000000  0.4725900000000 1.0
C      1  0.5776020000000  0.4348150000000  0.5301720000000 1.0
C      1  0.4248310000000  0.5655410000000  0.4707890000000 1.0
C      1  0.5865210000000  0.5728370000000  0.5319460000000 1.0
C      1  0.5677210000000  0.4415510000000  0.4860590000000 1.0
C      1  0.4259520000000  0.4321230000000  0.5179370000000 1.0
C      1  0.5736930000000  0.5693520000000  0.4896890000000 1.0
C      1  0.4298780000000  0.5672810000000  0.5163750000000 1.0
C      1  0.4775870000000  0.4949060000000  0.4793330000000 1.0
C      1  0.5320820000000  0.4789150000000  0.5345270000000 1.0
C      1  0.4672920000000  0.5201330000000  0.4665990000000 1.0
C      1  0.5217440000000  0.5032500000000  0.5199610000000 1.0
C      1  0.5291160000000  0.4756280000000  0.4756700000000 1.0
C      1  0.4803000000000  0.4951610000000  0.5089930000000 1.0
C      1  0.5196070000000  0.5014660000000  0.4899000000000 1.0
C      1  0.4715910000000  0.5199150000000  0.5241580000000 1.0
C      1  0.5055240000000  0.3947660000000  0.4768000000000 1.0
C      1  0.4925700000000  0.3943760000000  0.5226590000000 1.0
C      1  0.5120830000000  0.6045070000000  0.4730570000000 1.0
C      1  0.4925660000000  0.6043830000000  0.5227170000000 1.0
C      1  0.4755470000000  0.3932190000000  0.4742190000000 1.0
C      1  0.5222810000000  0.3951400000000  0.5265970000000 1.0
C      1  0.4822430000000  0.6025140000000  0.4733540000000 1.0
C      1  0.5220300000000  0.6065020000000  0.5241790000000 1.0
C      1  0.5601520000000  0.5588250000000  0.5647660000000 1.0
C      1  0.4442450000000  0.5608340000000  0.4315960000000 1.0
C      1  0.5564500000000  0.4383650000000  0.5685990000000 1.0
C      1  0.4387650000000  0.4396320000000  0.4335080000000 1.0
C      1  0.4500230000000  0.5615740000000  0.5581310000000 1.0
C      1  0.5535030000000  0.5617510000000  0.4440360000000 1.0
C      1  0.4453690000000  0.4383880000000  0.5572750000000 1.0
C      1  0.5487080000000  0.4371350000000  0.4388110000000 1.0
C      1  0.5681210000000  0.5273990000000  0.4774510000000 1.0
C      1  0.4218700000000  0.5016670000000  0.5126770000000 1.0
C      1  0.5804410000000  0.5007720000000  0.4899440000000 1.0
C      1  0.4352940000000  0.4747280000000  0.5240750000000 1.0
C      1  0.4193740000000  0.5012700000000  0.4818940000000 1.0
C      1  0.5656990000000  0.5227350000000  0.5310850000000 1.0
C      1  0.4312080000000  0.4743410000000  0.4695640000000 1.0
C      1  0.5786950000000  0.4970260000000  0.5191690000000 1.0
C      1  0.4362470000000  0.4203250000000  0.4933140000000 1.0
C      1  0.5608500000000  0.4240260000000  0.5090570000000 1.0
C      1  0.4419780000000  0.5765250000000  0.4913490000000 1.0
C      1  0.5704490000000  0.5853390000000  0.5127310000000 1.0
C      1  0.4977300000000  0.4974000000000  0.5904370000000 1.0
C      1  0.5017310000000  0.5013370000000  0.4106020000000 1.0
END
