TITL C-3578199-7832-74 -1.78626156604684e-06 125000 -803.174072884857 0 0 129 (C1) n - 1
REM
REM in /home/bkarasulu/work/CARBON/AIRSS/Generating-Clusters/EDIP-Nigel-Params/with-SteepDescent/Higher-Symm/SD-CG/HFTN-CG
REM
REM
REM
REM
REM
REM ./C.cell (12c818d87b63d06a65506943cc24bca4)
REM
REM compiler GCC version 9.2.1 20190827 (Red Hat 9.2.1-1)
REM options -cpp -mtune=generic -march=x86-64 -g -O0 -fpre-include=/usr/include/finclude/math-vector-fortran.h
REM seed -760280757 1730398693 -165214443 1274128604 374371166 736083502 -426810987 1909718430 1643226596 425921457 1425762952 -1858711510 -305532369 -1112651460 832464345 -1879770425 372016007 1258494730 -381787379 239723415 548419219 494825806 -115344499 850830999 -1612339580 1856115561 -450075492 -892571705 1962014145 957505856 301767431 -1183567051 -629019970
REM
CELL 1.54180   50.00000   50.00000   50.00000   90.00000   90.00000   90.00000
LATT -1
SFAC C  
C      1  0.5875800000000  0.4768140000000  0.5118410000000 1.0
C      1  0.4102090000000  0.5212300000000  0.4818540000000 1.0
C      1  0.5229620000000  0.3928040000000  0.4907310000000 1.0
C      1  0.4762950000000  0.6062640000000  0.5110500000000 1.0
C      1  0.5067880000000  0.4079030000000  0.5363560000000 1.0
C      1  0.4932890000000  0.5907220000000  0.4663410000000 1.0
C      1  0.5024880000000  0.3979710000000  0.5094570000000 1.0
C      1  0.4975730000000  0.5991480000000  0.4935330000000 1.0
C      1  0.4355630000000  0.5073790000000  0.4723850000000 1.0
C      1  0.5628800000000  0.4906890000000  0.5231600000000 1.0
C      1  0.5322680000000  0.5156190000000  0.5888760000000 1.0
C      1  0.4741240000000  0.4802110000000  0.4110050000000 1.0
C      1  0.4883010000000  0.4444140000000  0.4979840000000 1.0
C      1  0.5142300000000  0.5567850000000  0.5145000000000 1.0
C      1  0.4498560000000  0.5374290000000  0.5946780000000 1.0
C      1  0.5555820000000  0.4652060000000  0.4036180000000 1.0
C      1  0.4895690000000  0.5131960000000  0.4770890000000 1.0
C      1  0.5057850000000  0.4866050000000  0.5177960000000 1.0
C      1  0.4802290000000  0.4235500000000  0.4527750000000 1.0
C      1  0.5257750000000  0.5737670000000  0.5532310000000 1.0
C      1  0.5536100000000  0.4263440000000  0.4690720000000 1.0
C      1  0.4428790000000  0.5722090000000  0.5280080000000 1.0
C      1  0.5359940000000  0.5584530000000  0.4172330000000 1.0
C      1  0.4616260000000  0.4421160000000  0.5839200000000 1.0
C      1  0.4036070000000  0.4745380000000  0.5259370000000 1.0
C      1  0.5941560000000  0.5261770000000  0.4733020000000 1.0
C      1  0.4465540000000  0.4835760000000  0.4269410000000 1.0
C      1  0.5606160000000  0.5123840000000  0.5724810000000 1.0
C      1  0.5627640000000  0.4414030000000  0.4933120000000 1.0
C      1  0.4337520000000  0.5582630000000  0.5023520000000 1.0
C      1  0.5241210000000  0.5301320000000  0.5037060000000 1.0
C      1  0.4818300000000  0.4717790000000  0.5053980000000 1.0
C      1  0.5599590000000  0.5390880000000  0.5592270000000 1.0
C      1  0.4457950000000  0.4584780000000  0.4430460000000 1.0
C      1  0.5163140000000  0.4742730000000  0.5660760000000 1.0
C      1  0.4858710000000  0.5259240000000  0.4318700000000 1.0
C      1  0.4338570000000  0.5123100000000  0.5221120000000 1.0
C      1  0.5597070000000  0.4858570000000  0.4758660000000 1.0
C      1  0.4790230000000  0.5305270000000  0.5197150000000 1.0
C      1  0.5124520000000  0.4639670000000  0.4658070000000 1.0
C      1  0.5263360000000  0.5959090000000  0.5003820000000 1.0
C      1  0.4738020000000  0.4025680000000  0.5022160000000 1.0
C      1  0.4922900000000  0.4653290000000  0.5473610000000 1.0
C      1  0.5062340000000  0.5343650000000  0.4544410000000 1.0
C      1  0.5394480000000  0.5830590000000  0.5259420000000 1.0
C      1  0.4704930000000  0.4254780000000  0.4823490000000 1.0
C      1  0.5510640000000  0.4458300000000  0.4452620000000 1.0
C      1  0.4502080000000  0.5525550000000  0.5506320000000 1.0
C      1  0.4909040000000  0.4859040000000  0.4644030000000 1.0
C      1  0.5029580000000  0.5210590000000  0.5552110000000 1.0
C      1  0.5519000000000  0.5423070000000  0.4333710000000 1.0
C      1  0.4463050000000  0.4578150000000  0.5668700000000 1.0
C      1  0.4806380000000  0.5437810000000  0.5877050000000 1.0
C      1  0.5240330000000  0.4563690000000  0.4062810000000 1.0
C      1  0.4834170000000  0.4223640000000  0.5444130000000 1.0
C      1  0.5166850000000  0.5769620000000  0.4585720000000 1.0
C      1  0.4138040000000  0.4998530000000  0.5407890000000 1.0
C      1  0.5764520000000  0.5055440000000  0.4578410000000 1.0
C      1  0.5808950000000  0.5003820000000  0.4259180000000 1.0
C      1  0.4192900000000  0.5033940000000  0.5779580000000 1.0
C      1  0.5078760000000  0.5057660000000  0.3983390000000 1.0
C      1  0.4933380000000  0.4962240000000  0.5970370000000 1.0
C      1  0.5160160000000  0.4429240000000  0.4894280000000 1.0
C      1  0.4827250000000  0.5591360000000  0.5074350000000 1.0
C      1  0.5476300000000  0.5218350000000  0.4854020000000 1.0
C      1  0.4531720000000  0.4791930000000  0.5153550000000 1.0
C      1  0.5818690000000  0.5532700000000  0.4696670000000 1.0
C      1  0.4187780000000  0.4495940000000  0.5328730000000 1.0
C      1  0.4408680000000  0.5100470000000  0.4426450000000 1.0
C      1  0.5633890000000  0.4863420000000  0.5534220000000 1.0
C      1  0.5315630000000  0.4162740000000  0.5454180000000 1.0
C      1  0.4696990000000  0.5830850000000  0.4536510000000 1.0
C      1  0.4956650000000  0.5292080000000  0.4046150000000 1.0
C      1  0.5080190000000  0.4733140000000  0.5940420000000 1.0
C      1  0.5783960000000  0.4650820000000  0.4871520000000 1.0
C      1  0.4180330000000  0.5338330000000  0.5070890000000 1.0
C      1  0.5258610000000  0.4168930000000  0.4766660000000 1.0
C      1  0.4709710000000  0.5815170000000  0.5239230000000 1.0
C      1  0.5380740000000  0.4949060000000  0.4361300000000 1.0
C      1  0.4601270000000  0.5050810000000  0.5614280000000 1.0
C      1  0.3898610000000  0.5025360000000  0.4875210000000 1.0
C      1  0.6091250000000  0.4943980000000  0.5072480000000 1.0
C      1  0.4633760000000  0.4375840000000  0.4314040000000 1.0
C      1  0.5398450000000  0.5566840000000  0.5729670000000 1.0
C      1  0.5281460000000  0.4363410000000  0.4287120000000 1.0
C      1  0.4771040000000  0.5612750000000  0.5629250000000 1.0
C      1  0.5393040000000  0.5825350000000  0.4771970000000 1.0
C      1  0.4599590000000  0.4160980000000  0.5267540000000 1.0
C      1  0.5031020000000  0.5527470000000  0.5488030000000 1.0
C      1  0.5042050000000  0.4436120000000  0.4441370000000 1.0
C      1  0.4553820000000  0.5593360000000  0.4568240000000 1.0
C      1  0.5427110000000  0.4409380000000  0.5385870000000 1.0
C      1  0.4601750000000  0.5211290000000  0.4811960000000 1.0
C      1  0.5356980000000  0.4796420000000  0.5119310000000 1.0
C      1  0.4367900000000  0.4574270000000  0.4707760000000 1.0
C      1  0.5646940000000  0.5414900000000  0.5304250000000 1.0
C      1  0.4108630000000  0.5281540000000  0.5670320000000 1.0
C      1  0.5893500000000  0.4752310000000  0.4368600000000 1.0
C      1  0.4575790000000  0.5501670000000  0.4852410000000 1.0
C      1  0.5387880000000  0.4507310000000  0.5096750000000 1.0
C      1  0.5179450000000  0.4855650000000  0.4154700000000 1.0
C      1  0.4842370000000  0.5151650000000  0.5768920000000 1.0
C      1  0.4822260000000  0.4962710000000  0.4365170000000 1.0
C      1  0.5244010000000  0.5030520000000  0.5616460000000 1.0
C      1  0.4311540000000  0.5481670000000  0.5733750000000 1.0
C      1  0.5727550000000  0.4538670000000  0.4261390000000 1.0
C      1  0.5405310000000  0.4727060000000  0.4565790000000 1.0
C      1  0.4557310000000  0.5251310000000  0.5383780000000 1.0
C      1  0.5623220000000  0.5665290000000  0.5164810000000 1.0
C      1  0.4425020000000  0.4345310000000  0.4868030000000 1.0
C      1  0.4844060000000  0.4355850000000  0.5697900000000 1.0
C      1  0.5143480000000  0.5654180000000  0.4327520000000 1.0
C      1  0.4213400000000  0.4474950000000  0.5604170000000 1.0
C      1  0.5749050000000  0.5545620000000  0.4428900000000 1.0
C      1  0.5442030000000  0.4624850000000  0.5597960000000 1.0
C      1  0.4573350000000  0.5359310000000  0.4364430000000 1.0
C      1  0.4406760000000  0.4372440000000  0.5163690000000 1.0
C      1  0.5600010000000  0.5635010000000  0.4872470000000 1.0
C      1  0.5605620000000  0.4940420000000  0.4060270000000 1.0
C      1  0.4420010000000  0.5090950000000  0.5941670000000 1.0
C      1  0.5197150000000  0.5424790000000  0.5901850000000 1.0
C      1  0.4844990000000  0.4526280000000  0.4128770000000 1.0
C      1  0.4039230000000  0.4798680000000  0.4968280000000 1.0
C      1  0.5967360000000  0.5189950000000  0.5016710000000 1.0
C      1  0.5686650000000  0.5189660000000  0.5113140000000 1.0
C      1  0.4324630000000  0.4805380000000  0.4882990000000 1.0
C      1  0.4623430000000  0.4765120000000  0.5489670000000 1.0
C      1  0.5362880000000  0.5232870000000  0.4513490000000 1.0
C      1  0.5000990000000  0.5139820000000  0.5054900000000 1.0
END
