TITL C-3578206-1180-186 -4.17720511995062e-06 125000 -810.013279053614 0 0 132 (C2) n - 1
REM
REM in /home/bkarasulu/work/CARBON/AIRSS/Generating-Clusters/EDIP-Nigel-Params/with-SteepDescent/Higher-Symm/SD-CG/HFTN-CG
REM
REM
REM
REM
REM
REM ./C.cell (12c818d87b63d06a65506943cc24bca4)
REM
REM compiler GCC version 9.2.1 20190827 (Red Hat 9.2.1-1)
REM options -cpp -mtune=generic -march=x86-64 -g -O0 -fpre-include=/usr/include/finclude/math-vector-fortran.h
REM seed 397242079 -1636034972 1321872437 1628072516 -2065058454 1733957896 290816998 493301202 -1858863576 108278494 -1590940548 1217354585 -1969213176 -1154434026 -146264882 731633081 1898673328 -517369262 -1249170089 -19519791 -1124382775 665798454 -251516146 -932436848 -756664032 2080797782 -2134249957 -1185230376 -1991908655 128982585 130418430 652350931 -1750356498
REM
CELL 1.54180   50.00000   50.00000   50.00000   90.00000   90.00000   90.00000
LATT -1
SFAC C  
C      1  0.5908180000000  0.5112120000000  0.5130270000000 1.0
C      1  0.4389780000000  0.4990360000000  0.5960510000000 1.0
C      1  0.4644690000000  0.5153740000000  0.3981640000000 1.0
C      1  0.4091740000000  0.4887860000000  0.5129690000000 1.0
C      1  0.5609620000000  0.5009490000000  0.5960890000000 1.0
C      1  0.5355950000000  0.4846420000000  0.3981840000000 1.0
C      1  0.4090170000000  0.4924310000000  0.4844080000000 1.0
C      1  0.5601130000000  0.4970080000000  0.4053190000000 1.0
C      1  0.5345320000000  0.4928460000000  0.6028790000000 1.0
C      1  0.5909920000000  0.5075720000000  0.4844660000000 1.0
C      1  0.4399470000000  0.5030070000000  0.4052820000000 1.0
C      1  0.4654040000000  0.5071370000000  0.6028580000000 1.0
C      1  0.4964670000000  0.4503840000000  0.5291650000000 1.0
C      1  0.4774240000000  0.4350890000000  0.4834350000000 1.0
C      1  0.5268910000000  0.4483080000000  0.4831940000000 1.0
C      1  0.5035140000000  0.5496110000000  0.5291750000000 1.0
C      1  0.5225870000000  0.5649140000000  0.4834590000000 1.0
C      1  0.4731200000000  0.5516950000000  0.4831850000000 1.0
C      1  0.4997110000000  0.5510650000000  0.4684840000000 1.0
C      1  0.5279070000000  0.5558350000000  0.5114700000000 1.0
C      1  0.4760650000000  0.5518060000000  0.5162450000000 1.0
C      1  0.5003090000000  0.4489400000000  0.4684760000000 1.0
C      1  0.4720860000000  0.4441630000000  0.5114440000000 1.0
C      1  0.5239250000000  0.4481920000000  0.5162520000000 1.0
C      1  0.4712810000000  0.5960120000000  0.4865090000000 1.0
C      1  0.5228330000000  0.5949530000000  0.4845960000000 1.0
C      1  0.5008420000000  0.5939200000000  0.5307040000000 1.0
C      1  0.5287270000000  0.4039910000000  0.4865120000000 1.0
C      1  0.4771770000000  0.4050500000000  0.4845660000000 1.0
C      1  0.4991380000000  0.4060750000000  0.5306880000000 1.0
C      1  0.5259350000000  0.4050090000000  0.5170120000000 1.0
C      1  0.4741640000000  0.4008840000000  0.5152150000000 1.0
C      1  0.5039010000000  0.4009340000000  0.4701630000000 1.0
C      1  0.4740540000000  0.5949880000000  0.5170110000000 1.0
C      1  0.5258270000000  0.5991140000000  0.5152470000000 1.0
C      1  0.4961180000000  0.5990710000000  0.4701760000000 1.0
C      1  0.4593000000000  0.5353150000000  0.4374590000000 1.0
C      1  0.5765960000000  0.5276960000000  0.4699960000000 1.0
C      1  0.4719830000000  0.5342740000000  0.5913800000000 1.0
C      1  0.5407390000000  0.4646950000000  0.4374780000000 1.0
C      1  0.4234230000000  0.4723090000000  0.4699430000000 1.0
C      1  0.5279600000000  0.4657110000000  0.5913920000000 1.0
C      1  0.5449440000000  0.4669910000000  0.5683480000000 1.0
C      1  0.4147720000000  0.4627580000000  0.5218930000000 1.0
C      1  0.5300320000000  0.4585860000000  0.4113500000000 1.0
C      1  0.4550130000000  0.5329980000000  0.5683250000000 1.0
C      1  0.5852140000000  0.5372390000000  0.5219520000000 1.0
C      1  0.4700230000000  0.5414280000000  0.4113380000000 1.0
C      1  0.4716950000000  0.4245330000000  0.5710360000000 1.0
C      1  0.4574150000000  0.4356180000000  0.4376970000000 1.0
C      1  0.5734250000000  0.4323090000000  0.4903200000000 1.0
C      1  0.5282610000000  0.5754560000000  0.5710650000000 1.0
C      1  0.5426240000000  0.5643920000000  0.4377340000000 1.0
C      1  0.4265810000000  0.5676920000000  0.4902850000000 1.0
C      1  0.5210900000000  0.5804600000000  0.4299500000000 1.0
C      1  0.5504840000000  0.5651910000000  0.5549750000000 1.0
C      1  0.4265010000000  0.5715060000000  0.5193230000000 1.0
C      1  0.4789530000000  0.4195510000000  0.4299250000000 1.0
C      1  0.4494810000000  0.4348000000000  0.5549340000000 1.0
C      1  0.5734870000000  0.4284910000000  0.5193580000000 1.0
C      1  0.5395580000000  0.4404550000000  0.5566330000000 1.0
C      1  0.4277590000000  0.4411410000000  0.5096200000000 1.0
C      1  0.5278230000000  0.4236130000000  0.4278520000000 1.0
C      1  0.4604070000000  0.5595360000000  0.5566180000000 1.0
C      1  0.5722350000000  0.5588570000000  0.5096740000000 1.0
C      1  0.4722220000000  0.5763980000000  0.4278470000000 1.0
C      1  0.4527480000000  0.5639200000000  0.4453970000000 1.0
C      1  0.5696230000000  0.5541220000000  0.4806690000000 1.0
C      1  0.4805110000000  0.5683510000000  0.5747750000000 1.0
C      1  0.5472860000000  0.4360880000000  0.4454160000000 1.0
C      1  0.4303890000000  0.4458810000000  0.4806170000000 1.0
C      1  0.5194420000000  0.4316380000000  0.5747760000000 1.0
C      1  0.5468330000000  0.4271050000000  0.4747980000000 1.0
C      1  0.4971770000000  0.4230770000000  0.5571990000000 1.0
C      1  0.4519950000000  0.4297440000000  0.4671210000000 1.0
C      1  0.4531830000000  0.5728990000000  0.4747810000000 1.0
C      1  0.5027870000000  0.5769140000000  0.5572130000000 1.0
C      1  0.5480260000000  0.5702610000000  0.4671620000000 1.0
C      1  0.4523600000000  0.5778590000000  0.5324930000000 1.0
C      1  0.4964720000000  0.5816400000000  0.4442090000000 1.0
C      1  0.5492500000000  0.5733450000000  0.5250820000000 1.0
C      1  0.5476200000000  0.4221360000000  0.5325100000000 1.0
C      1  0.5035630000000  0.4183690000000  0.4441980000000 1.0
C      1  0.4507350000000  0.4266510000000  0.5250400000000 1.0
C      1  0.4307850000000  0.4825170000000  0.5750980000000 1.0
C      1  0.4862860000000  0.4951470000000  0.3979240000000 1.0
C      1  0.5895740000000  0.4872800000000  0.5294110000000 1.0
C      1  0.5691680000000  0.5174710000000  0.5751440000000 1.0
C      1  0.5137780000000  0.5048690000000  0.3979340000000 1.0
C      1  0.4104080000000  0.5127150000000  0.5293570000000 1.0
C      1  0.5633940000000  0.5178990000000  0.4234950000000 1.0
C      1  0.5173280000000  0.5162370000000  0.5969020000000 1.0
C      1  0.4106210000000  0.5190670000000  0.4755380000000 1.0
C      1  0.4366540000000  0.4821130000000  0.4234530000000 1.0
C      1  0.4826120000000  0.4837480000000  0.5968880000000 1.0
C      1  0.5893940000000  0.4809370000000  0.4755910000000 1.0
C      1  0.5404680000000  0.4953460000000  0.4438170000000 1.0
C      1  0.5131770000000  0.5088780000000  0.5598170000000 1.0
C      1  0.4498570000000  0.5003210000000  0.4719620000000 1.0
C      1  0.4595670000000  0.5046630000000  0.4437930000000 1.0
C      1  0.4867850000000  0.4911130000000  0.5598080000000 1.0
C      1  0.5501610000000  0.4996830000000  0.4719930000000 1.0
C      1  0.4569970000000  0.5048510000000  0.5576120000000 1.0
C      1  0.4877360000000  0.4902620000000  0.4416030000000 1.0
C      1  0.5529740000000  0.4966130000000  0.5294380000000 1.0
C      1  0.5429670000000  0.4951400000000  0.5576380000000 1.0
C      1  0.5123010000000  0.5097480000000  0.4416130000000 1.0
C      1  0.4470070000000  0.5033830000000  0.5294060000000 1.0
C      1  0.5936910000000  0.4602960000000  0.5190620000000 1.0
C      1  0.4494420000000  0.4623040000000  0.5670240000000 1.0
C      1  0.4816030000000  0.4690170000000  0.4099060000000 1.0
C      1  0.4062980000000  0.5397010000000  0.5190100000000 1.0
C      1  0.5505160000000  0.5376860000000  0.5670620000000 1.0
C      1  0.5184530000000  0.5309970000000  0.4099230000000 1.0
C      1  0.4086410000000  0.5433870000000  0.4900870000000 1.0
C      1  0.5421530000000  0.5375450000000  0.4249260000000 1.0
C      1  0.5287490000000  0.5405390000000  0.5857000000000 1.0
C      1  0.5913650000000  0.4566140000000  0.4901370000000 1.0
C      1  0.4578940000000  0.4624670000000  0.4248940000000 1.0
C      1  0.4711980000000  0.4594470000000  0.5856750000000 1.0
C      1  0.4904290000000  0.4762580000000  0.4677680000000 1.0
C      1  0.5408600000000  0.4743720000000  0.5160720000000 1.0
C      1  0.4650600000000  0.4817830000000  0.5159920000000 1.0
C      1  0.5095910000000  0.5237470000000  0.4677770000000 1.0
C      1  0.4591300000000  0.5256260000000  0.5160510000000 1.0
C      1  0.5349300000000  0.5182140000000  0.5160170000000 1.0
C      1  0.5103710000000  0.5214520000000  0.5329730000000 1.0
C      1  0.4568990000000  0.5251630000000  0.4867580000000 1.0
C      1  0.5317940000000  0.5178910000000  0.4855000000000 1.0
C      1  0.4896080000000  0.4785430000000  0.5329630000000 1.0
C      1  0.5431090000000  0.4748390000000  0.4867810000000 1.0
C      1  0.4682150000000  0.4821120000000  0.4854770000000 1.0
END
