TITL C-3577078-809-252 -7.65594080624176e-06 125000 -751.222495675413 0 0 120 (C1) n - 1
REM
REM in /home/bkarasulu/work/CARBON/AIRSS/Generating-Clusters/EDIP-Nigel-Params/with-SteepDescent/Higher-Symm/SD-CG/HFTN-CG
REM
REM
REM
REM
REM
REM ./C.cell (12c818d87b63d06a65506943cc24bca4)
REM
REM compiler GCC version 9.2.1 20190827 (Red Hat 9.2.1-1)
REM options -cpp -mtune=generic -march=x86-64 -g -O0 -fpre-include=/usr/include/finclude/math-vector-fortran.h
REM seed -91370153 -304664646 942790020 1422111638 727058253 684684840 1287415295 -1273950169 -301453433 2077681894 520946203 -215600220 -520903052 -1952246473 1984973488 -1582362234 725723578 50461444 1878748139 -502223028 -299426906 -1421794831 1880035760 1238600036 -1132497488 -574042162 1706737746 494902977 306316532 -1788584463 113344831 1863772367 -493224524
REM
CELL 1.54180   50.00000   50.00000   50.00000   90.00000   90.00000   90.00000
LATT -1
SFAC C  
C      1  0.4394330000000  0.4533720000000  0.4525610000000 1.0
C      1  0.5108390000000  0.4530290000000  0.4231810000000 1.0
C      1  0.5714410000000  0.4534190000000  0.4712690000000 1.0
C      1  0.5611990000000  0.4532990000000  0.5476890000000 1.0
C      1  0.4891710000000  0.4534130000000  0.5761580000000 1.0
C      1  0.4280710000000  0.4532810000000  0.5290760000000 1.0
C      1  0.4998880000000  0.4945130000000  0.5280550000000 1.0
C      1  0.4748420000000  0.4885530000000  0.5147140000000 1.0
C      1  0.4756270000000  0.4943230000000  0.4856910000000 1.0
C      1  0.4997270000000  0.4883070000000  0.4707560000000 1.0
C      1  0.5244570000000  0.4944140000000  0.4859060000000 1.0
C      1  0.5253960000000  0.4884970000000  0.5142610000000 1.0
C      1  0.5494940000000  0.5075880000000  0.4765420000000 1.0
C      1  0.5450240000000  0.5061370000000  0.5305630000000 1.0
C      1  0.4955250000000  0.5076260000000  0.5544640000000 1.0
C      1  0.4509330000000  0.5061390000000  0.5236200000000 1.0
C      1  0.4550410000000  0.5075190000000  0.4687090000000 1.0
C      1  0.5040280000000  0.5058110000000  0.4455100000000 1.0
C      1  0.4935290000000  0.5535570000000  0.4135270000000 1.0
C      1  0.5711460000000  0.5545050000000  0.4510620000000 1.0
C      1  0.5778680000000  0.5540230000000  0.5371630000000 1.0
C      1  0.5068750000000  0.5539750000000  0.5869200000000 1.0
C      1  0.4305880000000  0.5546000000000  0.5480990000000 1.0
C      1  0.4217000000000  0.5539270000000  0.4617770000000 1.0
C      1  0.4862430000000  0.5626390000000  0.5709620000000 1.0
C      1  0.4345220000000  0.5635430000000  0.5224170000000 1.0
C      1  0.4458450000000  0.5630700000000  0.4522230000000 1.0
C      1  0.5138080000000  0.5624410000000  0.4298020000000 1.0
C      1  0.5676500000000  0.5638520000000  0.4767120000000 1.0
C      1  0.5536130000000  0.5628630000000  0.5465720000000 1.0
C      1  0.4567420000000  0.4937080000000  0.4400410000000 1.0
C      1  0.5300740000000  0.4937160000000  0.4327780000000 1.0
C      1  0.5734420000000  0.4939080000000  0.4923820000000 1.0
C      1  0.5431510000000  0.4938570000000  0.5594700000000 1.0
C      1  0.4698110000000  0.4938770000000  0.5672760000000 1.0
C      1  0.4269100000000  0.4939160000000  0.5075220000000 1.0
C      1  0.5786480000000  0.4925680000000  0.4390980000000 1.0
C      1  0.5923730000000  0.4924250000000  0.5376000000000 1.0
C      1  0.5134480000000  0.4924810000000  0.5984100000000 1.0
C      1  0.4211280000000  0.4924020000000  0.5610600000000 1.0
C      1  0.4080330000000  0.4926500000000  0.4622780000000 1.0
C      1  0.4864760000000  0.4918770000000  0.4010300000000 1.0
C      1  0.5508360000000  0.4174610000000  0.5141830000000 1.0
C      1  0.5138080000000  0.4155670000000  0.5529480000000 1.0
C      1  0.4623340000000  0.4174600000000  0.5368950000000 1.0
C      1  0.4471840000000  0.4154670000000  0.4854820000000 1.0
C      1  0.4869040000000  0.4172860000000  0.4489890000000 1.0
C      1  0.5390390000000  0.4154630000000  0.4615960000000 1.0
C      1  0.4631420000000  0.5654360000000  0.5133140000000 1.0
C      1  0.4680920000000  0.5654040000000  0.4726960000000 1.0
C      1  0.5072760000000  0.5633460000000  0.4593160000000 1.0
C      1  0.5387950000000  0.5657510000000  0.4857910000000 1.0
C      1  0.5313190000000  0.5645740000000  0.5262000000000 1.0
C      1  0.4926940000000  0.5654720000000  0.5414780000000 1.0
C      1  0.4155730000000  0.5364100000000  0.4820380000000 1.0
C      1  0.4731040000000  0.5357190000000  0.4175050000000 1.0
C      1  0.5578410000000  0.5362840000000  0.4353720000000 1.0
C      1  0.5845530000000  0.5361850000000  0.5174610000000 1.0
C      1  0.5272100000000  0.5361190000000  0.5823510000000 1.0
C      1  0.4426210000000  0.5360700000000  0.5643300000000 1.0
C      1  0.4566960000000  0.4473810000000  0.5383360000000 1.0
C      1  0.4452750000000  0.4460310000000  0.4820750000000 1.0
C      1  0.4884600000000  0.4471830000000  0.4433150000000 1.0
C      1  0.5429530000000  0.4460240000000  0.4615750000000 1.0
C      1  0.5548970000000  0.4473880000000  0.5183000000000 1.0
C      1  0.5118450000000  0.4461070000000  0.5563420000000 1.0
C      1  0.5833420000000  0.4722550000000  0.5564950000000 1.0
C      1  0.4928500000000  0.4720190000000  0.5999340000000 1.0
C      1  0.4093070000000  0.4722320000000  0.5437810000000 1.0
C      1  0.4169640000000  0.4719630000000  0.4438470000000 1.0
C      1  0.5074550000000  0.4718520000000  0.3995150000000 1.0
C      1  0.5902040000000  0.4720210000000  0.4561610000000 1.0
C      1  0.5271690000000  0.4581970000000  0.5114020000000 1.0
C      1  0.5040640000000  0.4504040000000  0.5275890000000 1.0
C      1  0.4765260000000  0.4582180000000  0.5177830000000 1.0
C      1  0.4740990000000  0.4502290000000  0.4897310000000 1.0
C      1  0.4963350000000  0.4580290000000  0.4707620000000 1.0
C      1  0.5219080000000  0.4502920000000  0.4826850000000 1.0
C      1  0.4177100000000  0.5494230000000  0.5059080000000 1.0
C      1  0.4523030000000  0.5483650000000  0.4299080000000 1.0
C      1  0.5366150000000  0.5485400000000  0.4234110000000 1.0
C      1  0.5838030000000  0.5489270000000  0.4932760000000 1.0
C      1  0.5475780000000  0.5486990000000  0.5693020000000 1.0
C      1  0.4638670000000  0.5477860000000  0.5768710000000 1.0
C      1  0.5372950000000  0.4630820000000  0.5608130000000 1.0
C      1  0.4651180000000  0.4630070000000  0.5631610000000 1.0
C      1  0.4287170000000  0.4631030000000  0.5018330000000 1.0
C      1  0.4627270000000  0.4628200000000  0.4381460000000 1.0
C      1  0.5341210000000  0.4629520000000  0.4372850000000 1.0
C      1  0.5721930000000  0.4630300000000  0.4985890000000 1.0
C      1  0.4872270000000  0.4081240000000  0.5463420000000 1.0
C      1  0.4533020000000  0.4080350000000  0.5119970000000 1.0
C      1  0.4662310000000  0.4080030000000  0.4658010000000 1.0
C      1  0.5130060000000  0.4079560000000  0.4537200000000 1.0
C      1  0.5466510000000  0.4080670000000  0.4879150000000 1.0
C      1  0.5337100000000  0.4080910000000  0.5344130000000 1.0
C      1  0.4724030000000  0.5360990000000  0.5115140000000 1.0
C      1  0.4764080000000  0.5377480000000  0.4816420000000 1.0
C      1  0.5037930000000  0.5348950000000  0.4703520000000 1.0
C      1  0.5275970000000  0.5378330000000  0.4888840000000 1.0
C      1  0.5237540000000  0.5355560000000  0.5182640000000 1.0
C      1  0.4958980000000  0.5379150000000  0.5295790000000 1.0
C      1  0.4257850000000  0.5081840000000  0.4799340000000 1.0
C      1  0.4800480000000  0.5074430000000  0.4251630000000 1.0
C      1  0.5544870000000  0.5081420000000  0.4455640000000 1.0
C      1  0.5746080000000  0.5078340000000  0.5198930000000 1.0
C      1  0.5199090000000  0.5080960000000  0.5742790000000 1.0
C      1  0.4453620000000  0.5077620000000  0.5544880000000 1.0
C      1  0.4764210000000  0.5938440000000  0.4822740000000 1.0
C      1  0.5042720000000  0.5907260000000  0.4732810000000 1.0
C      1  0.5261600000000  0.5932340000000  0.4928840000000 1.0
C      1  0.5200140000000  0.5937830000000  0.5217990000000 1.0
C      1  0.4914440000000  0.5948480000000  0.5301420000000 1.0
C      1  0.4729480000000  0.6025180000000  0.5094400000000 1.0
C      1  0.5710130000000  0.4956380000000  0.5698430000000 1.0
C      1  0.4748030000000  0.4953910000000  0.5966970000000 1.0
C      1  0.4039480000000  0.4956310000000  0.5264150000000 1.0
C      1  0.4287780000000  0.4952270000000  0.4296160000000 1.0
C      1  0.5250640000000  0.4953220000000  0.4034640000000 1.0
C      1  0.5964790000000  0.4954000000000  0.4734180000000 1.0
END
