TITL C-3577091-527-219 -2.45122077575742e-06 125000 -1019.88679487923 0 0 164 (C1) n - 1
REM
REM in /home/bkarasulu/work/CARBON/AIRSS/Generating-Clusters/EDIP-Nigel-Params/with-SteepDescent/Higher-Symm/SD-CG/HFTN-CG
REM
REM
REM
REM
REM
REM ./C.cell (12c818d87b63d06a65506943cc24bca4)
REM
REM compiler GCC version 9.2.1 20190827 (Red Hat 9.2.1-1)
REM options -cpp -mtune=generic -march=x86-64 -g -O0 -fpre-include=/usr/include/finclude/math-vector-fortran.h
REM seed -1455708105 -1901074685 995401658 -1455546661 -686644041 -2058325154 -36312013 -704666979 -2076383744 1953375306 1700449436 -1091238801 -710326953 233479857 2001254498 -1356140017 1924781164 -969904338 -878679791 -1223311096 1597439497 -77308327 -2072523354 1239855532 565190422 1309056361 -1672622883 1557233507 -2111547579 1564055905 994576091 1424751410 131590279
REM
CELL 1.54180   50.00000   50.00000   50.00000   90.00000   90.00000   90.00000
LATT -1
SFAC C  
C      1  0.5257190000000  0.4656450000000  0.5363420000000 1.0
C      1  0.4718330000000  0.5215500000000  0.4839550000000 1.0
C      1  0.5378550000000  0.5823540000000  0.5645450000000 1.0
C      1  0.4631970000000  0.4904310000000  0.5668880000000 1.0
C      1  0.5473710000000  0.5113320000000  0.5789710000000 1.0
C      1  0.5777270000000  0.4998540000000  0.4654160000000 1.0
C      1  0.5371180000000  0.5215770000000  0.4829950000000 1.0
C      1  0.5039960000000  0.5105040000000  0.5623240000000 1.0
C      1  0.4793530000000  0.4117060000000  0.4194340000000 1.0
C      1  0.4633290000000  0.5437860000000  0.4167150000000 1.0
C      1  0.5727120000000  0.5584140000000  0.4454920000000 1.0
C      1  0.4613770000000  0.5336600000000  0.5720770000000 1.0
C      1  0.5545250000000  0.4263930000000  0.5118520000000 1.0
C      1  0.4768490000000  0.6041210000000  0.5172810000000 1.0
C      1  0.4911940000000  0.5288930000000  0.5071370000000 1.0
C      1  0.4331040000000  0.5902420000000  0.4834120000000 1.0
C      1  0.4645600000000  0.5883920000000  0.4442120000000 1.0
C      1  0.4966430000000  0.4767080000000  0.4074390000000 1.0
C      1  0.5044860000000  0.5728090000000  0.4164040000000 1.0
C      1  0.4328130000000  0.4124950000000  0.5210510000000 1.0
C      1  0.3920580000000  0.4956690000000  0.4910980000000 1.0
C      1  0.5414290000000  0.5796940000000  0.5216050000000 1.0
C      1  0.4722180000000  0.4503210000000  0.5021730000000 1.0
C      1  0.4971170000000  0.3952220000000  0.5067660000000 1.0
C      1  0.4603520000000  0.4246920000000  0.4601550000000 1.0
C      1  0.4638920000000  0.5625650000000  0.4994790000000 1.0
C      1  0.4452940000000  0.4550280000000  0.5760350000000 1.0
C      1  0.5804920000000  0.4497810000000  0.4839250000000 1.0
C      1  0.5831770000000  0.5194110000000  0.5258420000000 1.0
C      1  0.5496900000000  0.5494110000000  0.4877310000000 1.0
C      1  0.5848690000000  0.5292770000000  0.5540340000000 1.0
C      1  0.5210040000000  0.4604650000000  0.5049840000000 1.0
C      1  0.4545370000000  0.4078540000000  0.5402730000000 1.0
C      1  0.4302760000000  0.3998290000000  0.4945870000000 1.0
C      1  0.5565450000000  0.5010650000000  0.4884660000000 1.0
C      1  0.4738740000000  0.5174040000000  0.5283260000000 1.0
C      1  0.4529690000000  0.4517640000000  0.4191010000000 1.0
C      1  0.4500370000000  0.4459350000000  0.4787670000000 1.0
C      1  0.6129760000000  0.5129760000000  0.4918350000000 1.0
C      1  0.4422930000000  0.4911990000000  0.5065170000000 1.0
C      1  0.4765280000000  0.4803660000000  0.4999880000000 1.0
C      1  0.4197920000000  0.5669920000000  0.4987730000000 1.0
C      1  0.5158910000000  0.5123400000000  0.5024500000000 1.0
C      1  0.5499820000000  0.4833230000000  0.5383180000000 1.0
C      1  0.4677790000000  0.4876060000000  0.4459460000000 1.0
C      1  0.5463750000000  0.5224820000000  0.4295050000000 1.0
C      1  0.4959440000000  0.4488960000000  0.4496990000000 1.0
C      1  0.5770040000000  0.5088800000000  0.5739260000000 1.0
C      1  0.4416210000000  0.5544900000000  0.5170810000000 1.0
C      1  0.5346860000000  0.4829010000000  0.5883220000000 1.0
C      1  0.4623150000000  0.4683760000000  0.5996270000000 1.0
C      1  0.5254390000000  0.4880760000000  0.4525830000000 1.0
C      1  0.4961350000000  0.5551680000000  0.4620290000000 1.0
C      1  0.5618600000000  0.5683570000000  0.5736270000000 1.0
C      1  0.5230350000000  0.5687770000000  0.4788710000000 1.0
C      1  0.4811980000000  0.3956850000000  0.5322800000000 1.0
C      1  0.4432400000000  0.5207890000000  0.5212650000000 1.0
C      1  0.3954960000000  0.4765250000000  0.5139170000000 1.0
C      1  0.4276810000000  0.4659400000000  0.4232080000000 1.0
C      1  0.5051460000000  0.4096930000000  0.4311190000000 1.0
C      1  0.4604290000000  0.3985580000000  0.4731610000000 1.0
C      1  0.5272950000000  0.4319460000000  0.4240170000000 1.0
C      1  0.4370350000000  0.5808500000000  0.4547350000000 1.0
C      1  0.5760660000000  0.4714640000000  0.5462660000000 1.0
C      1  0.5316030000000  0.4528940000000  0.5786910000000 1.0
C      1  0.5516310000000  0.6028790000000  0.5352530000000 1.0
C      1  0.4359690000000  0.5378760000000  0.4316010000000 1.0
C      1  0.5105890000000  0.5638340000000  0.5759780000000 1.0
C      1  0.5596400000000  0.5557950000000  0.5984160000000 1.0
C      1  0.4613720000000  0.4340630000000  0.5564070000000 1.0
C      1  0.4837740000000  0.5783360000000  0.5701100000000 1.0
C      1  0.5666470000000  0.4803350000000  0.4209090000000 1.0
C      1  0.4105410000000  0.4868010000000  0.4347810000000 1.0
C      1  0.4057260000000  0.4817410000000  0.4652270000000 1.0
C      1  0.4785130000000  0.5808890000000  0.5380020000000 1.0
C      1  0.4996030000000  0.5157600000000  0.5924830000000 1.0
C      1  0.4054180000000  0.5217320000000  0.4983080000000 1.0
C      1  0.4363820000000  0.4677240000000  0.5286470000000 1.0
C      1  0.5041190000000  0.4450870000000  0.5839980000000 1.0
C      1  0.4862390000000  0.5049710000000  0.4642900000000 1.0
C      1  0.4699380000000  0.5208270000000  0.5976100000000 1.0
C      1  0.5515200000000  0.5515690000000  0.4288870000000 1.0
C      1  0.5471140000000  0.4013880000000  0.4984040000000 1.0
C      1  0.5502190000000  0.4465940000000  0.4907770000000 1.0
C      1  0.4126510000000  0.5446880000000  0.4801890000000 1.0
C      1  0.5432020000000  0.4826390000000  0.4021750000000 1.0
C      1  0.4791510000000  0.5234940000000  0.4002490000000 1.0
C      1  0.5785220000000  0.5510710000000  0.4726870000000 1.0
C      1  0.5868050000000  0.4686410000000  0.4625750000000 1.0
C      1  0.5158420000000  0.5785830000000  0.5073890000000 1.0
C      1  0.5813390000000  0.4296780000000  0.5246110000000 1.0
C      1  0.3930770000000  0.4851590000000  0.5406200000000 1.0
C      1  0.4568630000000  0.4246610000000  0.4305870000000 1.0
C      1  0.4910570000000  0.4685210000000  0.5929560000000 1.0
C      1  0.4598190000000  0.5026150000000  0.3974170000000 1.0
C      1  0.5069650000000  0.4280900000000  0.4715590000000 1.0
C      1  0.5972050000000  0.4506480000000  0.5084700000000 1.0
C      1  0.5014330000000  0.5268530000000  0.4499930000000 1.0
C      1  0.4544310000000  0.4968860000000  0.6037340000000 1.0
C      1  0.4020070000000  0.4522360000000  0.4647640000000 1.0
C      1  0.5148970000000  0.5412520000000  0.5977900000000 1.0
C      1  0.4663560000000  0.5479180000000  0.4744840000000 1.0
C      1  0.4146990000000  0.5152330000000  0.4274860000000 1.0
C      1  0.5645520000000  0.5500160000000  0.5515490000000 1.0
C      1  0.5930380000000  0.5735410000000  0.4872530000000 1.0
C      1  0.5001340000000  0.4388700000000  0.4993270000000 1.0
C      1  0.5274610000000  0.4086070000000  0.5420280000000 1.0
C      1  0.4770710000000  0.5685940000000  0.4249530000000 1.0
C      1  0.5221000000000  0.4615640000000  0.4047550000000 1.0
C      1  0.4790710000000  0.4650620000000  0.4293750000000 1.0
C      1  0.4162260000000  0.4348710000000  0.5293540000000 1.0
C      1  0.4626680000000  0.5905860000000  0.4932500000000 1.0
C      1  0.5063930000000  0.4857580000000  0.4917810000000 1.0
C      1  0.4877900000000  0.3891460000000  0.4789300000000 1.0
C      1  0.4342730000000  0.4796660000000  0.5562470000000 1.0
C      1  0.5004840000000  0.4060060000000  0.5526060000000 1.0
C      1  0.5711260000000  0.4423090000000  0.5496230000000 1.0
C      1  0.4812580000000  0.5904020000000  0.4694380000000 1.0
C      1  0.4491870000000  0.5708940000000  0.5418570000000 1.0
C      1  0.5427380000000  0.5333520000000  0.5997100000000 1.0
C      1  0.5703640000000  0.4574800000000  0.4400270000000 1.0
C      1  0.5524560000000  0.4314980000000  0.4422280000000 1.0
C      1  0.5214550000000  0.4614310000000  0.4486550000000 1.0
C      1  0.4829070000000  0.5287110000000  0.5528980000000 1.0
C      1  0.5253110000000  0.3936050000000  0.5157910000000 1.0
C      1  0.4561050000000  0.5628700000000  0.5717130000000 1.0
C      1  0.5535730000000  0.5078510000000  0.5220030000000 1.0
C      1  0.5611230000000  0.5577510000000  0.5214820000000 1.0
C      1  0.4509350000000  0.4721950000000  0.4646210000000 1.0
C      1  0.5312770000000  0.5105410000000  0.4053930000000 1.0
C      1  0.4369590000000  0.5509170000000  0.4597030000000 1.0
C      1  0.4899280000000  0.4301730000000  0.5638670000000 1.0
C      1  0.4976820000000  0.4812300000000  0.5514130000000 1.0
C      1  0.5390530000000  0.4265190000000  0.4704240000000 1.0
C      1  0.5791120000000  0.6029260000000  0.5237220000000 1.0
C      1  0.4996690000000  0.5593930000000  0.5251400000000 1.0
C      1  0.5283010000000  0.5965110000000  0.4656510000000 1.0
C      1  0.5931210000000  0.4760600000000  0.5224010000000 1.0
C      1  0.4809520000000  0.4896040000000  0.5278060000000 1.0
C      1  0.5038710000000  0.6066550000000  0.5055520000000 1.0
C      1  0.5206640000000  0.5517670000000  0.5484780000000 1.0
C      1  0.5020380000000  0.5062780000000  0.4106060000000 1.0
C      1  0.4054760000000  0.5277650000000  0.5267150000000 1.0
C      1  0.5704000000000  0.5057970000000  0.4355660000000 1.0
C      1  0.5038090000000  0.6096240000000  0.4757170000000 1.0
C      1  0.5875080000000  0.5723890000000  0.5178320000000 1.0
C      1  0.5831230000000  0.6014880000000  0.4934550000000 1.0
C      1  0.5291700000000  0.5945090000000  0.4372750000000 1.0
C      1  0.4332080000000  0.4892880000000  0.4772290000000 1.0
C      1  0.5403070000000  0.4398680000000  0.5516470000000 1.0
C      1  0.5093750000000  0.4891960000000  0.6017970000000 1.0
C      1  0.5952920000000  0.5232830000000  0.4726340000000 1.0
C      1  0.4604900000000  0.4505240000000  0.5302050000000 1.0
C      1  0.4172310000000  0.4410940000000  0.4844200000000 1.0
C      1  0.4114910000000  0.4145600000000  0.4784810000000 1.0
C      1  0.5062280000000  0.3929510000000  0.4558540000000 1.0
C      1  0.5273000000000  0.5667200000000  0.4327660000000 1.0
C      1  0.5874970000000  0.4832980000000  0.5699220000000 1.0
C      1  0.4027390000000  0.4486300000000  0.5090030000000 1.0
C      1  0.5318340000000  0.5208810000000  0.5516090000000 1.0
C      1  0.4093510000000  0.5070020000000  0.5458400000000 1.0
C      1  0.5282700000000  0.5162580000000  0.4536670000000 1.0
C      1  0.6053250000000  0.5025200000000  0.5166970000000 1.0
C      1  0.4504380000000  0.5022790000000  0.4251900000000 1.0
END
