TITL C-3577078-809-343 -2.68955778131739e-07 125000 -95.821731227169 0 0 17 (D3h) n - 1
REM
REM in /home/bkarasulu/work/CARBON/AIRSS/Generating-Clusters/EDIP-Nigel-Params/with-SteepDescent/Higher-Symm/SD-CG/HFTN-CG
REM
REM
REM
REM
REM
REM ./C.cell (12c818d87b63d06a65506943cc24bca4)
REM
REM compiler GCC version 9.2.1 20190827 (Red Hat 9.2.1-1)
REM options -cpp -mtune=generic -march=x86-64 -g -O0 -fpre-include=/usr/include/finclude/math-vector-fortran.h
REM seed -454066172 -1859123526 136636677 -953315643 -247015286 -795758988 -13569867 1273868976 -1395055045 1156720739 1005005434 -1912928908 -180492268 -713297699 303563859 2123422395 -1355894728 -1000947532 -976523656 494818438 966784930 1323598316 -796074602 -2139668088 48330130 589709544 -1340993005 -2020458134 -2019162557 -539370881 -515558403 -1227505912 -468413463
REM
CELL 1.54180   50.00000   50.00000   50.00000   90.00000   90.00000   90.00000
LATT -1
SFAC C  
C      1  0.4775270000000  0.5414720000000  0.5128230000000 1.0
C      1  0.5216460000000  0.5414780000000  0.5146280000000 1.0
C      1  0.5011490000000  0.5414800000000  0.4755170000000 1.0
C      1  0.4775390000000  0.4564530000000  0.5128130000000 1.0
C      1  0.5216590000000  0.4564600000000  0.5146170000000 1.0
C      1  0.5011620000000  0.4564610000000  0.4755060000000 1.0
C      1  0.5261580000000  0.4708960000000  0.4873340000000 1.0
C      1  0.4752800000000  0.4708890000000  0.4852530000000 1.0
C      1  0.4989170000000  0.4708870000000  0.5303550000000 1.0
C      1  0.5261500000000  0.5270500000000  0.4873410000000 1.0
C      1  0.4752710000000  0.5270430000000  0.4852600000000 1.0
C      1  0.4989080000000  0.5270400000000  0.5303620000000 1.0
C      1  0.4990040000000  0.4989640000000  0.5281280000000 1.0
C      1  0.4771610000000  0.4989660000000  0.4864510000000 1.0
C      1  0.5241760000000  0.4989730000000  0.4883730000000 1.0
C      1  0.5001050000000  0.5602990000000  0.5009920000000 1.0
C      1  0.5001230000000  0.4376360000000  0.5009760000000 1.0
END
