TITL C-3577081-279-718 3.69015212254673e-07 125000 -65.5369545210168 0 0 13 (C1) n - 1
REM
REM in /home/bkarasulu/work/CARBON/AIRSS/Generating-Clusters/EDIP-Nigel-Params/with-SteepDescent/Higher-Symm/SD-CG/HFTN-CG
REM
REM
REM
REM
REM
REM ./C.cell (12c818d87b63d06a65506943cc24bca4)
REM
REM compiler GCC version 9.2.1 20190827 (Red Hat 9.2.1-1)
REM options -cpp -mtune=generic -march=x86-64 -g -O0 -fpre-include=/usr/include/finclude/math-vector-fortran.h
REM seed -1968265978 -362027196 1490636280 1195619217 2112009840 426100298 -261729898 530100812 1005565408 -961497367 -903354776 -1056436527 -2119764027 -575867176 1398146485 1000710623 -309737399 -1273122232 -1964029859 -235174892 -1940105133 -574668111 -411892223 -98095224 -1860107002 442742811 -1605883577 -2108004477 -1691522030 -183011611 -592601609 832848343 -217546680
REM
CELL 1.54180   50.00000   50.00000   50.00000   90.00000   90.00000   90.00000
LATT -1
SFAC C  
C      1  0.5274970000000  0.4907840000000  0.4920740000000 1.0
C      1  0.5148350000000  0.4772440000000  0.5151560000000 1.0
C      1  0.4868900000000  0.4723330000000  0.5093100000000 1.0
C      1  0.4701930000000  0.4945840000000  0.5071830000000 1.0
C      1  0.4784570000000  0.5214760000000  0.5092630000000 1.0
C      1  0.5021330000000  0.5324810000000  0.4974220000000 1.0
C      1  0.5280680000000  0.5199660000000  0.4971330000000 1.0
C      1  0.5008310000000  0.4997320000000  0.4779230000000 1.0
C      1  0.5015250000000  0.5051470000000  0.4245180000000 1.0
C      1  0.5043610000000  0.5024440000000  0.5298460000000 1.0
C      1  0.4948660000000  0.4990930000000  0.5825430000000 1.0
C      1  0.5029690000000  0.5030140000000  0.4499830000000 1.0
C      1  0.4989000000000  0.4989370000000  0.5572650000000 1.0
END
