TITL C-3577087-600-254 -2.71197520780069e-06 125000 -1008.70153321956 0 0 161 (C1) n - 1
REM
REM in /home/bkarasulu/work/CARBON/AIRSS/Generating-Clusters/EDIP-Nigel-Params/with-SteepDescent/Higher-Symm/SD-CG/HFTN-CG
REM
REM
REM
REM
REM
REM ./C.cell (12c818d87b63d06a65506943cc24bca4)
REM
REM compiler GCC version 9.2.1 20190827 (Red Hat 9.2.1-1)
REM options -cpp -mtune=generic -march=x86-64 -g -O0 -fpre-include=/usr/include/finclude/math-vector-fortran.h
REM seed 1698641005 1879182027 811768045 -1957193157 810914179 347487387 887273266 1711533853 -1912258930 461670239 44376007 1413646873 948658413 -1236214489 369340838 1844749179 1692026092 -1611166054 -1521571182 -1676964930 771858443 -785423883 538443657 -2116508264 -1311333638 58602657 877361722 -1718288793 -233492582 -830569187 1627820814 1287223263 1050595438
REM
CELL 1.54180   50.00000   50.00000   50.00000   90.00000   90.00000   90.00000
LATT -1
SFAC C  
C      1  0.4815930000000  0.5636970000000  0.4537590000000 1.0
C      1  0.4586980000000  0.4866700000000  0.5608910000000 1.0
C      1  0.5665530000000  0.4648420000000  0.4810480000000 1.0
C      1  0.4822060000000  0.4333040000000  0.5373060000000 1.0
C      1  0.5223620000000  0.4511640000000  0.4710440000000 1.0
C      1  0.5137080000000  0.5610300000000  0.5360580000000 1.0
C      1  0.4520290000000  0.5320390000000  0.4257130000000 1.0
C      1  0.5286050000000  0.5179000000000  0.5575350000000 1.0
C      1  0.5429050000000  0.4874920000000  0.4439640000000 1.0
C      1  0.5586570000000  0.5343580000000  0.5065950000000 1.0
C      1  0.4366510000000  0.5417520000000  0.4765300000000 1.0
C      1  0.4392610000000  0.4629410000000  0.5194050000000 1.0
C      1  0.4173050000000  0.5112270000000  0.4783220000000 1.0
C      1  0.4741320000000  0.4128540000000  0.5154810000000 1.0
C      1  0.5193090000000  0.4786770000000  0.4240630000000 1.0
C      1  0.4207810000000  0.4838100000000  0.5314010000000 1.0
C      1  0.5905840000000  0.4838170000000  0.4812350000000 1.0
C      1  0.5758520000000  0.5141940000000  0.5246180000000 1.0
C      1  0.4703850000000  0.5827770000000  0.4743630000000 1.0
C      1  0.5231690000000  0.5781260000000  0.5080400000000 1.0
C      1  0.5313780000000  0.4271380000000  0.4871840000000 1.0
C      1  0.5136910000000  0.5232650000000  0.5833370000000 1.0
C      1  0.4830820000000  0.5345790000000  0.4075970000000 1.0
C      1  0.4783860000000  0.4715460000000  0.5812780000000 1.0
C      1  0.4343630000000  0.5096630000000  0.5323080000000 1.0
C      1  0.5357510000000  0.4378280000000  0.5160270000000 1.0
C      1  0.5133510000000  0.5355380000000  0.4190580000000 1.0
C      1  0.4227220000000  0.4791340000000  0.4781110000000 1.0
C      1  0.5635710000000  0.4844870000000  0.5233420000000 1.0
C      1  0.5870320000000  0.5129370000000  0.4726070000000 1.0
C      1  0.5252520000000  0.5760610000000  0.4734500000000 1.0
C      1  0.4779220000000  0.5571740000000  0.5093320000000 1.0
C      1  0.4685880000000  0.4227040000000  0.4863540000000 1.0
C      1  0.5198290000000  0.4753750000000  0.5685000000000 1.0
C      1  0.4954580000000  0.4787810000000  0.4418980000000 1.0
C      1  0.4831410000000  0.5250620000000  0.5782870000000 1.0
C      1  0.5729530000000  0.5204350000000  0.5537660000000 1.0
C      1  0.5540010000000  0.5773760000000  0.5143540000000 1.0
C      1  0.5231800000000  0.5517010000000  0.5892360000000 1.0
C      1  0.5775170000000  0.4741070000000  0.4327760000000 1.0
C      1  0.4156840000000  0.4773590000000  0.5604540000000 1.0
C      1  0.4105970000000  0.5186780000000  0.4491620000000 1.0
C      1  0.5601980000000  0.4182490000000  0.4815110000000 1.0
C      1  0.4472970000000  0.4037880000000  0.5264600000000 1.0
C      1  0.4413000000000  0.5844930000000  0.4672230000000 1.0
C      1  0.5216660000000  0.4509280000000  0.4143480000000 1.0
C      1  0.4757380000000  0.4418930000000  0.5801440000000 1.0
C      1  0.4757260000000  0.5653720000000  0.4098570000000 1.0
C      1  0.5627850000000  0.4905280000000  0.5931960000000 1.0
C      1  0.5936650000000  0.5565670000000  0.4944640000000 1.0
C      1  0.4944440000000  0.5884360000000  0.5557580000000 1.0
C      1  0.5587270000000  0.5126890000000  0.4078280000000 1.0
C      1  0.4422430000000  0.4997920000000  0.5934460000000 1.0
C      1  0.4443440000000  0.5039020000000  0.4178120000000 1.0
C      1  0.5934280000000  0.4344200000000  0.5175270000000 1.0
C      1  0.4170230000000  0.4424640000000  0.5134940000000 1.0
C      1  0.4077740000000  0.5578300000000  0.4960720000000 1.0
C      1  0.4939160000000  0.4193670000000  0.4405680000000 1.0
C      1  0.5026130000000  0.4076120000000  0.5580130000000 1.0
C      1  0.4944370000000  0.5974850000000  0.4394630000000 1.0
C      1  0.4744360000000  0.5147990000000  0.5490230000000 1.0
C      1  0.5625570000000  0.4557590000000  0.5092230000000 1.0
C      1  0.5067430000000  0.5521740000000  0.4663590000000 1.0
C      1  0.4710320000000  0.5113280000000  0.4668100000000 1.0
C      1  0.5396470000000  0.4915800000000  0.5536200000000 1.0
C      1  0.5415010000000  0.5161080000000  0.4543270000000 1.0
C      1  0.5587310000000  0.5201270000000  0.4783890000000 1.0
C      1  0.4490460000000  0.5469780000000  0.5057550000000 1.0
C      1  0.4499500000000  0.4735930000000  0.4918250000000 1.0
C      1  0.5044910000000  0.4504410000000  0.5265190000000 1.0
C      1  0.4950230000000  0.4533810000000  0.4590280000000 1.0
C      1  0.4844730000000  0.5488610000000  0.5381110000000 1.0
C      1  0.5667190000000  0.5677450000000  0.4412240000000 1.0
C      1  0.4586470000000  0.5629850000000  0.5627920000000 1.0
C      1  0.5780500000000  0.4467030000000  0.5698130000000 1.0
C      1  0.5577380000000  0.4161160000000  0.5565860000000 1.0
C      1  0.4273330000000  0.4258400000000  0.4583680000000 1.0
C      1  0.4265680000000  0.5700540000000  0.5341210000000 1.0
C      1  0.4452860000000  0.4433430000000  0.4181690000000 1.0
C      1  0.5509590000000  0.4415000000000  0.5646300000000 1.0
C      1  0.5484930000000  0.5716900000000  0.4209380000000 1.0
C      1  0.5864620000000  0.5480360000000  0.4379690000000 1.0
C      1  0.4320250000000  0.5544760000000  0.5562400000000 1.0
C      1  0.4276760000000  0.4455980000000  0.4393150000000 1.0
C      1  0.4255440000000  0.5815250000000  0.4918770000000 1.0
C      1  0.5027030000000  0.4301290000000  0.5759130000000 1.0
C      1  0.5791020000000  0.5020270000000  0.4241680000000 1.0
C      1  0.4269770000000  0.4144370000000  0.5062350000000 1.0
C      1  0.5729810000000  0.4132810000000  0.5086440000000 1.0
C      1  0.5710850000000  0.5732360000000  0.4912660000000 1.0
C      1  0.4992000000000  0.5805450000000  0.4172530000000 1.0
C      1  0.5005860000000  0.5686550000000  0.5774880000000 1.0
C      1  0.4943730000000  0.4390440000000  0.4182730000000 1.0
C      1  0.5787810000000  0.4955180000000  0.5703240000000 1.0
C      1  0.4208530000000  0.4955590000000  0.4329650000000 1.0
C      1  0.4210490000000  0.5034100000000  0.5738020000000 1.0
C      1  0.5144180000000  0.5270570000000  0.4490670000000 1.0
C      1  0.4510940000000  0.5188080000000  0.5116280000000 1.0
C      1  0.4932800000000  0.4624980000000  0.5025420000000 1.0
C      1  0.4989790000000  0.4725860000000  0.5481300000000 1.0
C      1  0.4962480000000  0.5038970000000  0.4567280000000 1.0
C      1  0.4932270000000  0.4973890000000  0.5348880000000 1.0
C      1  0.4655160000000  0.5001540000000  0.4938600000000 1.0
C      1  0.5347380000000  0.4865130000000  0.5238380000000 1.0
C      1  0.5224160000000  0.4969460000000  0.4986670000000 1.0
C      1  0.5238400000000  0.5271430000000  0.5046920000000 1.0
C      1  0.5004180000000  0.5431010000000  0.4933140000000 1.0
C      1  0.4740190000000  0.4525070000000  0.4824730000000 1.0
C      1  0.4285310000000  0.4541850000000  0.5714460000000 1.0
C      1  0.5755480000000  0.4335120000000  0.4618390000000 1.0
C      1  0.4514080000000  0.5747350000000  0.4204660000000 1.0
C      1  0.4172030000000  0.5451460000000  0.4375550000000 1.0
C      1  0.5662250000000  0.5489680000000  0.5598230000000 1.0
C      1  0.5646450000000  0.4489840000000  0.4398340000000 1.0
C      1  0.5641660000000  0.5657160000000  0.5375890000000 1.0
C      1  0.4337630000000  0.5691860000000  0.4417750000000 1.0
C      1  0.4436710000000  0.4117120000000  0.5532860000000 1.0
C      1  0.4473040000000  0.4321180000000  0.5729820000000 1.0
C      1  0.5444830000000  0.4379850000000  0.4238750000000 1.0
C      1  0.5498360000000  0.5562800000000  0.5813910000000 1.0
C      1  0.4016960000000  0.4626540000000  0.4947140000000 1.0
C      1  0.4883850000000  0.4090870000000  0.4677800000000 1.0
C      1  0.4668580000000  0.4864260000000  0.4091640000000 1.0
C      1  0.4025950000000  0.5367890000000  0.5173090000000 1.0
C      1  0.6038780000000  0.5303290000000  0.4910960000000 1.0
C      1  0.6007300000000  0.4621460000000  0.5290120000000 1.0
C      1  0.4805690000000  0.5908390000000  0.5285800000000 1.0
C      1  0.5113000000000  0.6009560000000  0.4626920000000 1.0
C      1  0.5181380000000  0.3986330000000  0.5350120000000 1.0
C      1  0.4685460000000  0.5102060000000  0.5999640000000 1.0
C      1  0.5320590000000  0.5187500000000  0.4014560000000 1.0
C      1  0.5381850000000  0.4794890000000  0.6027340000000 1.0
C      1  0.6046040000000  0.5133960000000  0.5155930000000 1.0
C      1  0.5016480000000  0.6006760000000  0.5097830000000 1.0
C      1  0.5160190000000  0.5001960000000  0.6043940000000 1.0
C      1  0.6053550000000  0.4843880000000  0.5075670000000 1.0
C      1  0.3959840000000  0.4861710000000  0.5133270000000 1.0
C      1  0.3959830000000  0.5133020000000  0.4998770000000 1.0
C      1  0.5115070000000  0.4034740000000  0.4856510000000 1.0
C      1  0.4997400000000  0.3958470000000  0.5119940000000 1.0
C      1  0.4897990000000  0.6049760000000  0.4829420000000 1.0
C      1  0.5148640000000  0.4956150000000  0.3995480000000 1.0
C      1  0.4883170000000  0.4887480000000  0.6059890000000 1.0
C      1  0.4868690000000  0.5045100000000  0.3976200000000 1.0
C      1  0.4406050000000  0.4149670000000  0.4800030000000 1.0
C      1  0.4694800000000  0.4565080000000  0.4133200000000 1.0
C      1  0.4247250000000  0.4721420000000  0.4496500000000 1.0
C      1  0.4439070000000  0.5845580000000  0.5165550000000 1.0
C      1  0.5548480000000  0.5718450000000  0.4674070000000 1.0
C      1  0.5462170000000  0.4114340000000  0.5301770000000 1.0
C      1  0.4767140000000  0.5532760000000  0.5814280000000 1.0
C      1  0.5222900000000  0.5634020000000  0.4175370000000 1.0
C      1  0.5279680000000  0.4487090000000  0.5810790000000 1.0
C      1  0.4181220000000  0.5284820000000  0.5490540000000 1.0
C      1  0.5917660000000  0.5207270000000  0.4432670000000 1.0
C      1  0.5882650000000  0.4699200000000  0.5564080000000 1.0
C      1  0.5385400000000  0.4761060000000  0.4730820000000 1.0
C      1  0.4609810000000  0.5370680000000  0.4558410000000 1.0
C      1  0.4587500000000  0.4574340000000  0.5422940000000 1.0
C      1  0.5317990000000  0.5372100000000  0.5345820000000 1.0
C      1  0.4926580000000  0.4912840000000  0.5058400000000 1.0
END
