TITL C-3578200-9634-760 -8.06060989001924e-07 125000 -1180.95950249617 0 0 189 (C1) n - 1
REM
REM in /home/bkarasulu/work/CARBON/AIRSS/Generating-Clusters/EDIP-Nigel-Params/with-SteepDescent/Higher-Symm/SD-CG/HFTN-CG
REM
REM
REM
REM
REM
REM ./C.cell (12c818d87b63d06a65506943cc24bca4)
REM
REM compiler GCC version 9.2.1 20190827 (Red Hat 9.2.1-1)
REM options -cpp -mtune=generic -march=x86-64 -g -O0 -fpre-include=/usr/include/finclude/math-vector-fortran.h
REM seed 6971958 468209270 1081652388 -1294362558 -2089358404 -323696046 1702197609 -1428548326 -808974969 -1751297464 872967081 1942897894 897706254 422207833 1582354986 848192966 -85489736 -23516748 210085400 254980468 431807678 -1560772454 529768527 1827754117 1206665532 -705719851 -959235043 -1310440138 -1578228040 1936485925 -1849692329 318911680 -1755763570
REM
CELL 1.54180   50.00000   50.00000   50.00000   90.00000   90.00000   90.00000
LATT -1
SFAC C  
C      1  0.4646500000000  0.6116700000000  0.4808510000000 1.0
C      1  0.3867200000000  0.4634120000000  0.5195910000000 1.0
C      1  0.5362680000000  0.3896530000000  0.4791220000000 1.0
C      1  0.6126990000000  0.5369040000000  0.5208680000000 1.0
C      1  0.5307160000000  0.4821070000000  0.4913230000000 1.0
C      1  0.5142610000000  0.5241290000000  0.5095610000000 1.0
C      1  0.4703070000000  0.5159380000000  0.4898620000000 1.0
C      1  0.4833850000000  0.4749880000000  0.5093870000000 1.0
C      1  0.5662700000000  0.4127690000000  0.5021250000000 1.0
C      1  0.5892440000000  0.5655700000000  0.4963220000000 1.0
C      1  0.4340970000000  0.5895620000000  0.5042620000000 1.0
C      1  0.4095820000000  0.4338460000000  0.4956310000000 1.0
C      1  0.5488440000000  0.5256370000000  0.4104950000000 1.0
C      1  0.4720410000000  0.5449450000000  0.5893330000000 1.0
C      1  0.4529910000000  0.4726400000000  0.4103240000000 1.0
C      1  0.5279580000000  0.4517660000000  0.5905460000000 1.0
C      1  0.5160060000000  0.5206700000000  0.4620800000000 1.0
C      1  0.4767560000000  0.5164830000000  0.5383660000000 1.0
C      1  0.4811590000000  0.4776850000000  0.4621620000000 1.0
C      1  0.5203980000000  0.4836300000000  0.5391790000000 1.0
C      1  0.4908170000000  0.4492770000000  0.3899070000000 1.0
C      1  0.5511930000000  0.4901240000000  0.6116460000000 1.0
C      1  0.5106290000000  0.5503790000000  0.3889880000000 1.0
C      1  0.4490020000000  0.5068570000000  0.6090510000000 1.0
C      1  0.5260530000000  0.5633810000000  0.4285890000000 1.0
C      1  0.4284230000000  0.5275330000000  0.5753530000000 1.0
C      1  0.4708980000000  0.4292980000000  0.4243450000000 1.0
C      1  0.5660790000000  0.4741550000000  0.5727870000000 1.0
C      1  0.4279650000000  0.4875080000000  0.5998540000000 1.0
C      1  0.5105330000000  0.4283080000000  0.3991270000000 1.0
C      1  0.5730540000000  0.5098940000000  0.6016600000000 1.0
C      1  0.4913920000000  0.5728340000000  0.3989660000000 1.0
C      1  0.4948160000000  0.5476760000000  0.5126160000000 1.0
C      1  0.4487680000000  0.4945790000000  0.4874070000000 1.0
C      1  0.5038990000000  0.4523960000000  0.5120890000000 1.0
C      1  0.5500800000000  0.5048980000000  0.4890560000000 1.0
C      1  0.4740300000000  0.5000050000000  0.4442100000000 1.0
C      1  0.4967260000000  0.4756000000000  0.5543500000000 1.0
C      1  0.5220770000000  0.4965030000000  0.4466790000000 1.0
C      1  0.4995750000000  0.5243650000000  0.5555650000000 1.0
C      1  0.4424900000000  0.4509730000000  0.4598160000000 1.0
C      1  0.5489860000000  0.4450330000000  0.5384720000000 1.0
C      1  0.5561150000000  0.5476780000000  0.4617330000000 1.0
C      1  0.4501550000000  0.5558460000000  0.5398420000000 1.0
C      1  0.5641640000000  0.5427640000000  0.5349180000000 1.0
C      1  0.4570550000000  0.5645410000000  0.4663040000000 1.0
C      1  0.4348160000000  0.4568330000000  0.5339210000000 1.0
C      1  0.5426620000000  0.4375740000000  0.4639870000000 1.0
C      1  0.6262270000000  0.5234010000000  0.4757000000000 1.0
C      1  0.4791110000000  0.6242520000000  0.5265350000000 1.0
C      1  0.3744210000000  0.4792140000000  0.4741520000000 1.0
C      1  0.5218020000000  0.3763000000000  0.5245740000000 1.0
C      1  0.5360150000000  0.4408340000000  0.3984480000000 1.0
C      1  0.5583880000000  0.5348440000000  0.5986830000000 1.0
C      1  0.4657650000000  0.5591650000000  0.4017460000000 1.0
C      1  0.4408530000000  0.4622540000000  0.5996960000000 1.0
C      1  0.5415960000000  0.5718470000000  0.4502850000000 1.0
C      1  0.4252360000000  0.5415950000000  0.5505440000000 1.0
C      1  0.4572880000000  0.4261910000000  0.4494130000000 1.0
C      1  0.5729710000000  0.4598850000000  0.5493980000000 1.0
C      1  0.5320450000000  0.3948200000000  0.4505960000000 1.0
C      1  0.6067290000000  0.5325560000000  0.5493140000000 1.0
C      1  0.4689220000000  0.6065700000000  0.4521410000000 1.0
C      1  0.3928680000000  0.4672420000000  0.5481520000000 1.0
C      1  0.4783870000000  0.4887030000000  0.4147870000000 1.0
C      1  0.5097520000000  0.4760600000000  0.5908070000000 1.0
C      1  0.5231720000000  0.5090210000000  0.4099880000000 1.0
C      1  0.4885020000000  0.5196690000000  0.5849750000000 1.0
C      1  0.5578170000000  0.4174200000000  0.5295850000000 1.0
C      1  0.5843690000000  0.5559930000000  0.4693730000000 1.0
C      1  0.4421620000000  0.5841260000000  0.5316170000000 1.0
C      1  0.4145160000000  0.4426680000000  0.4683520000000 1.0
C      1  0.4294360000000  0.4420640000000  0.5826740000000 1.0
C      1  0.5567540000000  0.4296740000000  0.4150020000000 1.0
C      1  0.5705740000000  0.5573640000000  0.5832510000000 1.0
C      1  0.4435360000000  0.5716510000000  0.4175040000000 1.0
C      1  0.4364540000000  0.4734020000000  0.4364380000000 1.0
C      1  0.5264020000000  0.4382460000000  0.5626900000000 1.0
C      1  0.5624900000000  0.5219660000000  0.4387530000000 1.0
C      1  0.4725170000000  0.5617140000000  0.5633330000000 1.0
C      1  0.4772160000000  0.4078680000000  0.4628260000000 1.0
C      1  0.5921890000000  0.4787560000000  0.5364910000000 1.0
C      1  0.5229540000000  0.5914520000000  0.4633410000000 1.0
C      1  0.4065640000000  0.5222460000000  0.5369110000000 1.0
C      1  0.4679030000000  0.5356140000000  0.5174160000000 1.0
C      1  0.4612370000000  0.4682270000000  0.4818850000000 1.0
C      1  0.5295120000000  0.4651630000000  0.5183910000000 1.0
C      1  0.5360770000000  0.5302820000000  0.4827230000000 1.0
C      1  0.5133810000000  0.4438320000000  0.4597510000000 1.0
C      1  0.5562550000000  0.5141890000000  0.5402780000000 1.0
C      1  0.4855940000000  0.5567530000000  0.4609880000000 1.0
C      1  0.4423220000000  0.4855860000000  0.5394880000000 1.0
C      1  0.4457570000000  0.5846650000000  0.4452910000000 1.0
C      1  0.4155410000000  0.4445660000000  0.5552690000000 1.0
C      1  0.5540960000000  0.4173710000000  0.4431610000000 1.0
C      1  0.5839650000000  0.5548630000000  0.5557320000000 1.0
C      1  0.5970460000000  0.5039280000000  0.5542600000000 1.0
C      1  0.4974760000000  0.5967320000000  0.4459720000000 1.0
C      1  0.4017720000000  0.4959980000000  0.5537840000000 1.0
C      1  0.5030730000000  0.4032890000000  0.4453990000000 1.0
C      1  0.4625970000000  0.4458220000000  0.4011530000000 1.0
C      1  0.5540910000000  0.4636520000000  0.5969830000000 1.0
C      1  0.5370010000000  0.5521090000000  0.4043670000000 1.0
C      1  0.4453160000000  0.5351780000000  0.5984390000000 1.0
C      1  0.6005080000000  0.5325930000000  0.4638840000000 1.0
C      1  0.4618170000000  0.6037730000000  0.5424170000000 1.0
C      1  0.3948270000000  0.4625190000000  0.4580200000000 1.0
C      1  0.5380670000000  0.3975440000000  0.5398250000000 1.0
C      1  0.4269680000000  0.5471450000000  0.4231230000000 1.0
C      1  0.4534030000000  0.4266790000000  0.5760180000000 1.0
C      1  0.5719040000000  0.4539120000000  0.4212510000000 1.0
C      1  0.5456600000000  0.5729350000000  0.5767810000000 1.0
C      1  0.5049210000000  0.5945970000000  0.5529500000000 1.0
C      1  0.4038710000000  0.5060610000000  0.4479180000000 1.0
C      1  0.4946090000000  0.4052420000000  0.5510580000000 1.0
C      1  0.6037920000000  0.4919150000000  0.4460710000000 1.0
C      1  0.5220290000000  0.5545700000000  0.5794210000000 1.0
C      1  0.4445130000000  0.5230230000000  0.4201910000000 1.0
C      1  0.4771350000000  0.4442180000000  0.5784770000000 1.0
C      1  0.5526390000000  0.4763440000000  0.4212210000000 1.0
C      1  0.4938750000000  0.3827000000000  0.5325500000000 1.0
C      1  0.6235510000000  0.4946770000000  0.4670890000000 1.0
C      1  0.5066810000000  0.6166900000000  0.5340540000000 1.0
C      1  0.3814710000000  0.5070530000000  0.4666240000000 1.0
C      1  0.4296650000000  0.4157350000000  0.5072830000000 1.0
C      1  0.5851120000000  0.4318260000000  0.4897170000000 1.0
C      1  0.5692080000000  0.5836010000000  0.5077930000000 1.0
C      1  0.4156950000000  0.5700770000000  0.4922550000000 1.0
C      1  0.4289470000000  0.4933030000000  0.5089280000000 1.0
C      1  0.5060800000000  0.4315090000000  0.4907010000000 1.0
C      1  0.5710400000000  0.5070330000000  0.5092510000000 1.0
C      1  0.4936970000000  0.5684700000000  0.4915580000000 1.0
C      1  0.5397150000000  0.4172040000000  0.4890380000000 1.0
C      1  0.5853820000000  0.5393850000000  0.5104500000000 1.0
C      1  0.4604640000000  0.5846110000000  0.4912360000000 1.0
C      1  0.4138450000000  0.4600540000000  0.5091900000000 1.0
C      1  0.4242830000000  0.4136930000000  0.5370940000000 1.0
C      1  0.5857760000000  0.4251800000000  0.4600510000000 1.0
C      1  0.5747200000000  0.5859020000000  0.5375140000000 1.0
C      1  0.4141800000000  0.5758110000000  0.4625030000000 1.0
C      1  0.4988350000000  0.5728660000000  0.4282910000000 1.0
C      1  0.4249710000000  0.4988600000000  0.5720890000000 1.0
C      1  0.4997340000000  0.4264180000000  0.4272480000000 1.0
C      1  0.5737500000000  0.5018030000000  0.5726030000000 1.0
C      1  0.4730700000000  0.4874200000000  0.5368450000000 1.0
C      1  0.5102180000000  0.4737830000000  0.4641430000000 1.0
C      1  0.5249840000000  0.5122380000000  0.5376020000000 1.0
C      1  0.4870350000000  0.5260990000000  0.4616950000000 1.0
C      1  0.3721710000000  0.4823940000000  0.5037640000000 1.0
C      1  0.5181990000000  0.3741870000000  0.4950990000000 1.0
C      1  0.6292310000000  0.5194290000000  0.5050050000000 1.0
C      1  0.4827270000000  0.6268560000000  0.4970210000000 1.0
C      1  0.5008280000000  0.4708140000000  0.4071900000000 1.0
C      1  0.5248020000000  0.5011540000000  0.6017920000000 1.0
C      1  0.4985080000000  0.5245450000000  0.3986940000000 1.0
C      1  0.4706200000000  0.4968940000000  0.5918680000000 1.0
C      1  0.5838720000000  0.4523260000000  0.4483810000000 1.0
C      1  0.5473240000000  0.5829160000000  0.5484440000000 1.0
C      1  0.4165400000000  0.5483740000000  0.4512800000000 1.0
C      1  0.4518220000000  0.4164160000000  0.5479230000000 1.0
C      1  0.5031390000000  0.5557560000000  0.5548510000000 1.0
C      1  0.4426470000000  0.5042590000000  0.4448810000000 1.0
C      1  0.4956060000000  0.4440480000000  0.5542310000000 1.0
C      1  0.5516030000000  0.4928420000000  0.4464130000000 1.0
C      1  0.4835310000000  0.3867800000000  0.5052070000000 1.0
C      1  0.6172470000000  0.4847810000000  0.4948200000000 1.0
C      1  0.5167040000000  0.6122790000000  0.5065400000000 1.0
C      1  0.3854440000000  0.5169760000000  0.4941900000000 1.0
C      1  0.5192420000000  0.5861760000000  0.4921530000000 1.0
C      1  0.4116420000000  0.5192580000000  0.5081490000000 1.0
C      1  0.4806570000000  0.4130770000000  0.4914910000000 1.0
C      1  0.5899480000000  0.4818900000000  0.5071760000000 1.0
C      1  0.5391220000000  0.5602830000000  0.5303850000000 1.0
C      1  0.4387020000000  0.5396910000000  0.4698610000000 1.0
C      1  0.4599340000000  0.4390430000000  0.5296620000000 1.0
C      1  0.5621060000000  0.4636290000000  0.4663810000000 1.0
C      1  0.5921700000000  0.5173070000000  0.4411560000000 1.0
C      1  0.4782290000000  0.5911310000000  0.5633670000000 1.0
C      1  0.4070980000000  0.4793980000000  0.4371680000000 1.0
C      1  0.5213970000000  0.4089760000000  0.5611620000000 1.0
C      1  0.4285920000000  0.5425070000000  0.4976740000000 1.0
C      1  0.4569210000000  0.4290840000000  0.5020290000000 1.0
C      1  0.5741350000000  0.4597340000000  0.4939550000000 1.0
C      1  0.5423740000000  0.5695510000000  0.5025610000000 1.0
C      1  0.4792150000000  0.4682600000000  0.5983100000000 1.0
C      1  0.5294130000000  0.4790280000000  0.4007720000000 1.0
C      1  0.5315960000000  0.5281870000000  0.5896360000000 1.0
C      1  0.4713850000000  0.5320700000000  0.4104360000000 1.0
C      1  0.4968970000000  0.5005730000000  0.4967100000000 1.0
END
