TITL C-3578206-1180-39 -1.49037619587695e-06 125000 -1214.48335400412 0 0 192 (C2) n - 1
REM
REM in /home/bkarasulu/work/CARBON/AIRSS/Generating-Clusters/EDIP-Nigel-Params/with-SteepDescent/Higher-Symm/SD-CG/HFTN-CG
REM
REM
REM
REM
REM
REM ./C.cell (12c818d87b63d06a65506943cc24bca4)
REM
REM compiler GCC version 9.2.1 20190827 (Red Hat 9.2.1-1)
REM options -cpp -mtune=generic -march=x86-64 -g -O0 -fpre-include=/usr/include/finclude/math-vector-fortran.h
REM seed -1635952813 748321154 -189411328 805423310 1588488758 1355200425 431672279 -626179565 -2087587614 1256428924 -1027750014 -397302287 317963737 -507366435 -511100494 -582524587 1768924656 -1889200174 -506321205 -1382519199 -104551096 -1702147499 -1712393364 -604343451 623421040 562537655 -1396150201 -169886321 -2015344986 384390750 1021201072 3160738 1989497260
REM
CELL 1.54180   50.00000   50.00000   50.00000   90.00000   90.00000   90.00000
LATT -1
SFAC C  
C      1  0.5881490000000  0.4332170000000  0.5042710000000 1.0
C      1  0.4113710000000  0.4328680000000  0.4957140000000 1.0
C      1  0.4118510000000  0.5667820000000  0.5042910000000 1.0
C      1  0.5886280000000  0.5671330000000  0.4957060000000 1.0
C      1  0.4583110000000  0.4420360000000  0.4122190000000 1.0
C      1  0.5414840000000  0.4422870000000  0.5877140000000 1.0
C      1  0.5416750000000  0.5579720000000  0.4122180000000 1.0
C      1  0.4585300000000  0.5577040000000  0.5877260000000 1.0
C      1  0.5589610000000  0.4522840000000  0.3979350000000 1.0
C      1  0.4410020000000  0.4522070000000  0.6020920000000 1.0
C      1  0.4410240000000  0.5477260000000  0.3979490000000 1.0
C      1  0.5590140000000  0.5477830000000  0.6020870000000 1.0
C      1  0.4980460000000  0.5745690000000  0.5590320000000 1.0
C      1  0.5022560000000  0.5749170000000  0.4408830000000 1.0
C      1  0.5019630000000  0.4254250000000  0.5590240000000 1.0
C      1  0.4977340000000  0.4250880000000  0.4408760000000 1.0
C      1  0.4528040000000  0.5523300000000  0.5238520000000 1.0
C      1  0.5477200000000  0.5532060000000  0.4756950000000 1.0
C      1  0.5472000000000  0.4476680000000  0.5238400000000 1.0
C      1  0.4522770000000  0.4467960000000  0.4756970000000 1.0
C      1  0.5452000000000  0.5980470000000  0.4362980000000 1.0
C      1  0.4550760000000  0.5976350000000  0.5636630000000 1.0
C      1  0.4547900000000  0.4019590000000  0.4362950000000 1.0
C      1  0.5449340000000  0.4023590000000  0.5636460000000 1.0
C      1  0.4970070000000  0.4690630000000  0.4451640000000 1.0
C      1  0.5031270000000  0.4693670000000  0.5553590000000 1.0
C      1  0.5029850000000  0.5309420000000  0.4451670000000 1.0
C      1  0.4968820000000  0.5306270000000  0.5553630000000 1.0
C      1  0.5009920000000  0.4563290000000  0.4723820000000 1.0
C      1  0.4988420000000  0.4573510000000  0.5281390000000 1.0
C      1  0.4990040000000  0.5436740000000  0.4723860000000 1.0
C      1  0.5011630000000  0.5426460000000  0.5281430000000 1.0
C      1  0.4560070000000  0.5342260000000  0.4374570000000 1.0
C      1  0.5440280000000  0.5343280000000  0.5625610000000 1.0
C      1  0.5439830000000  0.4657800000000  0.4374470000000 1.0
C      1  0.4559820000000  0.4656660000000  0.5625650000000 1.0
C      1  0.5065420000000  0.4830260000000  0.5132360000000 1.0
C      1  0.4934660000000  0.4788890000000  0.4886370000000 1.0
C      1  0.4934600000000  0.5169730000000  0.5132390000000 1.0
C      1  0.5065320000000  0.5211120000000  0.4886380000000 1.0
C      1  0.5733650000000  0.5692200000000  0.5448450000000 1.0
C      1  0.4268670000000  0.5691040000000  0.4551670000000 1.0
C      1  0.4266420000000  0.4307760000000  0.5448490000000 1.0
C      1  0.5731260000000  0.4309000000000  0.4551490000000 1.0
C      1  0.4541150000000  0.4837620000000  0.4646650000000 1.0
C      1  0.5461660000000  0.4844030000000  0.5351610000000 1.0
C      1  0.5458790000000  0.5162410000000  0.4646590000000 1.0
C      1  0.4538390000000  0.5155940000000  0.5351700000000 1.0
C      1  0.5342080000000  0.5912820000000  0.5098870000000 1.0
C      1  0.4664390000000  0.5908860000000  0.4902730000000 1.0
C      1  0.4657930000000  0.4087170000000  0.5098840000000 1.0
C      1  0.5335600000000  0.4091150000000  0.4902590000000 1.0
C      1  0.4085970000000  0.5373900000000  0.5005600000000 1.0
C      1  0.5919720000000  0.5377040000000  0.4993510000000 1.0
C      1  0.5914030000000  0.4626100000000  0.5005420000000 1.0
C      1  0.4080280000000  0.4622960000000  0.4993620000000 1.0
C      1  0.4733260000000  0.5810550000000  0.4340260000000 1.0
C      1  0.5268800000000  0.5811090000000  0.5658880000000 1.0
C      1  0.5266640000000  0.4189510000000  0.4340140000000 1.0
C      1  0.4731300000000  0.4188850000000  0.5658850000000 1.0
C      1  0.4068310000000  0.4998290000000  0.4623020000000 1.0
C      1  0.5931580000000  0.5000020000000  0.5376510000000 1.0
C      1  0.5931630000000  0.5001750000000  0.4622870000000 1.0
C      1  0.4068480000000  0.4999940000000  0.5376650000000 1.0
C      1  0.5821600000000  0.4211490000000  0.4797670000000 1.0
C      1  0.4175310000000  0.4209720000000  0.5202700000000 1.0
C      1  0.4178370000000  0.5788530000000  0.4797880000000 1.0
C      1  0.5824730000000  0.5790260000000  0.5202650000000 1.0
C      1  0.5249440000000  0.4891940000000  0.5541520000000 1.0
C      1  0.4748580000000  0.4886880000000  0.4453590000000 1.0
C      1  0.4750650000000  0.5108010000000  0.5541570000000 1.0
C      1  0.5251330000000  0.5113170000000  0.4453560000000 1.0
C      1  0.5885230000000  0.5448890000000  0.5509490000000 1.0
C      1  0.4116120000000  0.5448020000000  0.4490430000000 1.0
C      1  0.4114850000000  0.4551060000000  0.5509580000000 1.0
C      1  0.5883800000000  0.4552030000000  0.4490250000000 1.0
C      1  0.4695820000000  0.5566140000000  0.4778680000000 1.0
C      1  0.5307450000000  0.5565540000000  0.5220620000000 1.0
C      1  0.5304150000000  0.4433880000000  0.4778580000000 1.0
C      1  0.4692590000000  0.4434440000000  0.5220610000000 1.0
C      1  0.4890860000000  0.5887200000000  0.5323610000000 1.0
C      1  0.5112100000000  0.5893510000000  0.4675690000000 1.0
C      1  0.5109190000000  0.4112770000000  0.5323510000000 1.0
C      1  0.4887850000000  0.4106520000000  0.4675620000000 1.0
C      1  0.5510660000000  0.5990830000000  0.4861450000000 1.0
C      1  0.4493920000000  0.5985200000000  0.5139320000000 1.0
C      1  0.4489320000000  0.4009180000000  0.4861440000000 1.0
C      1  0.5506100000000  0.4014790000000  0.5139140000000 1.0
C      1  0.4878590000000  0.4583740000000  0.3784340000000 1.0
C      1  0.5121280000000  0.4584790000000  0.6216430000000 1.0
C      1  0.5121220000000  0.5416380000000  0.3784360000000 1.0
C      1  0.4878910000000  0.5415090000000  0.6216490000000 1.0
C      1  0.4285860000000  0.5027080000000  0.5999220000000 1.0
C      1  0.5713400000000  0.5028290000000  0.4000590000000 1.0
C      1  0.5714300000000  0.4972830000000  0.5999110000000 1.0
C      1  0.4286450000000  0.4971810000000  0.4000700000000 1.0
C      1  0.5752290000000  0.5249610000000  0.6086270000000 1.0
C      1  0.4248460000000  0.5248780000000  0.3913730000000 1.0
C      1  0.4247880000000  0.4750280000000  0.6086370000000 1.0
C      1  0.5751370000000  0.4751320000000  0.3913590000000 1.0
C      1  0.4047040000000  0.5272960000000  0.4721650000000 1.0
C      1  0.5954320000000  0.5274500000000  0.5277880000000 1.0
C      1  0.5952920000000  0.4727070000000  0.4721480000000 1.0
C      1  0.4045720000000  0.4725480000000  0.5278000000000 1.0
C      1  0.5339480000000  0.3933220000000  0.5375010000000 1.0
C      1  0.4656860000000  0.3928320000000  0.4625090000000 1.0
C      1  0.4660580000000  0.6066750000000  0.5375170000000 1.0
C      1  0.5343080000000  0.6071720000000  0.4625140000000 1.0
C      1  0.4340590000000  0.5572560000000  0.5716420000000 1.0
C      1  0.5661760000000  0.5576040000000  0.4282920000000 1.0
C      1  0.5659530000000  0.4427370000000  0.5716260000000 1.0
C      1  0.4338130000000  0.4424030000000  0.4282970000000 1.0
C      1  0.5226310000000  0.4191250000000  0.5818090000000 1.0
C      1  0.4771490000000  0.4188540000000  0.4180880000000 1.0
C      1  0.4773810000000  0.5808670000000  0.5818200000000 1.0
C      1  0.5228380000000  0.5811540000000  0.4180930000000 1.0
C      1  0.5147860000000  0.4235760000000  0.4056780000000 1.0
C      1  0.4850810000000  0.4234900000000  0.5942780000000 1.0
C      1  0.4852000000000  0.5764330000000  0.4056880000000 1.0
C      1  0.5149340000000  0.5765010000000  0.5942830000000 1.0
C      1  0.4556820000000  0.4881410000000  0.3936900000000 1.0
C      1  0.5444190000000  0.4882040000000  0.6063800000000 1.0
C      1  0.5443020000000  0.5118690000000  0.3936850000000 1.0
C      1  0.4555980000000  0.5117860000000  0.6063880000000 1.0
C      1  0.5141460000000  0.5082260000000  0.5978620000000 1.0
C      1  0.4858880000000  0.5082690000000  0.4021820000000 1.0
C      1  0.4858690000000  0.4917650000000  0.5978640000000 1.0
C      1  0.5140970000000  0.4917410000000  0.4021790000000 1.0
C      1  0.5203750000000  0.5162820000000  0.5677160000000 1.0
C      1  0.4796230000000  0.5162620000000  0.4323940000000 1.0
C      1  0.4796360000000  0.4837120000000  0.5677180000000 1.0
C      1  0.5203660000000  0.4837440000000  0.4323890000000 1.0
C      1  0.4641730000000  0.5130010000000  0.5074690000000 1.0
C      1  0.5351120000000  0.5142500000000  0.4920270000000 1.0
C      1  0.5358280000000  0.4869980000000  0.5074620000000 1.0
C      1  0.4648860000000  0.4857510000000  0.4920310000000 1.0
C      1  0.5132660000000  0.5323630000000  0.6156540000000 1.0
C      1  0.4867680000000  0.5323860000000  0.3843590000000 1.0
C      1  0.4867520000000  0.4676250000000  0.6156530000000 1.0
C      1  0.5132140000000  0.4676250000000  0.3843540000000 1.0
C      1  0.5716030000000  0.4704940000000  0.4297580000000 1.0
C      1  0.4283310000000  0.4703500000000  0.5702360000000 1.0
C      1  0.4283860000000  0.5295130000000  0.4297720000000 1.0
C      1  0.5716800000000  0.5296430000000  0.5702280000000 1.0
C      1  0.5365210000000  0.5393010000000  0.3909330000000 1.0
C      1  0.4635120000000  0.5391680000000  0.6091150000000 1.0
C      1  0.4634620000000  0.4607100000000  0.3909350000000 1.0
C      1  0.5365050000000  0.4608210000000  0.6091060000000 1.0
C      1  0.5875140000000  0.4617040000000  0.5678170000000 1.0
C      1  0.4123680000000  0.4615350000000  0.4320670000000 1.0
C      1  0.4124960000000  0.5382890000000  0.5678340000000 1.0
C      1  0.5876210000000  0.5384710000000  0.4320570000000 1.0
C      1  0.5199660000000  0.5632380000000  0.4793010000000 1.0
C      1  0.4804450000000  0.5624170000000  0.5207110000000 1.0
C      1  0.4800310000000  0.4367640000000  0.4792980000000 1.0
C      1  0.5195580000000  0.4375810000000  0.5207020000000 1.0
C      1  0.6023260000000  0.5248360000000  0.4746730000000 1.0
C      1  0.3979210000000  0.5246590000000  0.5251580000000 1.0
C      1  0.3976700000000  0.4751660000000  0.4746870000000 1.0
C      1  0.6020830000000  0.4753390000000  0.5251390000000 1.0
C      1  0.5480800000000  0.5392570000000  0.5040500000000 1.0
C      1  0.4525510000000  0.5388240000000  0.4955120000000 1.0
C      1  0.4519210000000  0.4607430000000  0.5040540000000 1.0
C      1  0.5474480000000  0.4611770000000  0.4955010000000 1.0
C      1  0.5684630000000  0.4190930000000  0.5554070000000 1.0
C      1  0.4311800000000  0.4186310000000  0.4443970000000 1.0
C      1  0.4315450000000  0.5809020000000  0.5554250000000 1.0
C      1  0.5688110000000  0.5813750000000  0.4443940000000 1.0
C      1  0.4563390000000  0.5610020000000  0.4503640000000 1.0
C      1  0.5438970000000  0.5610840000000  0.5495740000000 1.0
C      1  0.5436530000000  0.4390030000000  0.4503510000000 1.0
C      1  0.4561110000000  0.4389110000000  0.5495750000000 1.0
C      1  0.6048170000000  0.5433920000000  0.4536830000000 1.0
C      1  0.3954460000000  0.5432730000000  0.5461050000000 1.0
C      1  0.3951750000000  0.4566130000000  0.4536950000000 1.0
C      1  0.6045610000000  0.4567220000000  0.5460840000000 1.0
C      1  0.5072290000000  0.3969110000000  0.4873140000000 1.0
C      1  0.4923540000000  0.3971690000000  0.5129250000000 1.0
C      1  0.4927690000000  0.6030900000000  0.4873250000000 1.0
C      1  0.5076480000000  0.6028300000000  0.5129340000000 1.0
C      1  0.4693610000000  0.4459240000000  0.6073950000000 1.0
C      1  0.5306150000000  0.4459400000000  0.3925810000000 1.0
C      1  0.5306560000000  0.5540650000000  0.6073950000000 1.0
C      1  0.4693690000000  0.5540710000000  0.3925910000000 1.0
C      1  0.4325760000000  0.4237900000000  0.4749980000000 1.0
C      1  0.5668200000000  0.4244910000000  0.5248710000000 1.0
C      1  0.5674200000000  0.5762120000000  0.4749950000000 1.0
C      1  0.4331830000000  0.5755060000000  0.5248880000000 1.0
C      1  0.4159770000000  0.5102550000000  0.5735840000000 1.0
C      1  0.5839500000000  0.5104160000000  0.4263920000000 1.0
C      1  0.5840350000000  0.4897380000000  0.5735700000000 1.0
C      1  0.4160390000000  0.4895910000000  0.4264040000000 1.0
END
