TITL C-3578197-9521-695 -6.81397513384845e-07 125000 -1138.89214888597 0 0 176 (C1) n - 1
REM
REM in /home/bkarasulu/work/CARBON/AIRSS/Generating-Clusters/EDIP-Nigel-Params/with-SteepDescent/Higher-Symm/SD-CG/HFTN-CG
REM
REM
REM
REM
REM
REM ./C.cell (12c818d87b63d06a65506943cc24bca4)
REM
REM compiler GCC version 9.2.1 20190827 (Red Hat 9.2.1-1)
REM options -cpp -mtune=generic -march=x86-64 -g -O0 -fpre-include=/usr/include/finclude/math-vector-fortran.h
REM seed 1889633849 -977113192 -1210729997 296579676 447281955 1286079482 -118600724 2131940278 -1000549441 991044780 761442460 -994061598 1685112345 -556610648 1889634905 1186530635 814627493 -1211636261 931646222 -1066061876 -546193560 -266770497 -36110159 1301329682 -343710690 -2119837266 -727647471 1051512882 1801425009 849012664 667157472 -1903821425 2144168296
REM
CELL 1.54180   50.00000   50.00000   50.00000   90.00000   90.00000   90.00000
LATT -1
SFAC C  
C      1  0.5441510000000  0.5090390000000  0.5315730000000 1.0
C      1  0.5109090000000  0.5500050000000  0.5291160000000 1.0
C      1  0.5213720000000  0.5249340000000  0.5474960000000 1.0
C      1  0.4652680000000  0.4886750000000  0.5135800000000 1.0
C      1  0.4776450000000  0.5194810000000  0.4687890000000 1.0
C      1  0.5354280000000  0.4790900000000  0.4704900000000 1.0
C      1  0.4781500000000  0.4581720000000  0.5102020000000 1.0
C      1  0.4878570000000  0.5445840000000  0.4837560000000 1.0
C      1  0.4983300000000  0.4468990000000  0.4721610000000 1.0
C      1  0.5022890000000  0.4793430000000  0.5498500000000 1.0
C      1  0.4960500000000  0.5144210000000  0.4456910000000 1.0
C      1  0.5120490000000  0.4674800000000  0.4556410000000 1.0
C      1  0.5433580000000  0.5067030000000  0.4665650000000 1.0
C      1  0.5165290000000  0.5502750000000  0.4740130000000 1.0
C      1  0.5248690000000  0.5268430000000  0.4535870000000 1.0
C      1  0.4620680000000  0.4929300000000  0.4786130000000 1.0
C      1  0.4828700000000  0.5114450000000  0.5231090000000 1.0
C      1  0.5421590000000  0.4801140000000  0.5259510000000 1.0
C      1  0.4728660000000  0.4595820000000  0.4813040000000 1.0
C      1  0.4894690000000  0.5379640000000  0.5131360000000 1.0
C      1  0.5056220000000  0.4464050000000  0.5159540000000 1.0
C      1  0.4921030000000  0.4855900000000  0.4400220000000 1.0
C      1  0.4971000000000  0.5065670000000  0.5473420000000 1.0
C      1  0.5201340000000  0.4630370000000  0.5358580000000 1.0
C      1  0.5557360000000  0.4794380000000  0.5892750000000 1.0
C      1  0.5937350000000  0.5681530000000  0.4802850000000 1.0
C      1  0.4761020000000  0.5917020000000  0.5588680000000 1.0
C      1  0.4410020000000  0.5258750000000  0.5958080000000 1.0
C      1  0.4466090000000  0.4709380000000  0.4158100000000 1.0
C      1  0.5760990000000  0.5345510000000  0.4010670000000 1.0
C      1  0.3967110000000  0.4241620000000  0.4677570000000 1.0
C      1  0.4012460000000  0.5628700000000  0.5301710000000 1.0
C      1  0.5884740000000  0.4379550000000  0.5252630000000 1.0
C      1  0.5326220000000  0.3986250000000  0.5744040000000 1.0
C      1  0.5315320000000  0.5985560000000  0.4291400000000 1.0
C      1  0.4750680000000  0.4014700000000  0.4396380000000 1.0
C      1  0.5576180000000  0.4773780000000  0.4097840000000 1.0
C      1  0.5945290000000  0.5697390000000  0.5191590000000 1.0
C      1  0.4787450000000  0.5890470000000  0.4444370000000 1.0
C      1  0.4443780000000  0.5229000000000  0.4088990000000 1.0
C      1  0.4393450000000  0.4712470000000  0.5928100000000 1.0
C      1  0.5759210000000  0.5354720000000  0.5965720000000 1.0
C      1  0.3992960000000  0.4288460000000  0.5281630000000 1.0
C      1  0.4031560000000  0.5611760000000  0.4731780000000 1.0
C      1  0.5865810000000  0.4413040000000  0.4769150000000 1.0
C      1  0.5344450000000  0.3970870000000  0.4266460000000 1.0
C      1  0.5304350000000  0.5985720000000  0.5683940000000 1.0
C      1  0.4757320000000  0.4081700000000  0.5545720000000 1.0
C      1  0.5130850000000  0.5805730000000  0.5204820000000 1.0
C      1  0.5183700000000  0.5181460000000  0.5826910000000 1.0
C      1  0.5662630000000  0.5201280000000  0.5124390000000 1.0
C      1  0.4871870000000  0.4002980000000  0.5277900000000 1.0
C      1  0.4862450000000  0.5827570000000  0.4736670000000 1.0
C      1  0.5076600000000  0.4145440000000  0.4792320000000 1.0
C      1  0.4638350000000  0.4841700000000  0.6015510000000 1.0
C      1  0.4689660000000  0.5101100000000  0.3979840000000 1.0
C      1  0.5313710000000  0.4896880000000  0.4045230000000 1.0
C      1  0.4339570000000  0.4920260000000  0.5139900000000 1.0
C      1  0.3943230000000  0.5367700000000  0.4870760000000 1.0
C      1  0.5659490000000  0.4730170000000  0.4847420000000 1.0
C      1  0.5152210000000  0.5807060000000  0.4872190000000 1.0
C      1  0.5217650000000  0.5172620000000  0.4165260000000 1.0
C      1  0.5695180000000  0.5063360000000  0.4835130000000 1.0
C      1  0.4862040000000  0.3960170000000  0.4668990000000 1.0
C      1  0.4882100000000  0.5956650000000  0.5320110000000 1.0
C      1  0.5103980000000  0.4144130000000  0.5125520000000 1.0
C      1  0.4734230000000  0.4833570000000  0.4115270000000 1.0
C      1  0.4651270000000  0.5125860000000  0.6061880000000 1.0
C      1  0.5290370000000  0.4914440000000  0.5948940000000 1.0
C      1  0.4319950000000  0.4962400000000  0.4854740000000 1.0
C      1  0.3937270000000  0.5379140000000  0.5165140000000 1.0
C      1  0.5679470000000  0.4690190000000  0.5154420000000 1.0
C      1  0.5338430000000  0.3883890000000  0.4873870000000 1.0
C      1  0.4900630000000  0.5324780000000  0.3960360000000 1.0
C      1  0.4007740000000  0.4889120000000  0.5316920000000 1.0
C      1  0.4660670000000  0.5988640000000  0.4878020000000 1.0
C      1  0.4634870000000  0.3966000000000  0.5117620000000 1.0
C      1  0.5330610000000  0.6120900000000  0.5122230000000 1.0
C      1  0.5159790000000  0.4645140000000  0.3998000000000 1.0
C      1  0.5180840000000  0.5402470000000  0.6131570000000 1.0
C      1  0.4841180000000  0.4637380000000  0.6044050000000 1.0
C      1  0.5943360000000  0.5169140000000  0.5248860000000 1.0
C      1  0.6105950000000  0.4884010000000  0.4614810000000 1.0
C      1  0.3957590000000  0.5144070000000  0.4672800000000 1.0
C      1  0.5363980000000  0.3863080000000  0.5158280000000 1.0
C      1  0.4893680000000  0.5326910000000  0.6044940000000 1.0
C      1  0.3988880000000  0.4852860000000  0.4703130000000 1.0
C      1  0.4646350000000  0.5966550000000  0.5158790000000 1.0
C      1  0.4628500000000  0.3923890000000  0.4837790000000 1.0
C      1  0.5345120000000  0.6138330000000  0.4839640000000 1.0
C      1  0.5123900000000  0.4672580000000  0.5995430000000 1.0
C      1  0.5177030000000  0.5393250000000  0.3858060000000 1.0
C      1  0.4874440000000  0.4625170000000  0.3955680000000 1.0
C      1  0.5969890000000  0.5117310000000  0.4694730000000 1.0
C      1  0.5977760000000  0.4880050000000  0.5284210000000 1.0
C      1  0.3926960000000  0.5165150000000  0.5368650000000 1.0
C      1  0.4376800000000  0.3966820000000  0.4701480000000 1.0
C      1  0.4744870000000  0.4365280000000  0.4041680000000 1.0
C      1  0.4080530000000  0.4689220000000  0.4480190000000 1.0
C      1  0.5532580000000  0.5965200000000  0.4718550000000 1.0
C      1  0.5505280000000  0.4065080000000  0.5294350000000 1.0
C      1  0.4392780000000  0.5970260000000  0.5295880000000 1.0
C      1  0.5326280000000  0.5577840000000  0.4025860000000 1.0
C      1  0.5275040000000  0.4424710000000  0.5976930000000 1.0
C      1  0.4756020000000  0.5573270000000  0.5950290000000 1.0
C      1  0.5947970000000  0.5305200000000  0.4469950000000 1.0
C      1  0.5897460000000  0.4760120000000  0.5533390000000 1.0
C      1  0.4031510000000  0.5283100000000  0.5618630000000 1.0
C      1  0.4391250000000  0.4017440000000  0.5256280000000 1.0
C      1  0.4726230000000  0.4386830000000  0.5940780000000 1.0
C      1  0.4057100000000  0.4716500000000  0.5546890000000 1.0
C      1  0.5529800000000  0.5968680000000  0.5259070000000 1.0
C      1  0.5501700000000  0.4069340000000  0.4724830000000 1.0
C      1  0.4407790000000  0.5956820000000  0.4731660000000 1.0
C      1  0.5322220000000  0.5580230000000  0.5950010000000 1.0
C      1  0.5303590000000  0.4394030000000  0.4008230000000 1.0
C      1  0.4761410000000  0.5565730000000  0.4058980000000 1.0
C      1  0.5954610000000  0.5318980000000  0.5511430000000 1.0
C      1  0.5931250000000  0.4756070000000  0.4438610000000 1.0
C      1  0.4063800000000  0.5258180000000  0.4425170000000 1.0
C      1  0.5605540000000  0.5570380000000  0.5881090000000 1.0
C      1  0.5899510000000  0.5600790000000  0.5462590000000 1.0
C      1  0.5530570000000  0.5926140000000  0.5540010000000 1.0
C      1  0.4454580000000  0.4442950000000  0.5859280000000 1.0
C      1  0.4491180000000  0.5506740000000  0.4134120000000 1.0
C      1  0.5567300000000  0.4477540000000  0.4098500000000 1.0
C      1  0.4099670000000  0.4429740000000  0.5500400000000 1.0
C      1  0.4114910000000  0.5542420000000  0.4459660000000 1.0
C      1  0.5825780000000  0.4500990000000  0.4509960000000 1.0
C      1  0.4464930000000  0.4090340000000  0.5524480000000 1.0
C      1  0.4487660000000  0.5880510000000  0.4455190000000 1.0
C      1  0.5510900000000  0.4111000000000  0.4440380000000 1.0
C      1  0.5607150000000  0.5557450000000  0.4104090000000 1.0
C      1  0.5872750000000  0.5572840000000  0.4542050000000 1.0
C      1  0.5536090000000  0.5918670000000  0.4439640000000 1.0
C      1  0.4493420000000  0.4433540000000  0.4167630000000 1.0
C      1  0.4476340000000  0.5529980000000  0.5896230000000 1.0
C      1  0.5544080000000  0.4499040000000  0.5900040000000 1.0
C      1  0.4117740000000  0.4400830000000  0.4502040000000 1.0
C      1  0.4085860000000  0.5568430000000  0.5580290000000 1.0
C      1  0.5836540000000  0.4481420000000  0.5508570000000 1.0
C      1  0.4448360000000  0.4027510000000  0.4422690000000 1.0
C      1  0.4464410000000  0.5901270000000  0.5571900000000 1.0
C      1  0.5519410000000  0.4101220000000  0.5580330000000 1.0
C      1  0.5775290000000  0.4917830000000  0.5743620000000 1.0
C      1  0.5784110000000  0.5921700000000  0.4847940000000 1.0
C      1  0.4896790000000  0.5762480000000  0.5791700000000 1.0
C      1  0.4214220000000  0.5131140000000  0.5783180000000 1.0
C      1  0.4257480000000  0.4830710000000  0.4301820000000 1.0
C      1  0.5822840000000  0.5190050000000  0.4232850000000 1.0
C      1  0.4156950000000  0.4109840000000  0.4835310000000 1.0
C      1  0.4181920000000  0.5818500000000  0.5159050000000 1.0
C      1  0.5716530000000  0.4182720000000  0.5146610000000 1.0
C      1  0.5165300000000  0.4197030000000  0.5830720000000 1.0
C      1  0.5178330000000  0.5790530000000  0.4152330000000 1.0
C      1  0.4898200000000  0.4169200000000  0.4189170000000 1.0
C      1  0.5801250000000  0.4903640000000  0.4228370000000 1.0
C      1  0.5784510000000  0.5929730000000  0.5133750000000 1.0
C      1  0.4910520000000  0.5739330000000  0.4227970000000 1.0
C      1  0.4257350000000  0.5108700000000  0.4275190000000 1.0
C      1  0.4205640000000  0.4848590000000  0.5761920000000 1.0
C      1  0.5809770000000  0.5202130000000  0.5738060000000 1.0
C      1  0.4157220000000  0.4124500000000  0.5125060000000 1.0
C      1  0.4202520000000  0.5799070000000  0.4872040000000 1.0
C      1  0.5704600000000  0.4204380000000  0.4869280000000 1.0
C      1  0.5182910000000  0.4163600000000  0.4145970000000 1.0
C      1  0.5173000000000  0.5796050000000  0.5834680000000 1.0
C      1  0.4883010000000  0.4198590000000  0.5783770000000 1.0
C      1  0.5687730000000  0.5692400000000  0.4352140000000 1.0
C      1  0.4320370000000  0.4308940000000  0.5643820000000 1.0
C      1  0.4322710000000  0.4275210000000  0.4335100000000 1.0
C      1  0.5638090000000  0.4352730000000  0.5667900000000 1.0
C      1  0.4343430000000  0.5661920000000  0.5678370000000 1.0
C      1  0.5684640000000  0.5703120000000  0.5632880000000 1.0
C      1  0.5641740000000  0.4353850000000  0.4348900000000 1.0
C      1  0.4371200000000  0.5634570000000  0.4360840000000 1.0
END
