TITL C-3578203-1966-385 -2.25495979435004e-06 125000 -447.294784736364 0 0 72 (C1) n - 1
REM
REM in /home/bkarasulu/work/CARBON/AIRSS/Generating-Clusters/EDIP-Nigel-Params/with-SteepDescent/Higher-Symm/SD-CG/HFTN-CG
REM
REM
REM
REM
REM
REM ./C.cell (12c818d87b63d06a65506943cc24bca4)
REM
REM compiler GCC version 9.2.1 20190827 (Red Hat 9.2.1-1)
REM options -cpp -mtune=generic -march=x86-64 -g -O0 -fpre-include=/usr/include/finclude/math-vector-fortran.h
REM seed 1179922773 -902179652 1366543051 1979620925 863010914 -563012058 1922709571 342880802 -1117781679 174448645 1783723470 -664388935 1973274357 -2110535304 -166959554 1169091167 -583601311 -514457304 1497401248 -2004146769 -1855132091 -1084031222 2021812087 -401699259 -1271622347 -2011353455 1275741398 1581358899 -1043524049 -930614609 -1285087606 2072611435 1677866763
REM
CELL 1.54180   50.00000   50.00000   50.00000   90.00000   90.00000   90.00000
LATT -1
SFAC C  
C      1  0.5835850000000  0.5289470000000  0.4948020000000 1.0
C      1  0.4644860000000  0.5323810000000  0.5719410000000 1.0
C      1  0.4538050000000  0.5324000000000  0.4342440000000 1.0
C      1  0.5643390000000  0.5378740000000  0.5158020000000 1.0
C      1  0.4559060000000  0.5405070000000  0.5439490000000 1.0
C      1  0.4815780000000  0.5373290000000  0.4456600000000 1.0
C      1  0.4810860000000  0.4871690000000  0.5744990000000 1.0
C      1  0.4407070000000  0.4869100000000  0.4422360000000 1.0
C      1  0.5779890000000  0.4833840000000  0.4789480000000 1.0
C      1  0.4544570000000  0.5047300000000  0.4218510000000 1.0
C      1  0.5916270000000  0.5004940000000  0.5004910000000 1.0
C      1  0.4557770000000  0.5034450000000  0.5762520000000 1.0
C      1  0.5539430000000  0.4731410000000  0.4948170000000 1.0
C      1  0.4786860000000  0.4741020000000  0.5471580000000 1.0
C      1  0.4641170000000  0.4713680000000  0.4528960000000 1.0
C      1  0.4936790000000  0.5331530000000  0.5770620000000 1.0
C      1  0.4332630000000  0.5325510000000  0.4549310000000 1.0
C      1  0.5725220000000  0.5297190000000  0.4677650000000 1.0
C      1  0.5235400000000  0.4241800000000  0.5286670000000 1.0
C      1  0.4819980000000  0.4358220000000  0.4997240000000 1.0
C      1  0.5024390000000  0.4262510000000  0.4690670000000 1.0
C      1  0.5186900000000  0.4984940000000  0.4673380000000 1.0
C      1  0.5204690000000  0.4992020000000  0.5361980000000 1.0
C      1  0.4579200000000  0.4973070000000  0.4961950000000 1.0
C      1  0.5189770000000  0.5508940000000  0.4787080000000 1.0
C      1  0.5057260000000  0.5525470000000  0.5285810000000 1.0
C      1  0.4682580000000  0.5557610000000  0.4947600000000 1.0
C      1  0.5343770000000  0.4997730000000  0.5724460000000 1.0
C      1  0.4193270000000  0.4977910000000  0.4923000000000 1.0
C      1  0.5446530000000  0.4967120000000  0.4386760000000 1.0
C      1  0.4817040000000  0.5119150000000  0.5104870000000 1.0
C      1  0.4920950000000  0.5111990000000  0.4729000000000 1.0
C      1  0.5341770000000  0.5139400000000  0.5134120000000 1.0
C      1  0.4349490000000  0.5205440000000  0.5368130000000 1.0
C      1  0.4998670000000  0.5189280000000  0.4303020000000 1.0
C      1  0.5687750000000  0.5201080000000  0.5392380000000 1.0
C      1  0.5164090000000  0.4722950000000  0.4488660000000 1.0
C      1  0.5378330000000  0.4736660000000  0.5448680000000 1.0
C      1  0.4433860000000  0.4723610000000  0.5087020000000 1.0
C      1  0.4240400000000  0.5222380000000  0.5097290000000 1.0
C      1  0.5290200000000  0.5214930000000  0.4313000000000 1.0
C      1  0.5482150000000  0.5236980000000  0.5604510000000 1.0
C      1  0.4918880000000  0.4470000000000  0.5493460000000 1.0
C      1  0.4559260000000  0.4451300000000  0.4652400000000 1.0
C      1  0.5426420000000  0.4473160000000  0.4853950000000 1.0
C      1  0.4361820000000  0.5539850000000  0.4734220000000 1.0
C      1  0.5541730000000  0.5509480000000  0.4625510000000 1.0
C      1  0.5087650000000  0.5550050000000  0.5667600000000 1.0
C      1  0.5609670000000  0.4719470000000  0.5249480000000 1.0
C      1  0.4492420000000  0.4726970000000  0.5386880000000 1.0
C      1  0.4887830000000  0.4712340000000  0.4340980000000 1.0
C      1  0.4919860000000  0.4266750000000  0.5259070000000 1.0
C      1  0.4761410000000  0.4262790000000  0.4595410000000 1.0
C      1  0.5387570000000  0.4287980000000  0.5055550000000 1.0
C      1  0.5807030000000  0.4939520000000  0.5286220000000 1.0
C      1  0.4371850000000  0.4957220000000  0.5534040000000 1.0
C      1  0.4841830000000  0.4963960000000  0.4186060000000 1.0
C      1  0.5210550000000  0.4480720000000  0.4662750000000 1.0
C      1  0.5227880000000  0.4471230000000  0.5500040000000 1.0
C      1  0.4545940000000  0.4466130000000  0.4950900000000 1.0
C      1  0.5692740000000  0.5022660000000  0.4564810000000 1.0
C      1  0.5045580000000  0.5058920000000  0.5769300000000 1.0
C      1  0.4286020000000  0.5047260000000  0.4636750000000 1.0
C      1  0.5334470000000  0.5480370000000  0.5555550000000 1.0
C      1  0.4305830000000  0.5483190000000  0.4998960000000 1.0
C      1  0.5345440000000  0.5467980000000  0.4434700000000 1.0
C      1  0.4891630000000  0.5532150000000  0.4721320000000 1.0
C      1  0.5265320000000  0.5440600000000  0.5077730000000 1.0
C      1  0.4777340000000  0.5411090000000  0.5207300000000 1.0
C      1  0.4740860000000  0.4878920000000  0.4743580000000 1.0
C      1  0.5333700000000  0.4941160000000  0.4920650000000 1.0
C      1  0.4937530000000  0.4919550000000  0.5284520000000 1.0
END
