TITL C-3577078-809-191 -5.8472917321922e-06 125000 -1083.70684813283 0 0 175 (C1) n - 1
REM
REM in /home/bkarasulu/work/CARBON/AIRSS/Generating-Clusters/EDIP-Nigel-Params/with-SteepDescent/Higher-Symm/SD-CG/HFTN-CG
REM
REM
REM
REM
REM
REM ./C.cell (12c818d87b63d06a65506943cc24bca4)
REM
REM compiler GCC version 9.2.1 20190827 (Red Hat 9.2.1-1)
REM options -cpp -mtune=generic -march=x86-64 -g -O0 -fpre-include=/usr/include/finclude/math-vector-fortran.h
REM seed 1707351398 -775662634 137682153 -1996603795 -1129396881 -1227587710 -1215743591 -168163041 -1219179480 22722339 -278242854 1737739240 1310815271 -387182750 -763319934 736585572 -722190415 -1249630539 445952591 -261674964 831538404 -1766431618 -900714597 -9793985 1870237214 1820391957 230654405 -1046675293 2111986977 1952555037 -1522814785 844000856 1251641997
REM
CELL 1.54180   50.00000   50.00000   50.00000   90.00000   90.00000   90.00000
LATT -1
SFAC C  
C      1  0.5311410000000  0.6130550000000  0.4791100000000 1.0
C      1  0.4124440000000  0.5712590000000  0.4937550000000 1.0
C      1  0.4060050000000  0.4289620000000  0.4784720000000 1.0
C      1  0.5354290000000  0.3949500000000  0.4892690000000 1.0
C      1  0.6120190000000  0.4955850000000  0.4938210000000 1.0
C      1  0.4687500000000  0.6127820000000  0.5184110000000 1.0
C      1  0.5875460000000  0.5709340000000  0.5051210000000 1.0
C      1  0.5948160000000  0.4284280000000  0.5208280000000 1.0
C      1  0.4637470000000  0.3943340000000  0.5104180000000 1.0
C      1  0.3881450000000  0.4955390000000  0.5063450000000 1.0
C      1  0.6066100000000  0.4873950000000  0.4639920000000 1.0
C      1  0.5428930000000  0.6031640000000  0.4529950000000 1.0
C      1  0.4209580000000  0.5741510000000  0.4637190000000 1.0
C      1  0.4018710000000  0.4447160000000  0.4532230000000 1.0
C      1  0.5184080000000  0.3963270000000  0.4642140000000 1.0
C      1  0.3934400000000  0.4869810000000  0.5361200000000 1.0
C      1  0.4578760000000  0.6023510000000  0.5445650000000 1.0
C      1  0.5794570000000  0.5737680000000  0.5349460000000 1.0
C      1  0.5988990000000  0.4435940000000  0.5465400000000 1.0
C      1  0.4803900000000  0.3958330000000  0.5358540000000 1.0
C      1  0.5026960000000  0.5794640000000  0.4456390000000 1.0
C      1  0.4251820000000  0.5259300000000  0.4520370000000 1.0
C      1  0.4479310000000  0.4403500000000  0.4465530000000 1.0
C      1  0.5467020000000  0.4313380000000  0.4487990000000 1.0
C      1  0.5753540000000  0.5239040000000  0.4514950000000 1.0
C      1  0.4979350000000  0.5769310000000  0.5516610000000 1.0
C      1  0.5716140000000  0.5236670000000  0.5457810000000 1.0
C      1  0.5521810000000  0.4392340000000  0.5529060000000 1.0
C      1  0.4539020000000  0.4329740000000  0.5491410000000 1.0
C      1  0.4247310000000  0.5233550000000  0.5479950000000 1.0
C      1  0.5581870000000  0.4451860000000  0.4265690000000 1.0
C      1  0.5659940000000  0.5363250000000  0.4275190000000 1.0
C      1  0.4838600000000  0.5756050000000  0.4240220000000 1.0
C      1  0.4239110000000  0.5103100000000  0.4277780000000 1.0
C      1  0.4662750000000  0.4321470000000  0.4264850000000 1.0
C      1  0.4426740000000  0.4449380000000  0.5726050000000 1.0
C      1  0.4340310000000  0.5364740000000  0.5715990000000 1.0
C      1  0.5164170000000  0.5732170000000  0.5740310000000 1.0
C      1  0.5752800000000  0.5096110000000  0.5718130000000 1.0
C      1  0.5339600000000  0.4310830000000  0.5732700000000 1.0
C      1  0.4480760000000  0.5095280000000  0.4092300000000 1.0
C      1  0.4761860000000  0.4535290000000  0.4075660000000 1.0
C      1  0.5392820000000  0.4609040000000  0.4090610000000 1.0
C      1  0.5477860000000  0.5214500000000  0.4086440000000 1.0
C      1  0.4887390000000  0.5507790000000  0.4072300000000 1.0
C      1  0.5509730000000  0.5082330000000  0.5903520000000 1.0
C      1  0.5242750000000  0.4524950000000  0.5924210000000 1.0
C      1  0.4614850000000  0.4607620000000  0.5902550000000 1.0
C      1  0.4529450000000  0.5219910000000  0.5902800000000 1.0
C      1  0.5113030000000  0.5488570000000  0.5915870000000 1.0
C      1  0.4975950000000  0.4766970000000  0.4851740000000 1.0
C      1  0.5249870000000  0.4888980000000  0.4717120000000 1.0
C      1  0.5190170000000  0.5181820000000  0.4818780000000 1.0
C      1  0.4884270000000  0.5253120000000  0.4714890000000 1.0
C      1  0.4759590000000  0.5025970000000  0.4864880000000 1.0
C      1  0.5030140000000  0.4750640000000  0.5155800000000 1.0
C      1  0.4734670000000  0.4867830000000  0.5295340000000 1.0
C      1  0.4783700000000  0.5141810000000  0.5158650000000 1.0
C      1  0.5107430000000  0.5235760000000  0.5253290000000 1.0
C      1  0.5245350000000  0.4987820000000  0.5151490000000 1.0
C      1  0.5091360000000  0.4518940000000  0.4147890000000 1.0
C      1  0.5487020000000  0.4910720000000  0.4171520000000 1.0
C      1  0.5188980000000  0.5416210000000  0.4122210000000 1.0
C      1  0.4649050000000  0.5336540000000  0.4194030000000 1.0
C      1  0.4578890000000  0.4790290000000  0.4144030000000 1.0
C      1  0.4916810000000  0.4513270000000  0.5857560000000 1.0
C      1  0.4515020000000  0.4912080000000  0.5828840000000 1.0
C      1  0.4810420000000  0.5405580000000  0.5854980000000 1.0
C      1  0.5351260000000  0.5324460000000  0.5787160000000 1.0
C      1  0.5419980000000  0.4780670000000  0.5838380000000 1.0
C      1  0.4400600000000  0.5644550000000  0.5661980000000 1.0
C      1  0.4173680000000  0.4590580000000  0.5667640000000 1.0
C      1  0.5146920000000  0.4118910000000  0.5629840000000 1.0
C      1  0.5897180000000  0.4847280000000  0.5672440000000 1.0
C      1  0.5442750000000  0.5789030000000  0.5667760000000 1.0
C      1  0.5603470000000  0.5644630000000  0.4320260000000 1.0
C      1  0.5828950000000  0.4594600000000  0.4335020000000 1.0
C      1  0.4849900000000  0.4126460000000  0.4371020000000 1.0
C      1  0.4107650000000  0.4849570000000  0.4327660000000 1.0
C      1  0.4560940000000  0.5805630000000  0.4324790000000 1.0
C      1  0.5283210000000  0.5643890000000  0.4701020000000 1.0
C      1  0.4451480000000  0.5470680000000  0.4772460000000 1.0
C      1  0.4391530000000  0.4693850000000  0.4703020000000 1.0
C      1  0.5186930000000  0.4337600000000  0.4753960000000 1.0
C      1  0.5713490000000  0.4961810000000  0.4779140000000 1.0
C      1  0.4715310000000  0.5629450000000  0.5274350000000 1.0
C      1  0.5535370000000  0.5482110000000  0.5216520000000 1.0
C      1  0.5625550000000  0.4679740000000  0.5293930000000 1.0
C      1  0.4821150000000  0.4326650000000  0.5226340000000 1.0
C      1  0.4288450000000  0.4950150000000  0.5222760000000 1.0
C      1  0.4686940000000  0.4113180000000  0.5585200000000 1.0
C      1  0.5769640000000  0.4401670000000  0.5666960000000 1.0
C      1  0.5797200000000  0.5505110000000  0.5550220000000 1.0
C      1  0.4773950000000  0.5918500000000  0.5646780000000 1.0
C      1  0.4066530000000  0.5040380000000  0.5577070000000 1.0
C      1  0.5306890000000  0.4099480000000  0.4406610000000 1.0
C      1  0.4232120000000  0.4410110000000  0.4327020000000 1.0
C      1  0.4205600000000  0.5520920000000  0.4426260000000 1.0
C      1  0.5237460000000  0.5929350000000  0.4324260000000 1.0
C      1  0.5935300000000  0.5044140000000  0.4421770000000 1.0
C      1  0.5726480000000  0.4660030000000  0.5813230000000 1.0
C      1  0.5570950000000  0.5544910000000  0.5740830000000 1.0
C      1  0.4650710000000  0.5690360000000  0.5801630000000 1.0
C      1  0.4219550000000  0.4861220000000  0.5754040000000 1.0
C      1  0.4903680000000  0.4213950000000  0.5754410000000 1.0
C      1  0.4272900000000  0.4665690000000  0.4176980000000 1.0
C      1  0.4437580000000  0.5560140000000  0.4250360000000 1.0
C      1  0.5356170000000  0.5694640000000  0.4177040000000 1.0
C      1  0.5781950000000  0.4862900000000  0.4247920000000 1.0
C      1  0.5094740000000  0.4213490000000  0.4242480000000 1.0
C      1  0.5399180000000  0.5371180000000  0.4745460000000 1.0
C      1  0.4745490000000  0.5519140000000  0.4778580000000 1.0
C      1  0.4478220000000  0.4973660000000  0.4770550000000 1.0
C      1  0.4916520000000  0.4483320000000  0.4761220000000 1.0
C      1  0.5512330000000  0.4751720000000  0.4803400000000 1.0
C      1  0.4591980000000  0.5356140000000  0.5230770000000 1.0
C      1  0.5241680000000  0.5510030000000  0.5196340000000 1.0
C      1  0.5533770000000  0.4965840000000  0.5244750000000 1.0
C      1  0.5095560000000  0.4464140000000  0.5227920000000 1.0
C      1  0.4479840000000  0.4725750000000  0.5206270000000 1.0
C      1  0.5719650000000  0.5105000000000  0.5035190000000 1.0
C      1  0.5162730000000  0.5725110000000  0.4984210000000 1.0
C      1  0.4365540000000  0.5363340000000  0.5035190000000 1.0
C      1  0.4433980000000  0.4528880000000  0.4962970000000 1.0
C      1  0.5309210000000  0.4361540000000  0.5034760000000 1.0
C      1  0.4282650000000  0.5092700000000  0.4963270000000 1.0
C      1  0.4831370000000  0.5726340000000  0.4993840000000 1.0
C      1  0.5620750000000  0.5371010000000  0.4954180000000 1.0
C      1  0.5577480000000  0.4534030000000  0.5023220000000 1.0
C      1  0.4704530000000  0.4346530000000  0.4938870000000 1.0
C      1  0.5249240000000  0.4938030000000  0.4401140000000 1.0
C      1  0.5120620000000  0.5206280000000  0.4342180000000 1.0
C      1  0.4835670000000  0.5171580000000  0.4413590000000 1.0
C      1  0.4776180000000  0.4870250000000  0.4372270000000 1.0
C      1  0.5037180000000  0.4735200000000  0.4357430000000 1.0
C      1  0.4748750000000  0.4931380000000  0.5599090000000 1.0
C      1  0.4876700000000  0.5202820000000  0.5630690000000 1.0
C      1  0.5162930000000  0.5162130000000  0.5561090000000 1.0
C      1  0.5221610000000  0.4861890000000  0.5610930000000 1.0
C      1  0.4961720000000  0.4733660000000  0.5653060000000 1.0
C      1  0.4422470000000  0.5931350000000  0.4557200000000 1.0
C      1  0.4087190000000  0.4729300000000  0.4618410000000 1.0
C      1  0.4888410000000  0.4053510000000  0.4672920000000 1.0
C      1  0.6011100000000  0.4591190000000  0.4569880000000 1.0
C      1  0.5560780000000  0.5773280000000  0.4609620000000 1.0
C      1  0.5544990000000  0.5881840000000  0.5408690000000 1.0
C      1  0.5926080000000  0.4720110000000  0.5381960000000 1.0
C      1  0.5099970000000  0.4033520000000  0.5335120000000 1.0
C      1  0.3994250000000  0.4587020000000  0.5428780000000 1.0
C      1  0.4443870000000  0.5767340000000  0.5368990000000 1.0
C      1  0.5990170000000  0.5465280000000  0.4930150000000 1.0
C      1  0.4959920000000  0.6074950000000  0.5122100000000 1.0
C      1  0.3922280000000  0.5222950000000  0.4943640000000 1.0
C      1  0.4412060000000  0.4110980000000  0.5064560000000 1.0
C      1  0.5680710000000  0.4191000000000  0.5177300000000 1.0
C      1  0.4001680000000  0.5474690000000  0.5064380000000 1.0
C      1  0.5037880000000  0.6073160000000  0.4850850000000 1.0
C      1  0.6084350000000  0.5222830000000  0.5057100000000 1.0
C      1  0.5588510000000  0.4108750000000  0.4928280000000 1.0
C      1  0.4324380000000  0.4186750000000  0.4811680000000 1.0
C      1  0.5702700000000  0.5866620000000  0.4873740000000 1.0
C      1  0.4490350000000  0.6144260000000  0.4725470000000 1.0
C      1  0.3919210000000  0.4730410000000  0.4882350000000 1.0
C      1  0.4786080000000  0.3847970000000  0.4871670000000 1.0
C      1  0.6092430000000  0.4384940000000  0.4740250000000 1.0
C      1  0.4298200000000  0.5869310000000  0.5111240000000 1.0
C      1  0.5485790000000  0.6114250000000  0.5263690000000 1.0
C      1  0.6092080000000  0.4728560000000  0.5117690000000 1.0
C      1  0.5208950000000  0.3843780000000  0.5124860000000 1.0
C      1  0.3917810000000  0.4381460000000  0.5255050000000 1.0
C      1  0.5489520000000  0.6026010000000  0.4994880000000 1.0
C      1  0.3995330000000  0.4473980000000  0.5000380000000 1.0
C      1  0.4506650000000  0.6027100000000  0.4981380000000 1.0
C      1  0.6015450000000  0.4473180000000  0.4996630000000 1.0
C      1  0.4997460000000  0.3706130000000  0.4995360000000 1.0
END
