TITL C-3577089-586-585 5.75462604329619e-07 125000 -641.778979044975 0 0 102 (C1) n - 1
REM
REM in /home/bkarasulu/work/CARBON/AIRSS/Generating-Clusters/EDIP-Nigel-Params/with-SteepDescent/Higher-Symm/SD-CG/HFTN-CG
REM
REM
REM
REM
REM
REM ./C.cell (12c818d87b63d06a65506943cc24bca4)
REM
REM compiler GCC version 9.2.1 20190827 (Red Hat 9.2.1-1)
REM options -cpp -mtune=generic -march=x86-64 -g -O0 -fpre-include=/usr/include/finclude/math-vector-fortran.h
REM seed 846633436 -419585846 -219247473 304851567 -958512957 -922709068 -1960731230 -1007990842 349030403 -2090927296 1109279306 -2023406534 545351036 -2023097331 -725744735 -1675838321 1055432756 936742140 -1353842032 1025557810 -2012390258 -2018084148 -249296608 361901280 -514949087 -763266192 1028322937 1312768059 74308810 893724023 545473042 919822285 -837185015
REM
CELL 1.54180   50.00000   50.00000   50.00000   90.00000   90.00000   90.00000
LATT -1
SFAC C  
C      1  0.4503790000000  0.5243000000000  0.4297480000000 1.0
C      1  0.5246370000000  0.5377050000000  0.5555040000000 1.0
C      1  0.4941690000000  0.5132170000000  0.5961340000000 1.0
C      1  0.5572710000000  0.4717310000000  0.5729530000000 1.0
C      1  0.4839180000000  0.4367690000000  0.4422430000000 1.0
C      1  0.4883610000000  0.5419730000000  0.4789370000000 1.0
C      1  0.4710780000000  0.4628720000000  0.4371040000000 1.0
C      1  0.4897530000000  0.5394530000000  0.5861010000000 1.0
C      1  0.4798700000000  0.5281540000000  0.4332060000000 1.0
C      1  0.4696110000000  0.4729400000000  0.5128650000000 1.0
C      1  0.4603610000000  0.5421350000000  0.5298380000000 1.0
C      1  0.4376470000000  0.4805120000000  0.5485340000000 1.0
C      1  0.4378410000000  0.5348170000000  0.4893750000000 1.0
C      1  0.4789030000000  0.5624040000000  0.5417790000000 1.0
C      1  0.5477530000000  0.5550980000000  0.5419140000000 1.0
C      1  0.4810640000000  0.4920880000000  0.5777880000000 1.0
C      1  0.4603860000000  0.5831190000000  0.5005500000000 1.0
C      1  0.5163720000000  0.4510130000000  0.5205520000000 1.0
C      1  0.5026190000000  0.4549750000000  0.5506070000000 1.0
C      1  0.5177190000000  0.5627710000000  0.4318950000000 1.0
C      1  0.5211840000000  0.5083040000000  0.6015010000000 1.0
C      1  0.5285010000000  0.5776290000000  0.4566070000000 1.0
C      1  0.4442470000000  0.5027430000000  0.4911960000000 1.0
C      1  0.5461280000000  0.4499570000000  0.5593130000000 1.0
C      1  0.5784240000000  0.5136630000000  0.4882980000000 1.0
C      1  0.4701550000000  0.5150870000000  0.5359510000000 1.0
C      1  0.5754970000000  0.5393990000000  0.5050820000000 1.0
C      1  0.5853000000000  0.4900390000000  0.5334260000000 1.0
C      1  0.5297490000000  0.4053870000000  0.5052580000000 1.0
C      1  0.5496840000000  0.4325000000000  0.4688170000000 1.0
C      1  0.4643520000000  0.4448510000000  0.5219660000000 1.0
C      1  0.4244010000000  0.4623070000000  0.4618840000000 1.0
C      1  0.4180310000000  0.5387720000000  0.5109030000000 1.0
C      1  0.4843670000000  0.5675760000000  0.4630700000000 1.0
C      1  0.5578100000000  0.4996250000000  0.5696710000000 1.0
C      1  0.5219340000000  0.5217750000000  0.5051920000000 1.0
C      1  0.4949840000000  0.5083850000000  0.4168890000000 1.0
C      1  0.5331010000000  0.4823140000000  0.4776270000000 1.0
C      1  0.5124670000000  0.4401410000000  0.4387410000000 1.0
C      1  0.4631200000000  0.5122020000000  0.5646260000000 1.0
C      1  0.4372360000000  0.4279670000000  0.4869460000000 1.0
C      1  0.5396670000000  0.5551020000000  0.4733980000000 1.0
C      1  0.5327000000000  0.5372120000000  0.4314060000000 1.0
C      1  0.4922770000000  0.4801310000000  0.4256970000000 1.0
C      1  0.4740190000000  0.4157420000000  0.4575400000000 1.0
C      1  0.5635500000000  0.5117270000000  0.4615110000000 1.0
C      1  0.3993000000000  0.5182900000000  0.5099790000000 1.0
C      1  0.5179490000000  0.4670820000000  0.4286430000000 1.0
C      1  0.4522510000000  0.4935580000000  0.5234610000000 1.0
C      1  0.5209870000000  0.4402220000000  0.5680160000000 1.0
C      1  0.5211750000000  0.5026160000000  0.5451510000000 1.0
C      1  0.5646750000000  0.4418990000000  0.5129790000000 1.0
C      1  0.4990830000000  0.5524530000000  0.5625390000000 1.0
C      1  0.4842920000000  0.5803540000000  0.5181920000000 1.0
C      1  0.4207920000000  0.4346120000000  0.4651190000000 1.0
C      1  0.5113370000000  0.5815060000000  0.5043820000000 1.0
C      1  0.4732700000000  0.4457780000000  0.5511440000000 1.0
C      1  0.5646790000000  0.4920740000000  0.4400180000000 1.0
C      1  0.4801990000000  0.4239690000000  0.5066580000000 1.0
C      1  0.4364790000000  0.5561250000000  0.4660080000000 1.0
C      1  0.4638100000000  0.4165350000000  0.4834320000000 1.0
C      1  0.4354180000000  0.5037860000000  0.5655460000000 1.0
C      1  0.5478150000000  0.5340840000000  0.4551060000000 1.0
C      1  0.4936440000000  0.4858370000000  0.5050170000000 1.0
C      1  0.5014230000000  0.5092440000000  0.5222030000000 1.0
C      1  0.4346860000000  0.4410700000000  0.5134170000000 1.0
C      1  0.5758320000000  0.5116070000000  0.5494930000000 1.0
C      1  0.5185560000000  0.5015560000000  0.4529600000000 1.0
C      1  0.4569780000000  0.5775760000000  0.4715580000000 1.0
C      1  0.5842100000000  0.4882730000000  0.5049260000000 1.0
C      1  0.4211250000000  0.4817670000000  0.4869220000000 1.0
C      1  0.5750030000000  0.4675620000000  0.4474530000000 1.0
C      1  0.5094770000000  0.4238730000000  0.5108020000000 1.0
C      1  0.4642560000000  0.4989490000000  0.4680870000000 1.0
C      1  0.5766390000000  0.4617090000000  0.4944500000000 1.0
C      1  0.5039550000000  0.4832890000000  0.5603170000000 1.0
C      1  0.3964140000000  0.4938360000000  0.4974690000000 1.0
C      1  0.4640310000000  0.5449060000000  0.5002510000000 1.0
C      1  0.5432400000000  0.5016680000000  0.4992680000000 1.0
C      1  0.4316150000000  0.5450030000000  0.5347410000000 1.0
C      1  0.5062760000000  0.5862510000000  0.4736040000000 1.0
C      1  0.4425070000000  0.4724380000000  0.4399120000000 1.0
C      1  0.4883250000000  0.5581110000000  0.4344270000000 1.0
C      1  0.5448810000000  0.5166580000000  0.5890470000000 1.0
C      1  0.5243210000000  0.5136680000000  0.4161580000000 1.0
C      1  0.4581710000000  0.4662150000000  0.5657920000000 1.0
C      1  0.5447610000000  0.4565980000000  0.5302030000000 1.0
C      1  0.5589150000000  0.5624000000000  0.4951260000000 1.0
C      1  0.5588440000000  0.4607480000000  0.4706400000000 1.0
C      1  0.5426630000000  0.5428320000000  0.5787220000000 1.0
C      1  0.4370960000000  0.5468520000000  0.4394410000000 1.0
C      1  0.4183750000000  0.4653460000000  0.5116040000000 1.0
C      1  0.5688570000000  0.5360100000000  0.5334890000000 1.0
C      1  0.5158460000000  0.5454490000000  0.4905350000000 1.0
C      1  0.4878440000000  0.5166550000000  0.4603510000000 1.0
C      1  0.5400210000000  0.5717040000000  0.5165980000000 1.0
C      1  0.5511470000000  0.4213070000000  0.4956730000000 1.0
C      1  0.5318670000000  0.4235520000000  0.4494190000000 1.0
C      1  0.4425320000000  0.5014910000000  0.4469840000000 1.0
C      1  0.5467600000000  0.4879820000000  0.5282750000000 1.0
C      1  0.5398040000000  0.4883410000000  0.4233000000000 1.0
C      1  0.5129990000000  0.4681400000000  0.4948490000000 1.0
END
