TITL C-3577088-510-475 -3.34708866430765e-07 125000 -157.24852544567 0 0 27 (D3h) n - 1
REM
REM in /home/bkarasulu/work/CARBON/AIRSS/Generating-Clusters/EDIP-Nigel-Params/with-SteepDescent/Higher-Symm/SD-CG/HFTN-CG
REM
REM
REM
REM
REM
REM ./C.cell (12c818d87b63d06a65506943cc24bca4)
REM
REM compiler GCC version 9.2.1 20190827 (Red Hat 9.2.1-1)
REM options -cpp -mtune=generic -march=x86-64 -g -O0 -fpre-include=/usr/include/finclude/math-vector-fortran.h
REM seed -444970512 803689525 1047813181 -1877836577 -1748314979 -172766940 -275106748 936583106 2075733158 1900406675 401235493 1227562542 978533634 -1021283619 286416555 1640349632 1050950858 310914167 -1730781099 -76586706 917510980 627840682 -678375487 435750042 47067991 1425820675 -651091641 -964009473 -1705802443 -2141938042 -408892484 181681375 -1927341526
REM
CELL 1.54180   50.00000   50.00000   50.00000   90.00000   90.00000   90.00000
LATT -1
SFAC C  
C      1  0.4439180000000  0.4670160000000  0.4993520000000 1.0
C      1  0.5274810000000  0.4670180000000  0.5488930000000 1.0
C      1  0.5286030000000  0.4670180000000  0.4517550000000 1.0
C      1  0.4439170000000  0.5308240000000  0.4993520000000 1.0
C      1  0.5274790000000  0.5308260000000  0.5488930000000 1.0
C      1  0.5286010000000  0.5308270000000  0.4517550000000 1.0
C      1  0.4855430000000  0.4707050000000  0.5243870000000 1.0
C      1  0.5283490000000  0.4707060000000  0.5003270000000 1.0
C      1  0.4861100000000  0.4707050000000  0.4752860000000 1.0
C      1  0.4855410000000  0.5271370000000  0.5243870000000 1.0
C      1  0.5283480000000  0.5271380000000  0.5003280000000 1.0
C      1  0.4861090000000  0.5271380000000  0.4752860000000 1.0
C      1  0.5367860000000  0.5121970000000  0.5654500000000 1.0
C      1  0.5382880000000  0.5121970000000  0.4354170000000 1.0
C      1  0.4249250000000  0.5121940000000  0.4991330000000 1.0
C      1  0.5367870000000  0.4856470000000  0.5654500000000 1.0
C      1  0.5382890000000  0.4856480000000  0.4354170000000 1.0
C      1  0.4249250000000  0.4856450000000  0.4991330000000 1.0
C      1  0.4712150000000  0.4605960000000  0.4996670000000 1.0
C      1  0.5141060000000  0.4605970000000  0.5250960000000 1.0
C      1  0.5146820000000  0.4605970000000  0.4752360000000 1.0
C      1  0.4712130000000  0.5372460000000  0.4996680000000 1.0
C      1  0.5141040000000  0.5372470000000  0.5250960000000 1.0
C      1  0.5146800000000  0.5372470000000  0.4752370000000 1.0
C      1  0.4839820000000  0.4989210000000  0.5270190000000 1.0
C      1  0.5314080000000  0.4989220000000  0.5003630000000 1.0
C      1  0.4846100000000  0.4989210000000  0.4726180000000 1.0
END
