TITL C-3577076-40-79 -4.45517404350433e-06 125000 -758.058507812694 0 0 123 (C1) n - 1
REM
REM in /home/bkarasulu/work/CARBON/AIRSS/Generating-Clusters/EDIP-Nigel-Params/with-SteepDescent/Higher-Symm/SD-CG/HFTN-CG
REM
REM
REM
REM
REM
REM ./C.cell (12c818d87b63d06a65506943cc24bca4)
REM
REM compiler GCC version 9.2.1 20190827 (Red Hat 9.2.1-1)
REM options -cpp -mtune=generic -march=x86-64 -g -O0 -fpre-include=/usr/include/finclude/math-vector-fortran.h
REM seed 340080352 -1463171288 1520380642 -1166541413 -1716565032 -1448057415 242485512 -1009384350 -1111275787 -30821611 93098088 4050246 -1936046809 1874947103 43973501 151232706 -1839584103 1970014943 -1937700445 1714315924 581666720 1251674325 1574416773 149177542 358499401 -298591385 328202062 -1423557980 62003099 136255177 -816753451 890740377 982747912
REM
CELL 1.54180   50.00000   50.00000   50.00000   90.00000   90.00000   90.00000
LATT -1
SFAC C  
C      1  0.4425100000000  0.4155930000000  0.4859570000000 1.0
C      1  0.5334900000000  0.4116510000000  0.4748280000000 1.0
C      1  0.5112240000000  0.4139460000000  0.5459370000000 1.0
C      1  0.4496570000000  0.4154310000000  0.5155190000000 1.0
C      1  0.5352550000000  0.4132950000000  0.5289630000000 1.0
C      1  0.5079320000000  0.4115990000000  0.4604460000000 1.0
C      1  0.5313710000000  0.5425040000000  0.4075430000000 1.0
C      1  0.5643060000000  0.5416190000000  0.5737100000000 1.0
C      1  0.4040310000000  0.5433530000000  0.5190930000000 1.0
C      1  0.5311930000000  0.5427390000000  0.5940300000000 1.0
C      1  0.5648640000000  0.5427610000000  0.4271110000000 1.0
C      1  0.4039630000000  0.5445940000000  0.4802500000000 1.0
C      1  0.4709530000000  0.3900070000000  0.4862440000000 1.0
C      1  0.5192720000000  0.3792120000000  0.4882850000000 1.0
C      1  0.4955930000000  0.3935780000000  0.5307910000000 1.0
C      1  0.4761980000000  0.4034130000000  0.5114170000000 1.0
C      1  0.5188650000000  0.3814150000000  0.5169510000000 1.0
C      1  0.4956940000000  0.3864480000000  0.4708370000000 1.0
C      1  0.5498440000000  0.5639720000000  0.5296110000000 1.0
C      1  0.4490110000000  0.5662820000000  0.5304570000000 1.0
C      1  0.5000500000000  0.5580010000000  0.4441350000000 1.0
C      1  0.5496670000000  0.5641520000000  0.4717960000000 1.0
C      1  0.4491310000000  0.5665240000000  0.4703970000000 1.0
C      1  0.4993840000000  0.5641950000000  0.5587390000000 1.0
C      1  0.5857690000000  0.4716570000000  0.5520960000000 1.0
C      1  0.4154520000000  0.4717790000000  0.5417720000000 1.0
C      1  0.5142540000000  0.4741330000000  0.4077250000000 1.0
C      1  0.5829400000000  0.4791970000000  0.4473520000000 1.0
C      1  0.4096380000000  0.4620750000000  0.4530560000000 1.0
C      1  0.5098600000000  0.4715180000000  0.5986900000000 1.0
C      1  0.4290850000000  0.5358540000000  0.5638890000000 1.0
C      1  0.4795330000000  0.5344260000000  0.4072630000000 1.0
C      1  0.5903970000000  0.5364060000000  0.5294520000000 1.0
C      1  0.4284830000000  0.5375580000000  0.4354920000000 1.0
C      1  0.4797740000000  0.5352390000000  0.5936570000000 1.0
C      1  0.5908890000000  0.5373230000000  0.4714260000000 1.0
C      1  0.5895680000000  0.4557460000000  0.4638180000000 1.0
C      1  0.4853060000000  0.4567730000000  0.5954080000000 1.0
C      1  0.4310440000000  0.4568210000000  0.4341830000000 1.0
C      1  0.5919960000000  0.4555580000000  0.5293590000000 1.0
C      1  0.4907780000000  0.4569590000000  0.4048590000000 1.0
C      1  0.4269320000000  0.4572430000000  0.5652160000000 1.0
C      1  0.5245970000000  0.5606370000000  0.4291110000000 1.0
C      1  0.5493800000000  0.5606520000000  0.5580300000000 1.0
C      1  0.4253170000000  0.5623550000000  0.5145340000000 1.0
C      1  0.5249590000000  0.5616500000000  0.5729190000000 1.0
C      1  0.5493690000000  0.5610650000000  0.4432870000000 1.0
C      1  0.4250950000000  0.5635130000000  0.4859740000000 1.0
C      1  0.5441040000000  0.4421670000000  0.5277530000000 1.0
C      1  0.4504440000000  0.4438430000000  0.5253590000000 1.0
C      1  0.5036080000000  0.4390630000000  0.4476240000000 1.0
C      1  0.5430790000000  0.4404670000000  0.4709220000000 1.0
C      1  0.4544740000000  0.4407880000000  0.4738190000000 1.0
C      1  0.5020760000000  0.4426760000000  0.5524190000000 1.0
C      1  0.5483990000000  0.4960130000000  0.5106490000000 1.0
C      1  0.4632620000000  0.4941790000000  0.5303380000000 1.0
C      1  0.4855860000000  0.4872180000000  0.4576960000000 1.0
C      1  0.5459820000000  0.4977510000000  0.4795730000000 1.0
C      1  0.4555350000000  0.4916260000000  0.4700070000000 1.0
C      1  0.4907750000000  0.4914220000000  0.5433930000000 1.0
C      1  0.4070000000000  0.5365730000000  0.4538710000000 1.0
C      1  0.5860040000000  0.5357810000000  0.4436140000000 1.0
C      1  0.5065220000000  0.5339140000000  0.6027800000000 1.0
C      1  0.4080740000000  0.5344960000000  0.5450140000000 1.0
C      1  0.5850920000000  0.5337930000000  0.5571300000000 1.0
C      1  0.5067540000000  0.5326280000000  0.3992630000000 1.0
C      1  0.5623530000000  0.4783160000000  0.4282790000000 1.0
C      1  0.5354860000000  0.4703690000000  0.5851050000000 1.0
C      1  0.4138460000000  0.4658030000000  0.4812250000000 1.0
C      1  0.5619880000000  0.4705740000000  0.5682480000000 1.0
C      1  0.5363010000000  0.4687140000000  0.4259740000000 1.0
C      1  0.4228440000000  0.4567390000000  0.5172560000000 1.0
C      1  0.5250800000000  0.5740670000000  0.5171590000000 1.0
C      1  0.4739810000000  0.5753570000000  0.5174230000000 1.0
C      1  0.4990660000000  0.5613070000000  0.4734750000000 1.0
C      1  0.5250080000000  0.5743570000000  0.4846940000000 1.0
C      1  0.4738930000000  0.5758300000000  0.4839340000000 1.0
C      1  0.4993040000000  0.5605250000000  0.5292000000000 1.0
C      1  0.4659200000000  0.5087720000000  0.4143450000000 1.0
C      1  0.5983180000000  0.5115770000000  0.5148360000000 1.0
C      1  0.4395150000000  0.5096970000000  0.5733120000000 1.0
C      1  0.4665880000000  0.5092440000000  0.5870300000000 1.0
C      1  0.5970740000000  0.5115000000000  0.4847760000000 1.0
C      1  0.4379190000000  0.5110480000000  0.4259170000000 1.0
C      1  0.4783610000000  0.4457040000000  0.5699290000000 1.0
C      1  0.4549140000000  0.4434370000000  0.4433500000000 1.0
C      1  0.5702470000000  0.4463820000000  0.4829080000000 1.0
C      1  0.4812260000000  0.4433690000000  0.4286760000000 1.0
C      1  0.4524580000000  0.4485160000000  0.5553060000000 1.0
C      1  0.5705780000000  0.4464750000000  0.5129720000000 1.0
C      1  0.4403640000000  0.4898870000000  0.5503440000000 1.0
C      1  0.4841370000000  0.4876160000000  0.4268340000000 1.0
C      1  0.5777850000000  0.4897570000000  0.5191340000000 1.0
C      1  0.4335380000000  0.4917950000000  0.4480630000000 1.0
C      1  0.4856620000000  0.4890600000000  0.5746050000000 1.0
C      1  0.5763150000000  0.4900390000000  0.4765330000000 1.0
C      1  0.5210020000000  0.5164480000000  0.4828300000000 1.0
C      1  0.4982140000000  0.5257960000000  0.5269680000000 1.0
C      1  0.4687400000000  0.5168230000000  0.4851880000000 1.0
C      1  0.5226490000000  0.5164450000000  0.5120570000000 1.0
C      1  0.4948830000000  0.5229050000000  0.4700420000000 1.0
C      1  0.4707830000000  0.5180010000000  0.5146220000000 1.0
C      1  0.5003840000000  0.6167370000000  0.5264890000000 1.0
C      1  0.4764730000000  0.6066770000000  0.4858850000000 1.0
C      1  0.5239950000000  0.6056100000000  0.4858740000000 1.0
C      1  0.5004820000000  0.6172980000000  0.4760870000000 1.0
C      1  0.4764900000000  0.6062230000000  0.5163400000000 1.0
C      1  0.5239380000000  0.6052830000000  0.5165820000000 1.0
C      1  0.5237750000000  0.4594410000000  0.5140820000000 1.0
C      1  0.4752510000000  0.4555210000000  0.5128000000000 1.0
C      1  0.4985630000000  0.4595260000000  0.4696920000000 1.0
C      1  0.5242120000000  0.4596600000000  0.4847460000000 1.0
C      1  0.4804710000000  0.4451350000000  0.4866210000000 1.0
C      1  0.4984140000000  0.4629290000000  0.5297720000000 1.0
C      1  0.4754470000000  0.5539800000000  0.5715460000000 1.0
C      1  0.4512860000000  0.5522210000000  0.4454320000000 1.0
C      1  0.5711830000000  0.5524560000000  0.4863380000000 1.0
C      1  0.4757090000000  0.5529000000000  0.4298960000000 1.0
C      1  0.4512730000000  0.5524410000000  0.5555380000000 1.0
C      1  0.5708420000000  0.5517320000000  0.5147850000000 1.0
C      1  0.5394810000000  0.4510340000000  0.5596220000000 1.0
C      1  0.4426960000000  0.4674070000000  0.4855300000000 1.0
C      1  0.5326530000000  0.4451380000000  0.4409520000000 1.0
END
