TITL C-3578208-4450-376 -1.29456364549861e-06 125000 -1255.41354478218 0 0 196 (C1) n - 1
REM
REM in /home/bkarasulu/work/CARBON/AIRSS/Generating-Clusters/EDIP-Nigel-Params/with-SteepDescent/Higher-Symm/SD-CG/HFTN-CG
REM
REM
REM
REM
REM
REM ./C.cell (12c818d87b63d06a65506943cc24bca4)
REM
REM compiler GCC version 9.2.1 20190827 (Red Hat 9.2.1-1)
REM options -cpp -mtune=generic -march=x86-64 -g -O0 -fpre-include=/usr/include/finclude/math-vector-fortran.h
REM seed 1321305719 1186043603 1339264431 -861738579 911921142 1829541130 -99112783 -1377578049 653075531 2047296156 -1517797458 2060060900 1993688213 195947311 -1795854524 2036083007 1571140158 566169525 1013632982 -1251643540 -1004798698 387954155 -2147331579 -1505446507 -1152458797 -210555261 -770642988 -1038721154 -1906559429 1346574597 1202009809 331593505 -1192715970
REM
CELL 1.54180   50.00000   50.00000   50.00000   90.00000   90.00000   90.00000
LATT -1
SFAC C  
C      1  0.5000860000000  0.3866420000000  0.4740520000000 1.0
C      1  0.3898660000000  0.4723980000000  0.4987540000000 1.0
C      1  0.4740620000000  0.4993330000000  0.3863660000000 1.0
C      1  0.5002800000000  0.6189100000000  0.4733690000000 1.0
C      1  0.4985350000000  0.6143480000000  0.5266790000000 1.0
C      1  0.5002800000000  0.3853640000000  0.5288160000000 1.0
C      1  0.6133150000000  0.5261850000000  0.5003990000000 1.0
C      1  0.3903920000000  0.5272200000000  0.4995160000000 1.0
C      1  0.6131200000000  0.4733870000000  0.5002490000000 1.0
C      1  0.5295000000000  0.5036170000000  0.3864800000000 1.0
C      1  0.4767370000000  0.5045010000000  0.6125440000000 1.0
C      1  0.5317320000000  0.5026880000000  0.6083520000000 1.0
C      1  0.4002520000000  0.5213020000000  0.4507030000000 1.0
C      1  0.5238600000000  0.4598810000000  0.4089810000000 1.0
C      1  0.4510430000000  0.3983210000000  0.5184170000000 1.0
C      1  0.5981100000000  0.4836680000000  0.4523710000000 1.0
C      1  0.4024830000000  0.4798010000000  0.5474410000000 1.0
C      1  0.5954280000000  0.5193230000000  0.5453780000000 1.0
C      1  0.4820290000000  0.5435400000000  0.4091050000000 1.0
C      1  0.5246720000000  0.5505630000000  0.5969920000000 1.0
C      1  0.4837130000000  0.4602690000000  0.5911800000000 1.0
C      1  0.5425410000000  0.5930680000000  0.5188720000000 1.0
C      1  0.4561760000000  0.5965390000000  0.4824240000000 1.0
C      1  0.5422900000000  0.4069100000000  0.4845390000000 1.0
C      1  0.4546590000000  0.5778450000000  0.4584770000000 1.0
C      1  0.5867570000000  0.4585430000000  0.4424340000000 1.0
C      1  0.4691960000000  0.4689640000000  0.5663720000000 1.0
C      1  0.5291510000000  0.4434250000000  0.4802070000000 1.0
C      1  0.4469630000000  0.4160390000000  0.5407580000000 1.0
C      1  0.5337560000000  0.5662000000000  0.5283470000000 1.0
C      1  0.4216310000000  0.5407150000000  0.4492410000000 1.0
C      1  0.5599090000000  0.5227810000000  0.5312930000000 1.0
C      1  0.4229470000000  0.4595650000000  0.5490530000000 1.0
C      1  0.5443040000000  0.5498950000000  0.5756790000000 1.0
C      1  0.4659270000000  0.5332150000000  0.4327450000000 1.0
C      1  0.5418010000000  0.4677440000000  0.4312150000000 1.0
C      1  0.4678130000000  0.4966760000000  0.4845830000000 1.0
C      1  0.4905180000000  0.4831970000000  0.4711410000000 1.0
C      1  0.4645950000000  0.4532890000000  0.5174820000000 1.0
C      1  0.5344690000000  0.4937520000000  0.4829140000000 1.0
C      1  0.4703840000000  0.5032350000000  0.5125620000000 1.0
C      1  0.5323170000000  0.4880620000000  0.5102920000000 1.0
C      1  0.5100200000000  0.5047080000000  0.4726730000000 1.0
C      1  0.5050100000000  0.5230000000000  0.5308250000000 1.0
C      1  0.4894470000000  0.4869540000000  0.5315030000000 1.0
C      1  0.5018960000000  0.5270250000000  0.4926900000000 1.0
C      1  0.4740170000000  0.5400180000000  0.4874240000000 1.0
C      1  0.5093310000000  0.4694760000000  0.5151030000000 1.0
C      1  0.5845810000000  0.4213270000000  0.5452300000000 1.0
C      1  0.4228140000000  0.5484420000000  0.5829290000000 1.0
C      1  0.5436290000000  0.5832180000000  0.4314560000000 1.0
C      1  0.4169500000000  0.5786070000000  0.5454910000000 1.0
C      1  0.5810480000000  0.5750300000000  0.4600540000000 1.0
C      1  0.4185720000000  0.4208770000000  0.4524980000000 1.0
C      1  0.5811720000000  0.4546890000000  0.5814040000000 1.0
C      1  0.4217550000000  0.4518110000000  0.4155570000000 1.0
C      1  0.5749650000000  0.5490680000000  0.4197790000000 1.0
C      1  0.4550600000000  0.4163710000000  0.4197190000000 1.0
C      1  0.5483790000000  0.4190730000000  0.5773020000000 1.0
C      1  0.4529500000000  0.5858610000000  0.5775920000000 1.0
C      1  0.4784020000000  0.3736130000000  0.4864830000000 1.0
C      1  0.3781410000000  0.4860060000000  0.4770160000000 1.0
C      1  0.4894070000000  0.4775570000000  0.3767810000000 1.0
C      1  0.5230030000000  0.6288470000000  0.4878840000000 1.0
C      1  0.4768810000000  0.6279950000000  0.5145590000000 1.0
C      1  0.5220930000000  0.3747270000000  0.5145330000000 1.0
C      1  0.6253440000000  0.5132710000000  0.4784500000000 1.0
C      1  0.3789170000000  0.5137880000000  0.5214450000000 1.0
C      1  0.6256420000000  0.4855850000000  0.5224550000000 1.0
C      1  0.5144620000000  0.5249280000000  0.3754460000000 1.0
C      1  0.4912380000000  0.5260950000000  0.6233240000000 1.0
C      1  0.5187180000000  0.4804690000000  0.6201670000000 1.0
C      1  0.4428470000000  0.4149240000000  0.4693920000000 1.0
C      1  0.4128270000000  0.4669000000000  0.4396960000000 1.0
C      1  0.4679480000000  0.4418140000000  0.4097030000000 1.0
C      1  0.5574030000000  0.5809630000000  0.4777220000000 1.0
C      1  0.4419180000000  0.5843270000000  0.5297400000000 1.0
C      1  0.5596300000000  0.4109350000000  0.5307840000000 1.0
C      1  0.5821400000000  0.5306530000000  0.4427130000000 1.0
C      1  0.4151290000000  0.5327720000000  0.5587630000000 1.0
C      1  0.5865400000000  0.4709650000000  0.5568320000000 1.0
C      1  0.5278930000000  0.5588750000000  0.4246280000000 1.0
C      1  0.4683610000000  0.5618540000000  0.5864590000000 1.0
C      1  0.5345730000000  0.4448620000000  0.5846400000000 1.0
C      1  0.5011020000000  0.4360400000000  0.5894050000000 1.0
C      1  0.4336030000000  0.5932840000000  0.5010280000000 1.0
C      1  0.5958600000000  0.5052860000000  0.4320540000000 1.0
C      1  0.5038170000000  0.5704220000000  0.5903820000000 1.0
C      1  0.5001200000000  0.5670300000000  0.4143900000000 1.0
C      1  0.5056000000000  0.4383890000000  0.4177190000000 1.0
C      1  0.5669630000000  0.4074100000000  0.5000550000000 1.0
C      1  0.4314020000000  0.4053050000000  0.4972680000000 1.0
C      1  0.5685120000000  0.5904220000000  0.5050700000000 1.0
C      1  0.4062900000000  0.5011450000000  0.4296990000000 1.0
C      1  0.5953450000000  0.4993540000000  0.5668680000000 1.0
C      1  0.4094480000000  0.5005370000000  0.5678310000000 1.0
C      1  0.4895490000000  0.5239890000000  0.5573730000000 1.0
C      1  0.5183490000000  0.5487770000000  0.4805830000000 1.0
C      1  0.5573360000000  0.4754680000000  0.5160910000000 1.0
C      1  0.5152080000000  0.4887170000000  0.5563930000000 1.0
C      1  0.4852870000000  0.4799040000000  0.4419180000000 1.0
C      1  0.5125080000000  0.5148170000000  0.4449600000000 1.0
C      1  0.4781970000000  0.4412510000000  0.4944390000000 1.0
C      1  0.5145740000000  0.4449140000000  0.5339380000000 1.0
C      1  0.4800390000000  0.5615930000000  0.5091610000000 1.0
C      1  0.4442380000000  0.5121680000000  0.5206320000000 1.0
C      1  0.5576890000000  0.5095730000000  0.4796720000000 1.0
C      1  0.4411060000000  0.4876210000000  0.4785950000000 1.0
C      1  0.5182460000000  0.4205570000000  0.4382650000000 1.0
C      1  0.4126580000000  0.4263810000000  0.5091130000000 1.0
C      1  0.4273780000000  0.5116800000000  0.4103160000000 1.0
C      1  0.4895490000000  0.5880420000000  0.4328550000000 1.0
C      1  0.5131430000000  0.5864160000000  0.5670720000000 1.0
C      1  0.4911300000000  0.4149870000000  0.5701190000000 1.0
C      1  0.5847500000000  0.5667560000000  0.5167110000000 1.0
C      1  0.4150030000000  0.5727110000000  0.4888090000000 1.0
C      1  0.5771420000000  0.4353930000000  0.4899990000000 1.0
C      1  0.5768480000000  0.4952510000000  0.4103820000000 1.0
C      1  0.4306860000000  0.4903330000000  0.5871260000000 1.0
C      1  0.5771330000000  0.5121440000000  0.5864240000000 1.0
C      1  0.4625300000000  0.5970250000000  0.5517480000000 1.0
C      1  0.5929370000000  0.5494490000000  0.4653060000000 1.0
C      1  0.5564510000000  0.4653390000000  0.5929070000000 1.0
C      1  0.5381810000000  0.4024680000000  0.5547830000000 1.0
C      1  0.4666950000000  0.4041870000000  0.4446200000000 1.0
C      1  0.5360980000000  0.5949120000000  0.4565460000000 1.0
C      1  0.4054510000000  0.4455970000000  0.4613360000000 1.0
C      1  0.5990030000000  0.4449090000000  0.5349320000000 1.0
C      1  0.4056570000000  0.5530840000000  0.5368510000000 1.0
C      1  0.4483410000000  0.5401190000000  0.5944610000000 1.0
C      1  0.5489240000000  0.5416290000000  0.4086900000000 1.0
C      1  0.4460580000000  0.4622400000000  0.4031120000000 1.0
C      1  0.3920570000000  0.4890380000000  0.5222630000000 1.0
C      1  0.4900370000000  0.5234070000000  0.3897350000000 1.0
C      1  0.5243730000000  0.3858260000000  0.4888200000000 1.0
C      1  0.6134290000000  0.5109090000000  0.5241090000000 1.0
C      1  0.3913490000000  0.5107720000000  0.4759700000000 1.0
C      1  0.6162260000000  0.4869580000000  0.4747070000000 1.0
C      1  0.5136890000000  0.4801050000000  0.3911330000000 1.0
C      1  0.4929860000000  0.4811750000000  0.6085410000000 1.0
C      1  0.5152640000000  0.5262800000000  0.6085970000000 1.0
C      1  0.4758050000000  0.6169380000000  0.4886530000000 1.0
C      1  0.5225100000000  0.6126500000000  0.5111240000000 1.0
C      1  0.4764650000000  0.3862460000000  0.5116350000000 1.0
C      1  0.5485530000000  0.5116650000000  0.4079390000000 1.0
C      1  0.5089990000000  0.4039540000000  0.5496720000000 1.0
C      1  0.4112290000000  0.5477580000000  0.5073090000000 1.0
C      1  0.4520030000000  0.4921130000000  0.4056800000000 1.0
C      1  0.5521090000000  0.4952950000000  0.5869340000000 1.0
C      1  0.4550680000000  0.5105790000000  0.5926080000000 1.0
C      1  0.4922190000000  0.5946690000000  0.5469010000000 1.0
C      1  0.5068640000000  0.5977730000000  0.4551150000000 1.0
C      1  0.4959000000000  0.4049000000000  0.4519390000000 1.0
C      1  0.6008390000000  0.4476150000000  0.5057020000000 1.0
C      1  0.4100130000000  0.4510750000000  0.4909530000000 1.0
C      1  0.5901090000000  0.5439030000000  0.4950770000000 1.0
C      1  0.5697520000000  0.4674300000000  0.4198100000000 1.0
C      1  0.4632670000000  0.4174590000000  0.5641460000000 1.0
C      1  0.4261550000000  0.5666910000000  0.4615940000000 1.0
C      1  0.4369830000000  0.5359080000000  0.4252860000000 1.0
C      1  0.5714340000000  0.5398200000000  0.5783120000000 1.0
C      1  0.4397530000000  0.4657800000000  0.5724660000000 1.0
C      1  0.5379990000000  0.5722560000000  0.5578100000000 1.0
C      1  0.4614490000000  0.5921300000000  0.4339990000000 1.0
C      1  0.5406600000000  0.4413430000000  0.4514430000000 1.0
C      1  0.5716790000000  0.4386240000000  0.4589950000000 1.0
C      1  0.4233020000000  0.4326450000000  0.5366190000000 1.0
C      1  0.5722270000000  0.5500720000000  0.5414200000000 1.0
C      1  0.5114140000000  0.5446640000000  0.4505030000000 1.0
C      1  0.5419350000000  0.4346360000000  0.5246430000000 1.0
C      1  0.4411050000000  0.5149150000000  0.5491000000000 1.0
C      1  0.4833670000000  0.4521510000000  0.4341460000000 1.0
C      1  0.5156770000000  0.4587220000000  0.5608440000000 1.0
C      1  0.4852650000000  0.5531210000000  0.5605160000000 1.0
C      1  0.4552200000000  0.5583130000000  0.5230710000000 1.0
C      1  0.5434180000000  0.5555550000000  0.4947220000000 1.0
C      1  0.4558310000000  0.4413840000000  0.4757890000000 1.0
C      1  0.5597700000000  0.4760120000000  0.5444880000000 1.0
C      1  0.4369040000000  0.4870150000000  0.4496510000000 1.0
C      1  0.5571850000000  0.5183790000000  0.4531770000000 1.0
C      1  0.4405680000000  0.5376280000000  0.5069010000000 1.0
C      1  0.5385100000000  0.5031390000000  0.4356000000000 1.0
C      1  0.4774380000000  0.4477270000000  0.5441700000000 1.0
C      1  0.5517850000000  0.4491990000000  0.5015640000000 1.0
C      1  0.4390530000000  0.4612770000000  0.4920340000000 1.0
C      1  0.5621620000000  0.5306080000000  0.5001190000000 1.0
C      1  0.4621700000000  0.4971080000000  0.4341730000000 1.0
C      1  0.5437770000000  0.4981570000000  0.5562240000000 1.0
C      1  0.4665210000000  0.5055470000000  0.5643280000000 1.0
C      1  0.5023430000000  0.5553440000000  0.5287730000000 1.0
C      1  0.4750020000000  0.5516950000000  0.4581040000000 1.0
C      1  0.5010650000000  0.4584660000000  0.4877260000000 1.0
C      1  0.5769720000000  0.4259400000000  0.5735610000000 1.0
C      1  0.5723150000000  0.5761220000000  0.4317430000000 1.0
C      1  0.4246100000000  0.5769530000000  0.5744260000000 1.0
C      1  0.4263040000000  0.4235130000000  0.4237630000000 1.0
END
