TITL C-3578197-9521-497 1.05432457454206e-06 125000 -411.866842666679 0 0 69 (C1) n - 1
REM
REM in /home/bkarasulu/work/CARBON/AIRSS/Generating-Clusters/EDIP-Nigel-Params/with-SteepDescent/Higher-Symm/SD-CG/HFTN-CG
REM
REM
REM
REM
REM
REM ./C.cell (12c818d87b63d06a65506943cc24bca4)
REM
REM compiler GCC version 9.2.1 20190827 (Red Hat 9.2.1-1)
REM options -cpp -mtune=generic -march=x86-64 -g -O0 -fpre-include=/usr/include/finclude/math-vector-fortran.h
REM seed 1977306059 -205669288 1791758530 1237993252 718359480 1398287424 -1281562596 1854365483 -2090249404 -1704053715 -1509922802 -265238892 -1192725841 241662052 506857716 -1568977790 358783989 -889712996 1148148058 -1484454198 -46464936 -1538362361 147085205 -902102233 -826213049 584669972 743063362 715636118 -1742860057 -1717896130 34429747 -1266040379 561071931
REM
CELL 1.54180   50.00000   50.00000   50.00000   90.00000   90.00000   90.00000
LATT -1
SFAC C  
C      1  0.5727190000000  0.5175220000000  0.4563400000000 1.0
C      1  0.4607360000000  0.5452070000000  0.4517470000000 1.0
C      1  0.4749020000000  0.4340790000000  0.4528000000000 1.0
C      1  0.5696840000000  0.5159380000000  0.5542430000000 1.0
C      1  0.4555590000000  0.5398630000000  0.5468000000000 1.0
C      1  0.4703500000000  0.4341100000000  0.5449000000000 1.0
C      1  0.5701080000000  0.4893050000000  0.4583690000000 1.0
C      1  0.4525780000000  0.4540540000000  0.4507070000000 1.0
C      1  0.4817650000000  0.5638310000000  0.4631020000000 1.0
C      1  0.5723560000000  0.4885810000000  0.5457850000000 1.0
C      1  0.4474440000000  0.4528970000000  0.5481270000000 1.0
C      1  0.4740180000000  0.5630770000000  0.5430560000000 1.0
C      1  0.5044420000000  0.5286470000000  0.4744410000000 1.0
C      1  0.4803500000000  0.4829010000000  0.4701230000000 1.0
C      1  0.5299310000000  0.4823050000000  0.4844910000000 1.0
C      1  0.5024110000000  0.5255020000000  0.5258980000000 1.0
C      1  0.4773470000000  0.4823720000000  0.5268350000000 1.0
C      1  0.5365180000000  0.4889680000000  0.5129930000000 1.0
C      1  0.5014650000000  0.4661730000000  0.4839360000000 1.0
C      1  0.4797610000000  0.5114040000000  0.4824960000000 1.0
C      1  0.5301280000000  0.5109430000000  0.4717250000000 1.0
C      1  0.4935420000000  0.4616090000000  0.5122330000000 1.0
C      1  0.4791000000000  0.5104020000000  0.5141260000000 1.0
C      1  0.5300460000000  0.5166840000000  0.5214940000000 1.0
C      1  0.4974550000000  0.5672270000000  0.5600970000000 1.0
C      1  0.4372000000000  0.4860170000000  0.5647970000000 1.0
C      1  0.5555420000000  0.4713050000000  0.5606280000000 1.0
C      1  0.5086560000000  0.5596730000000  0.4523790000000 1.0
C      1  0.4382260000000  0.4872480000000  0.4367580000000 1.0
C      1  0.5453010000000  0.4513550000000  0.4488130000000 1.0
C      1  0.4932430000000  0.4375000000000  0.5617990000000 1.0
C      1  0.4395430000000  0.5163680000000  0.5712570000000 1.0
C      1  0.5464450000000  0.5465430000000  0.5586720000000 1.0
C      1  0.4958800000000  0.4337210000000  0.4320800000000 1.0
C      1  0.4397790000000  0.5182950000000  0.4341420000000 1.0
C      1  0.5638200000000  0.5309370000000  0.4331680000000 1.0
C      1  0.5544200000000  0.5314350000000  0.5338310000000 1.0
C      1  0.4535840000000  0.5257310000000  0.5212780000000 1.0
C      1  0.4775980000000  0.4375740000000  0.5165370000000 1.0
C      1  0.5570610000000  0.5261000000000  0.4795750000000 1.0
C      1  0.4543970000000  0.5273070000000  0.4742580000000 1.0
C      1  0.4992190000000  0.4398550000000  0.4701390000000 1.0
C      1  0.5657910000000  0.4905830000000  0.5163410000000 1.0
C      1  0.4492620000000  0.4708450000000  0.5249960000000 1.0
C      1  0.4969490000000  0.5549930000000  0.5231700000000 1.0
C      1  0.5530310000000  0.4693530000000  0.4690200000000 1.0
C      1  0.4531140000000  0.4700980000000  0.4747560000000 1.0
C      1  0.4826850000000  0.5549470000000  0.4937710000000 1.0
C      1  0.5296250000000  0.5331100000000  0.5780290000000 1.0
C      1  0.4663930000000  0.5111530000000  0.5848010000000 1.0
C      1  0.5065680000000  0.4623890000000  0.5607320000000 1.0
C      1  0.5370170000000  0.5227990000000  0.4300300000000 1.0
C      1  0.4663340000000  0.5158190000000  0.4190060000000 1.0
C      1  0.5041790000000  0.4605770000000  0.4254960000000 1.0
C      1  0.5299130000000  0.4766060000000  0.5705450000000 1.0
C      1  0.4646330000000  0.4814780000000  0.5769080000000 1.0
C      1  0.5024760000000  0.5459890000000  0.5787660000000 1.0
C      1  0.5317860000000  0.4677920000000  0.4301400000000 1.0
C      1  0.4629430000000  0.4847040000000  0.4205370000000 1.0
C      1  0.5126800000000  0.5393660000000  0.4323600000000 1.0
C      1  0.4886370000000  0.5211230000000  0.5675340000000 1.0
C      1  0.4870590000000  0.4840560000000  0.5565130000000 1.0
C      1  0.4916560000000  0.5198940000000  0.4336200000000 1.0
C      1  0.4872900000000  0.4826160000000  0.4383870000000 1.0
C      1  0.5224250000000  0.5046830000000  0.5713140000000 1.0
C      1  0.5288920000000  0.4958950000000  0.4363510000000 1.0
C      1  0.4488500000000  0.4555610000000  0.4998010000000 1.0
C      1  0.4539330000000  0.5443880000000  0.4985300000000 1.0
C      1  0.5712490000000  0.5186170000000  0.5050440000000 1.0
END
