TITL C-3577082-504-416 -1.40427232574366e-06 125000 -689.591960650213 0 0 111 (C1) n - 1
REM
REM in /home/bkarasulu/work/CARBON/AIRSS/Generating-Clusters/EDIP-Nigel-Params/with-SteepDescent/Higher-Symm/SD-CG/HFTN-CG
REM
REM
REM
REM
REM
REM ./C.cell (12c818d87b63d06a65506943cc24bca4)
REM
REM compiler GCC version 9.2.1 20190827 (Red Hat 9.2.1-1)
REM options -cpp -mtune=generic -march=x86-64 -g -O0 -fpre-include=/usr/include/finclude/math-vector-fortran.h
REM seed 1620655350 -1024537334 1067200904 381498124 -546989534 -825219974 -28462282 185453510 -1323819566 1193105397 -759924830 1099261404 784688407 1836062013 273236645 -213773714 -1742222842 -1911827931 -1581355269 -906572515 90861670 2118952614 -210860303 -1586001629 -1585720954 -1182336271 558579312 -683493649 1136779315 194838561 283620304 -505222438 968354533
REM
CELL 1.54180   50.00000   50.00000   50.00000   90.00000   90.00000   90.00000
LATT -1
SFAC C  
C      1  0.5264140000000  0.5811100000000  0.5391420000000 1.0
C      1  0.5912730000000  0.5216220000000  0.4780860000000 1.0
C      1  0.5090980000000  0.4306110000000  0.5463160000000 1.0
C      1  0.4933920000000  0.5549510000000  0.4219280000000 1.0
C      1  0.4132910000000  0.4879400000000  0.5135940000000 1.0
C      1  0.4591090000000  0.5505950000000  0.5697590000000 1.0
C      1  0.6005690000000  0.4920890000000  0.5095910000000 1.0
C      1  0.5471820000000  0.5395530000000  0.5866660000000 1.0
C      1  0.5449770000000  0.4897430000000  0.5010660000000 1.0
C      1  0.4464720000000  0.4933060000000  0.4506540000000 1.0
C      1  0.4680670000000  0.4895890000000  0.4281630000000 1.0
C      1  0.5893930000000  0.4721080000000  0.5251310000000 1.0
C      1  0.4786990000000  0.4104090000000  0.5130570000000 1.0
C      1  0.5239250000000  0.5274520000000  0.4794950000000 1.0
C      1  0.4974970000000  0.5298040000000  0.5881370000000 1.0
C      1  0.4036310000000  0.4706230000000  0.5356020000000 1.0
C      1  0.5807920000000  0.5413530000000  0.4614750000000 1.0
C      1  0.4624800000000  0.4209690000000  0.5370300000000 1.0
C      1  0.5564570000000  0.5166430000000  0.5158400000000 1.0
C      1  0.5603990000000  0.4905400000000  0.4740270000000 1.0
C      1  0.5438970000000  0.5066950000000  0.4523410000000 1.0
C      1  0.4972280000000  0.5039570000000  0.5097280000000 1.0
C      1  0.5300420000000  0.4450800000000  0.5642570000000 1.0
C      1  0.5546590000000  0.5410930000000  0.5598160000000 1.0
C      1  0.5031110000000  0.5891590000000  0.4963900000000 1.0
C      1  0.4141910000000  0.5259500000000  0.4707000000000 1.0
C      1  0.4766800000000  0.4748900000000  0.5436430000000 1.0
C      1  0.4763820000000  0.5056380000000  0.5865100000000 1.0
C      1  0.5159540000000  0.4280350000000  0.4675240000000 1.0
C      1  0.4454340000000  0.4914760000000  0.5097660000000 1.0
C      1  0.5664700000000  0.5223410000000  0.4210080000000 1.0
C      1  0.4800200000000  0.4330390000000  0.5578860000000 1.0
C      1  0.5133550000000  0.4712820000000  0.5753310000000 1.0
C      1  0.5192210000000  0.5435560000000  0.4213420000000 1.0
C      1  0.5857410000000  0.5195660000000  0.5081160000000 1.0
C      1  0.4425370000000  0.4427510000000  0.5283400000000 1.0
C      1  0.5089240000000  0.4791600000000  0.4696160000000 1.0
C      1  0.5527260000000  0.5155250000000  0.5454650000000 1.0
C      1  0.5048680000000  0.4752250000000  0.5437420000000 1.0
C      1  0.5026490000000  0.5222990000000  0.5498800000000 1.0
C      1  0.5084900000000  0.4091870000000  0.5157130000000 1.0
C      1  0.4975390000000  0.5686010000000  0.5440100000000 1.0
C      1  0.4948080000000  0.5104170000000  0.3944710000000 1.0
C      1  0.5328900000000  0.4870170000000  0.4144040000000 1.0
C      1  0.4848140000000  0.4765560000000  0.5875340000000 1.0
C      1  0.5295300000000  0.5694760000000  0.4642400000000 1.0
C      1  0.5576700000000  0.4961060000000  0.4263060000000 1.0
C      1  0.4702350000000  0.5159100000000  0.5573940000000 1.0
C      1  0.5989190000000  0.4905710000000  0.4783640000000 1.0
C      1  0.4706830000000  0.4279670000000  0.4896210000000 1.0
C      1  0.5644040000000  0.5434760000000  0.4393570000000 1.0
C      1  0.4438540000000  0.5492310000000  0.5453610000000 1.0
C      1  0.4109970000000  0.5316100000000  0.5184910000000 1.0
C      1  0.4422470000000  0.5022860000000  0.5441950000000 1.0
C      1  0.4670720000000  0.4618260000000  0.5679290000000 1.0
C      1  0.4805610000000  0.4714870000000  0.4751940000000 1.0
C      1  0.5532830000000  0.4898530000000  0.5611500000000 1.0
C      1  0.5223290000000  0.4547050000000  0.4804150000000 1.0
C      1  0.5334040000000  0.4926100000000  0.5824750000000 1.0
C      1  0.4537390000000  0.5630540000000  0.4661020000000 1.0
C      1  0.5124630000000  0.5001280000000  0.5339420000000 1.0
C      1  0.4636180000000  0.4972560000000  0.4760980000000 1.0
C      1  0.4879000000000  0.5324190000000  0.5074970000000 1.0
C      1  0.4999000000000  0.5705630000000  0.4733080000000 1.0
C      1  0.5192300000000  0.4647220000000  0.4289850000000 1.0
C      1  0.5668720000000  0.4317010000000  0.5152920000000 1.0
C      1  0.4294490000000  0.4598930000000  0.4836810000000 1.0
C      1  0.4234280000000  0.4544600000000  0.5490050000000 1.0
C      1  0.4742510000000  0.5822960000000  0.5290380000000 1.0
C      1  0.4871510000000  0.4258130000000  0.4636210000000 1.0
C      1  0.4758210000000  0.5796320000000  0.4596070000000 1.0
C      1  0.4310750000000  0.5197810000000  0.4493940000000 1.0
C      1  0.5732750000000  0.4653310000000  0.4643730000000 1.0
C      1  0.5060260000000  0.5028420000000  0.4461270000000 1.0
C      1  0.5181220000000  0.4995210000000  0.4898890000000 1.0
C      1  0.4419460000000  0.5587720000000  0.4935300000000 1.0
C      1  0.4606200000000  0.4661880000000  0.5202050000000 1.0
C      1  0.4887760000000  0.4662220000000  0.4287060000000 1.0
C      1  0.5158780000000  0.5133900000000  0.4145620000000 1.0
C      1  0.4246420000000  0.5273580000000  0.5425930000000 1.0
C      1  0.4874750000000  0.5564960000000  0.5720270000000 1.0
C      1  0.5289210000000  0.5874100000000  0.5097500000000 1.0
C      1  0.4806610000000  0.4549300000000  0.5009610000000 1.0
C      1  0.4498430000000  0.5421440000000  0.4454190000000 1.0
C      1  0.5339740000000  0.4400130000000  0.4407050000000 1.0
C      1  0.5261340000000  0.4108850000000  0.4913390000000 1.0
C      1  0.4048890000000  0.4648050000000  0.4974110000000 1.0
C      1  0.5432810000000  0.5675070000000  0.4921930000000 1.0
C      1  0.4753830000000  0.4510710000000  0.4510530000000 1.0
C      1  0.4193820000000  0.5407600000000  0.4935900000000 1.0
C      1  0.4718550000000  0.5126010000000  0.4105390000000 1.0
C      1  0.5538780000000  0.4251710000000  0.4903310000000 1.0
C      1  0.5478100000000  0.5650430000000  0.5475200000000 1.0
C      1  0.4703300000000  0.5385520000000  0.4244070000000 1.0
C      1  0.4834650000000  0.5187680000000  0.4616840000000 1.0
C      1  0.4517980000000  0.5649220000000  0.5216890000000 1.0
C      1  0.4303780000000  0.4683270000000  0.4549340000000 1.0
C      1  0.5095710000000  0.4529840000000  0.5228720000000 1.0
C      1  0.5367320000000  0.5492680000000  0.4440480000000 1.0
C      1  0.5260710000000  0.5208550000000  0.5867680000000 1.0
C      1  0.4463650000000  0.4436130000000  0.4469790000000 1.0
C      1  0.4959460000000  0.5392080000000  0.4798250000000 1.0
C      1  0.5592470000000  0.4398760000000  0.4616030000000 1.0
C      1  0.5365590000000  0.5401440000000  0.5044940000000 1.0
C      1  0.5060340000000  0.5435610000000  0.5282530000000 1.0
C      1  0.5363670000000  0.4582910000000  0.5072580000000 1.0
C      1  0.4378450000000  0.4756910000000  0.5635610000000 1.0
C      1  0.4419300000000  0.4327150000000  0.4783000000000 1.0
C      1  0.4816150000000  0.6010090000000  0.5096850000000 1.0
C      1  0.5715090000000  0.4527310000000  0.5332500000000 1.0
C      1  0.5496370000000  0.4626910000000  0.5492130000000 1.0
END
