TITL C-3577091-527-477 -2.94438987245355e-06 125000 -756.878532203683 0 0 122 (C1) n - 1
REM
REM in /home/bkarasulu/work/CARBON/AIRSS/Generating-Clusters/EDIP-Nigel-Params/with-SteepDescent/Higher-Symm/SD-CG/HFTN-CG
REM
REM
REM
REM
REM
REM ./C.cell (12c818d87b63d06a65506943cc24bca4)
REM
REM compiler GCC version 9.2.1 20190827 (Red Hat 9.2.1-1)
REM options -cpp -mtune=generic -march=x86-64 -g -O0 -fpre-include=/usr/include/finclude/math-vector-fortran.h
REM seed -675487293 1431329679 -1285627246 579996415 1981990266 1438821216 581593936 761114909 -1858379166 -499890529 -9932480 -801499960 -140380399 -2014763963 -898928843 887398791 -2116936169 1721611010 1177734363 1157866494 32644051 -1374206708 2082442778 -1981579337 1695230375 -1547347330 -1119722369 -252767622 -405203213 -2138838279 847882825 275092505 -1505216331
REM
CELL 1.54180   50.00000   50.00000   50.00000   90.00000   90.00000   90.00000
LATT -1
SFAC C  
C      1  0.4690500000000  0.4352880000000  0.5350330000000 1.0
C      1  0.4690490000000  0.5191600000000  0.5722030000000 1.0
C      1  0.4707510000000  0.5867950000000  0.5013040000000 1.0
C      1  0.4651490000000  0.5295450000000  0.4446050000000 1.0
C      1  0.4647260000000  0.4536810000000  0.4508280000000 1.0
C      1  0.5323570000000  0.4338390000000  0.4532910000000 1.0
C      1  0.5315550000000  0.4350820000000  0.5499020000000 1.0
C      1  0.5308160000000  0.5285070000000  0.5774130000000 1.0
C      1  0.5319580000000  0.5849630000000  0.4982130000000 1.0
C      1  0.5291370000000  0.5266340000000  0.4241910000000 1.0
C      1  0.5315740000000  0.5680660000000  0.5445940000000 1.0
C      1  0.5284720000000  0.5692210000000  0.4506990000000 1.0
C      1  0.5331380000000  0.4741920000000  0.4243080000000 1.0
C      1  0.5328380000000  0.4158420000000  0.5032180000000 1.0
C      1  0.5322180000000  0.4781040000000  0.5800230000000 1.0
C      1  0.5638560000000  0.5021830000000  0.4541780000000 1.0
C      1  0.5601130000000  0.4506790000000  0.4830050000000 1.0
C      1  0.5578250000000  0.4686990000000  0.5386570000000 1.0
C      1  0.5612220000000  0.5279080000000  0.5387740000000 1.0
C      1  0.5542020000000  0.5484700000000  0.4876670000000 1.0
C      1  0.4751480000000  0.5783740000000  0.5495290000000 1.0
C      1  0.4740170000000  0.5750270000000  0.4504440000000 1.0
C      1  0.4822300000000  0.4707340000000  0.4093890000000 1.0
C      1  0.4823680000000  0.4042550000000  0.4996880000000 1.0
C      1  0.4813630000000  0.4743530000000  0.5907150000000 1.0
C      1  0.5170080000000  0.4233900000000  0.5268640000000 1.0
C      1  0.5166570000000  0.5031490000000  0.5802040000000 1.0
C      1  0.5174060000000  0.5815370000000  0.5231310000000 1.0
C      1  0.5134230000000  0.5474960000000  0.4377400000000 1.0
C      1  0.5167590000000  0.4527680000000  0.4369610000000 1.0
C      1  0.5965430000000  0.4523400000000  0.5179160000000 1.0
C      1  0.5963070000000  0.4991560000000  0.5484190000000 1.0
C      1  0.5964540000000  0.5501150000000  0.5108330000000 1.0
C      1  0.5932250000000  0.5328290000000  0.4605480000000 1.0
C      1  0.5953450000000  0.4669050000000  0.4658970000000 1.0
C      1  0.5580510000000  0.4789620000000  0.5667270000000 1.0
C      1  0.5571200000000  0.5569930000000  0.5360480000000 1.0
C      1  0.5551390000000  0.5608860000000  0.4603010000000 1.0
C      1  0.5608800000000  0.4792000000000  0.4344060000000 1.0
C      1  0.5594650000000  0.4275370000000  0.5017990000000 1.0
C      1  0.4350730000000  0.5314510000000  0.4343390000000 1.0
C      1  0.4257800000000  0.4498840000000  0.4529070000000 1.0
C      1  0.4396710000000  0.4325460000000  0.5318230000000 1.0
C      1  0.4378480000000  0.5102100000000  0.5706950000000 1.0
C      1  0.4438050000000  0.5738710000000  0.5117290000000 1.0
C      1  0.4992320000000  0.4714580000000  0.4886390000000 1.0
C      1  0.5013360000000  0.4785320000000  0.5216900000000 1.0
C      1  0.4964850000000  0.5092320000000  0.5219510000000 1.0
C      1  0.5023400000000  0.5200540000000  0.4934900000000 1.0
C      1  0.4946100000000  0.4978330000000  0.4739690000000 1.0
C      1  0.4888170000000  0.5872840000000  0.5250630000000 1.0
C      1  0.4844180000000  0.5516330000000  0.4343610000000 1.0
C      1  0.4873980000000  0.4524370000000  0.4299730000000 1.0
C      1  0.4886600000000  0.4170110000000  0.5240020000000 1.0
C      1  0.4884070000000  0.5010050000000  0.5863130000000 1.0
C      1  0.4353970000000  0.4836850000000  0.5810620000000 1.0
C      1  0.4459930000000  0.5767150000000  0.5417400000000 1.0
C      1  0.4318610000000  0.5598540000000  0.4319540000000 1.0
C      1  0.4261530000000  0.4586910000000  0.4266230000000 1.0
C      1  0.4332710000000  0.4150900000000  0.5107010000000 1.0
C      1  0.4506490000000  0.4869520000000  0.5214270000000 1.0
C      1  0.4413850000000  0.5145460000000  0.5168110000000 1.0
C      1  0.4423230000000  0.5191290000000  0.4870020000000 1.0
C      1  0.4394170000000  0.4909130000000  0.4756940000000 1.0
C      1  0.4431470000000  0.4705440000000  0.4982030000000 1.0
C      1  0.5384870000000  0.4737870000000  0.4902010000000 1.0
C      1  0.5352710000000  0.4820000000000  0.5207940000000 1.0
C      1  0.5408500000000  0.5122730000000  0.5209860000000 1.0
C      1  0.5344510000000  0.5226710000000  0.4932530000000 1.0
C      1  0.5428870000000  0.4997990000000  0.4756180000000 1.0
C      1  0.4547190000000  0.4835470000000  0.4499700000000 1.0
C      1  0.4563660000000  0.4439770000000  0.4940700000000 1.0
C      1  0.4563230000000  0.4774060000000  0.5488260000000 1.0
C      1  0.4552210000000  0.5353320000000  0.5304160000000 1.0
C      1  0.4600340000000  0.5394410000000  0.4726430000000 1.0
C      1  0.5758770000000  0.5710640000000  0.5184280000000 1.0
C      1  0.5725270000000  0.5441230000000  0.4431820000000 1.0
C      1  0.5772740000000  0.4563790000000  0.4433680000000 1.0
C      1  0.5763110000000  0.4307850000000  0.5258460000000 1.0
C      1  0.5759770000000  0.5016180000000  0.5711720000000 1.0
C      1  0.4860580000000  0.5446360000000  0.4864530000000 1.0
C      1  0.4780030000000  0.5019300000000  0.4471640000000 1.0
C      1  0.4799410000000  0.4472050000000  0.4769350000000 1.0
C      1  0.4806010000000  0.4603120000000  0.5452050000000 1.0
C      1  0.4793050000000  0.5263670000000  0.5426440000000 1.0
C      1  0.5610040000000  0.4327470000000  0.4492740000000 1.0
C      1  0.5604470000000  0.4325010000000  0.5502700000000 1.0
C      1  0.5603450000000  0.5269440000000  0.5755600000000 1.0
C      1  0.5610850000000  0.5849310000000  0.4973070000000 1.0
C      1  0.5576890000000  0.5272420000000  0.4256230000000 1.0
C      1  0.4149300000000  0.4602620000000  0.5226470000000 1.0
C      1  0.4161660000000  0.5127530000000  0.5471080000000 1.0
C      1  0.4185070000000  0.5529200000000  0.5020860000000 1.0
C      1  0.4133490000000  0.5231770000000  0.4543750000000 1.0
C      1  0.4058130000000  0.4623720000000  0.4707150000000 1.0
C      1  0.4338630000000  0.4631250000000  0.5625710000000 1.0
C      1  0.4387250000000  0.5503350000000  0.5490840000000 1.0
C      1  0.4459590000000  0.5691260000000  0.4547050000000 1.0
C      1  0.4364670000000  0.4841310000000  0.4269990000000 1.0
C      1  0.4387350000000  0.4221040000000  0.4846080000000 1.0
C      1  0.5841790000000  0.4786350000000  0.5266780000000 1.0
C      1  0.5893210000000  0.5227260000000  0.5290430000000 1.0
C      1  0.5816410000000  0.5360360000000  0.4883410000000 1.0
C      1  0.5891690000000  0.4961950000000  0.4718650000000 1.0
C      1  0.5982710000000  0.4493880000000  0.4889890000000 1.0
C      1  0.4905560000000  0.4552380000000  0.5722670000000 1.0
C      1  0.4873480000000  0.5517640000000  0.5621030000000 1.0
C      1  0.4872730000000  0.5743530000000  0.4778050000000 1.0
C      1  0.4899360000000  0.4956500000000  0.4201540000000 1.0
C      1  0.4913160000000  0.4193580000000  0.4773720000000 1.0
C      1  0.4036300000000  0.4525020000000  0.4970640000000 1.0
C      1  0.4067350000000  0.4895020000000  0.5280860000000 1.0
C      1  0.4027300000000  0.5320900000000  0.5165480000000 1.0
C      1  0.4154460000000  0.5446820000000  0.4743830000000 1.0
C      1  0.4085810000000  0.4936500000000  0.4734360000000 1.0
C      1  0.5191770000000  0.4530560000000  0.5705920000000 1.0
C      1  0.5171140000000  0.5513620000000  0.5639930000000 1.0
C      1  0.5157440000000  0.5829850000000  0.4739360000000 1.0
C      1  0.5184910000000  0.4996070000000  0.4194300000000 1.0
C      1  0.5201420000000  0.4191010000000  0.4760150000000 1.0
C      1  0.4000830000000  0.5046150000000  0.5034460000000 1.0
C      1  0.5784830000000  0.4995730000000  0.5018030000000 1.0
END
