TITL C-3578199-7832-591 1.00054814791286e-06 125000 -299.848182892114 0 0 51 (C1) n - 1
REM
REM in /home/bkarasulu/work/CARBON/AIRSS/Generating-Clusters/EDIP-Nigel-Params/with-SteepDescent/Higher-Symm/SD-CG/HFTN-CG
REM
REM
REM
REM
REM
REM ./C.cell (12c818d87b63d06a65506943cc24bca4)
REM
REM compiler GCC version 9.2.1 20190827 (Red Hat 9.2.1-1)
REM options -cpp -mtune=generic -march=x86-64 -g -O0 -fpre-include=/usr/include/finclude/math-vector-fortran.h
REM seed -1516971323 726504591 1091464962 963642315 -370254424 -1875096641 94198314 896655939 -92440766 801200093 640033749 -1782529513 1806833808 -772928868 1903896393 -1529734430 858221497 -1139711185 1364378515 1524025956 -729727901 916442359 301885863 1221754286 -697204171 594228478 -820079350 210540341 -1440081252 -1720247489 1530378628 -974163011 847567213
REM
CELL 1.54180   50.00000   50.00000   50.00000   90.00000   90.00000   90.00000
LATT -1
SFAC C  
C      1  0.5489430000000  0.4885930000000  0.5588890000000 1.0
C      1  0.5490720000000  0.5088020000000  0.4517570000000 1.0
C      1  0.4963550000000  0.5053490000000  0.5528050000000 1.0
C      1  0.4962310000000  0.4948710000000  0.4506020000000 1.0
C      1  0.4921440000000  0.4425290000000  0.5105280000000 1.0
C      1  0.4908050000000  0.5569130000000  0.4923390000000 1.0
C      1  0.4331390000000  0.5073290000000  0.5113410000000 1.0
C      1  0.4312640000000  0.4904290000000  0.4872320000000 1.0
C      1  0.5337320000000  0.5306840000000  0.4593930000000 1.0
C      1  0.5331110000000  0.4685590000000  0.5483020000000 1.0
C      1  0.5159740000000  0.4774510000000  0.4357420000000 1.0
C      1  0.5174540000000  0.5250980000000  0.5629330000000 1.0
C      1  0.4786920000000  0.5123860000000  0.5302280000000 1.0
C      1  0.4767870000000  0.4871510000000  0.4714300000000 1.0
C      1  0.5147780000000  0.5570010000000  0.5608120000000 1.0
C      1  0.5080000000000  0.4471080000000  0.4342960000000 1.0
C      1  0.4856420000000  0.4371040000000  0.4819210000000 1.0
C      1  0.4840130000000  0.5636250000000  0.5206040000000 1.0
C      1  0.5421000000000  0.5391590000000  0.4861330000000 1.0
C      1  0.5420120000000  0.4611010000000  0.5229200000000 1.0
C      1  0.5433230000000  0.4816380000000  0.4487180000000 1.0
C      1  0.5448350000000  0.5159220000000  0.5547190000000 1.0
C      1  0.5295000000000  0.4305060000000  0.4436770000000 1.0
C      1  0.5356750000000  0.5690670000000  0.5442100000000 1.0
C      1  0.4654800000000  0.4364980000000  0.5210970000000 1.0
C      1  0.4641530000000  0.5626800000000  0.4813280000000 1.0
C      1  0.4566990000000  0.4450730000000  0.4845850000000 1.0
C      1  0.4553650000000  0.5539810000000  0.5178040000000 1.0
C      1  0.4485120000000  0.4764800000000  0.5293760000000 1.0
C      1  0.4466840000000  0.5228190000000  0.4719960000000 1.0
C      1  0.4596670000000  0.4535620000000  0.5435690000000 1.0
C      1  0.4593940000000  0.5456680000000  0.4586390000000 1.0
C      1  0.4837030000000  0.4585460000000  0.5582660000000 1.0
C      1  0.4843780000000  0.5411550000000  0.4451240000000 1.0
C      1  0.5404600000000  0.4372710000000  0.4685810000000 1.0
C      1  0.5458030000000  0.5546990000000  0.5215600000000 1.0
C      1  0.5050950000000  0.4539560000000  0.4659030000000 1.0
C      1  0.5055760000000  0.5468410000000  0.5329300000000 1.0
C      1  0.4700330000000  0.5113420000000  0.4869090000000 1.0
C      1  0.4724810000000  0.4874960000000  0.5153440000000 1.0
C      1  0.5038320000000  0.5236540000000  0.4581110000000 1.0
C      1  0.5038910000000  0.4759480000000  0.5466940000000 1.0
C      1  0.5538620000000  0.5271320000000  0.5283830000000 1.0
C      1  0.5472800000000  0.4647370000000  0.4731250000000 1.0
C      1  0.4524960000000  0.5258990000000  0.5251380000000 1.0
C      1  0.4516150000000  0.4721680000000  0.4747150000000 1.0
C      1  0.5389900000000  0.4765950000000  0.4992770000000 1.0
C      1  0.5439600000000  0.5148780000000  0.5029730000000 1.0
C      1  0.4962280000000  0.5264620000000  0.4873860000000 1.0
C      1  0.4994220000000  0.4724240000000  0.5164650000000 1.0
C      1  0.5142880000000  0.5062140000000  0.5048610000000 1.0
END
