TITL C-3578205-846-272 -1.76125432683604e-05 125000 -570.589763008987 0 0 91 (C1) n - 1
REM
REM in /home/bkarasulu/work/CARBON/AIRSS/Generating-Clusters/EDIP-Nigel-Params/with-SteepDescent/Higher-Symm/SD-CG/HFTN-CG
REM
REM
REM
REM
REM
REM ./C.cell (12c818d87b63d06a65506943cc24bca4)
REM
REM compiler GCC version 9.2.1 20190827 (Red Hat 9.2.1-1)
REM options -cpp -mtune=generic -march=x86-64 -g -O0 -fpre-include=/usr/include/finclude/math-vector-fortran.h
REM seed -285206975 -665752725 -398818421 765281024 -1685834619 -358239291 83151250 -1481980364 1974732290 -255884819 -1776964521 310773465 1062268393 -1705989893 -226272620 -1295394011 -584648925 -1036555958 -335548732 345887364 -1214666862 1627476828 1791496264 1759624945 692533615 -100476023 -397890260 2105836777 951170822 -1844167299 46080694 -878391311 -1706129794
REM
CELL 1.54180   50.00000   50.00000   50.00000   90.00000   90.00000   90.00000
LATT -1
SFAC C  
C      1  0.4707360000000  0.4632500000000  0.4816250000000 1.0
C      1  0.4585280000000  0.4832850000000  0.5011470000000 1.0
C      1  0.4715680000000  0.4822380000000  0.5298040000000 1.0
C      1  0.4970290000000  0.4644560000000  0.5339690000000 1.0
C      1  0.5236190000000  0.4762470000000  0.5243210000000 1.0
C      1  0.5358220000000  0.4668140000000  0.4991530000000 1.0
C      1  0.5386250000000  0.4838170000000  0.4738900000000 1.0
C      1  0.5156250000000  0.4770720000000  0.4543340000000 1.0
C      1  0.4852570000000  0.4801610000000  0.4596840000000 1.0
C      1  0.5148150000000  0.4301120000000  0.4568230000000 1.0
C      1  0.4848830000000  0.4294110000000  0.4592670000000 1.0
C      1  0.4601220000000  0.4260020000000  0.4793790000000 1.0
C      1  0.4578850000000  0.4317600000000  0.5095960000000 1.0
C      1  0.4719990000000  0.4292910000000  0.5356350000000 1.0
C      1  0.5014090000000  0.4278730000000  0.5461220000000 1.0
C      1  0.5276920000000  0.4326780000000  0.5306900000000 1.0
C      1  0.5390550000000  0.4229640000000  0.5045770000000 1.0
C      1  0.5385120000000  0.4298680000000  0.4750530000000 1.0
C      1  0.5029110000000  0.5364480000000  0.5746840000000 1.0
C      1  0.5520650000000  0.5371680000000  0.5567890000000 1.0
C      1  0.5787690000000  0.5393890000000  0.5110270000000 1.0
C      1  0.5618520000000  0.5343030000000  0.4622910000000 1.0
C      1  0.5224030000000  0.5331300000000  0.4311590000000 1.0
C      1  0.4733710000000  0.5318610000000  0.4371100000000 1.0
C      1  0.4342610000000  0.5333180000000  0.4678190000000 1.0
C      1  0.4257720000000  0.5354080000000  0.5174980000000 1.0
C      1  0.4544350000000  0.5353750000000  0.5599240000000 1.0
C      1  0.5266640000000  0.5520840000000  0.5642910000000 1.0
C      1  0.5605620000000  0.5515770000000  0.5319260000000 1.0
C      1  0.5698610000000  0.5523240000000  0.4852730000000 1.0
C      1  0.5417800000000  0.5487630000000  0.4463090000000 1.0
C      1  0.4975410000000  0.5480580000000  0.4333450000000 1.0
C      1  0.4532120000000  0.5480340000000  0.4507840000000 1.0
C      1  0.4297910000000  0.5499170000000  0.4922000000000 1.0
C      1  0.4403140000000  0.5501570000000  0.5383560000000 1.0
C      1  0.4787940000000  0.5517820000000  0.5673080000000 1.0
C      1  0.5167790000000  0.5698460000000  0.5417170000000 1.0
C      1  0.5386230000000  0.5672530000000  0.5199650000000 1.0
C      1  0.5452380000000  0.5689220000000  0.4902630000000 1.0
C      1  0.5276560000000  0.5670470000000  0.4650620000000 1.0
C      1  0.4980150000000  0.5670500000000  0.4565350000000 1.0
C      1  0.4692830000000  0.5654900000000  0.4685210000000 1.0
C      1  0.4530430000000  0.5687440000000  0.4941470000000 1.0
C      1  0.4610910000000  0.5672500000000  0.5244210000000 1.0
C      1  0.4857470000000  0.5709220000000  0.5450180000000 1.0
C      1  0.5761900000000  0.5052360000000  0.5099810000000 1.0
C      1  0.5700930000000  0.5040280000000  0.4570280000000 1.0
C      1  0.5236210000000  0.5031750000000  0.4258150000000 1.0
C      1  0.4687030000000  0.5036070000000  0.4273830000000 1.0
C      1  0.4270090000000  0.5040940000000  0.4625600000000 1.0
C      1  0.4243130000000  0.5060570000000  0.5175990000000 1.0
C      1  0.4477250000000  0.5057210000000  0.5673070000000 1.0
C      1  0.5015920000000  0.5067810000000  0.5740630000000 1.0
C      1  0.5488640000000  0.5064900000000  0.5538830000000 1.0
C      1  0.4344670000000  0.4630310000000  0.5405170000000 1.0
C      1  0.4763040000000  0.4637370000000  0.5731460000000 1.0
C      1  0.5289740000000  0.4641420000000  0.5717370000000 1.0
C      1  0.5697110000000  0.4628490000000  0.5350730000000 1.0
C      1  0.5787540000000  0.4607610000000  0.4827060000000 1.0
C      1  0.5518650000000  0.4591160000000  0.4365160000000 1.0
C      1  0.4956240000000  0.4601450000000  0.4189410000000 1.0
C      1  0.4481550000000  0.4613720000000  0.4441670000000 1.0
C      1  0.4227460000000  0.4606820000000  0.4901110000000 1.0
C      1  0.4383130000000  0.4464420000000  0.4681810000000 1.0
C      1  0.4340970000000  0.4488280000000  0.5142620000000 1.0
C      1  0.4593520000000  0.4515580000000  0.5520970000000 1.0
C      1  0.5025310000000  0.4498150000000  0.5695090000000 1.0
C      1  0.5437330000000  0.4529810000000  0.5476440000000 1.0
C      1  0.5617940000000  0.4529490000000  0.5064740000000 1.0
C      1  0.5610700000000  0.4463050000000  0.4621870000000 1.0
C      1  0.5212970000000  0.4513150000000  0.4363690000000 1.0
C      1  0.4746620000000  0.4488730000000  0.4380040000000 1.0
C      1  0.5064340000000  0.5222490000000  0.5327960000000 1.0
C      1  0.5302750000000  0.5052550000000  0.5297520000000 1.0
C      1  0.5470930000000  0.5167880000000  0.5080010000000 1.0
C      1  0.5353260000000  0.5129490000000  0.4812560000000 1.0
C      1  0.5064340000000  0.5183490000000  0.4837750000000 1.0
C      1  0.4824860000000  0.5101640000000  0.4681090000000 1.0
C      1  0.4600910000000  0.5125400000000  0.4885780000000 1.0
C      1  0.4694100000000  0.5318550000000  0.5111040000000 1.0
C      1  0.4771120000000  0.5124900000000  0.5373760000000 1.0
C      1  0.4216880000000  0.4908110000000  0.4902780000000 1.0
C      1  0.4314220000000  0.4924030000000  0.5433100000000 1.0
C      1  0.4748760000000  0.4926320000000  0.5766420000000 1.0
C      1  0.5286220000000  0.4934810000000  0.5738480000000 1.0
C      1  0.5736050000000  0.4918750000000  0.5381320000000 1.0
C      1  0.5812440000000  0.4904560000000  0.4819850000000 1.0
C      1  0.5528930000000  0.4892820000000  0.4353470000000 1.0
C      1  0.4948100000000  0.4899700000000  0.4177520000000 1.0
C      1  0.4460150000000  0.4902890000000  0.4429690000000 1.0
C      1  0.4992800000000  0.5343710000000  0.5062840000000 1.0
END
