TITL C-3577091-527-692 1.02363885237076e-06 125000 -184.885777632732 0 0 31 (C1) n - 1
REM
REM in /home/bkarasulu/work/CARBON/AIRSS/Generating-Clusters/EDIP-Nigel-Params/with-SteepDescent/Higher-Symm/SD-CG/HFTN-CG
REM
REM
REM
REM
REM
REM ./C.cell (12c818d87b63d06a65506943cc24bca4)
REM
REM compiler GCC version 9.2.1 20190827 (Red Hat 9.2.1-1)
REM options -cpp -mtune=generic -march=x86-64 -g -O0 -fpre-include=/usr/include/finclude/math-vector-fortran.h
REM seed 647532638 -785727681 -1513577097 -2142144163 -791345231 501120166 -1360508512 530289290 -956667729 403752663 -1185319464 -1788981802 -138266258 -31405696 -208885732 289297257 -1271295155 -1664200871 1132849772 2118032194 -1807067054 2119675534 -1886009536 -2120541679 -723399085 -1121377012 2062832274 -976734917 -1022139794 -563303100 -1209444491 875174994 591334918
REM
CELL 1.54180   50.00000   50.00000   50.00000   90.00000   90.00000   90.00000
LATT -1
SFAC C  
C      1  0.5020680000000  0.5354050000000  0.5486550000000 1.0
C      1  0.5412400000000  0.5357070000000  0.5195580000000 1.0
C      1  0.5175260000000  0.5392640000000  0.4823180000000 1.0
C      1  0.4615020000000  0.5197170000000  0.4509690000000 1.0
C      1  0.4730810000000  0.5416860000000  0.5055720000000 1.0
C      1  0.4810070000000  0.4690090000000  0.5398780000000 1.0
C      1  0.5321970000000  0.4665990000000  0.5314360000000 1.0
C      1  0.5398920000000  0.4691770000000  0.4796420000000 1.0
C      1  0.4932350000000  0.4687020000000  0.4568660000000 1.0
C      1  0.4571130000000  0.4694660000000  0.4937590000000 1.0
C      1  0.4413260000000  0.5228630000000  0.4692250000000 1.0
C      1  0.4610330000000  0.5355040000000  0.5307090000000 1.0
C      1  0.5241870000000  0.5218250000000  0.5591080000000 1.0
C      1  0.5578260000000  0.5288830000000  0.4979120000000 1.0
C      1  0.5024890000000  0.5409040000000  0.4589190000000 1.0
C      1  0.4891520000000  0.4930690000000  0.5256130000000 1.0
C      1  0.5212620000000  0.4914410000000  0.5206890000000 1.0
C      1  0.5250170000000  0.4927980000000  0.4881440000000 1.0
C      1  0.4963300000000  0.4922230000000  0.4739510000000 1.0
C      1  0.4752330000000  0.4922350000000  0.4965120000000 1.0
C      1  0.4889210000000  0.4478950000000  0.5226450000000 1.0
C      1  0.5180350000000  0.4470630000000  0.5173840000000 1.0
C      1  0.5227490000000  0.4481070000000  0.4882350000000 1.0
C      1  0.4961630000000  0.4476450000000  0.4752470000000 1.0
C      1  0.4751550000000  0.4477530000000  0.4963940000000 1.0
C      1  0.5386890000000  0.5187330000000  0.4796190000000 1.0
C      1  0.4893350000000  0.5164910000000  0.4565470000000 1.0
C      1  0.4608850000000  0.5185150000000  0.4903790000000 1.0
C      1  0.4805790000000  0.5180490000000  0.5417790000000 1.0
C      1  0.5367990000000  0.5127670000000  0.5355920000000 1.0
C      1  0.5035540000000  0.5392900000000  0.5102440000000 1.0
END
