TITL C-3578209-2550-502 6.80014564961751e-07 125000 -661.635591869617 0 0 106 (C1) n - 1
REM
REM in /home/bkarasulu/work/CARBON/AIRSS/Generating-Clusters/EDIP-Nigel-Params/with-SteepDescent/Higher-Symm/SD-CG/HFTN-CG
REM
REM
REM
REM
REM
REM ./C.cell (12c818d87b63d06a65506943cc24bca4)
REM
REM compiler GCC version 9.2.1 20190827 (Red Hat 9.2.1-1)
REM options -cpp -mtune=generic -march=x86-64 -g -O0 -fpre-include=/usr/include/finclude/math-vector-fortran.h
REM seed -585643642 2013865113 1478419409 -34214604 -110585715 116571128 176093361 -2071892464 1688472815 -351093744 1818487728 -1490713480 1267402653 973432160 -1712546316 -707895682 -1211007425 -1408624978 770244614 2007130647 351515569 1374085615 89275989 530274758 1970644289 -1679740688 -1734641755 -1975196709 -244144780 -537464152 -239050962 -1624973092 -1541799531
REM
CELL 1.54180   50.00000   50.00000   50.00000   90.00000   90.00000   90.00000
LATT -1
SFAC C  
C      1  0.4644510000000  0.5821270000000  0.4930790000000 1.0
C      1  0.5759140000000  0.5364500000000  0.4901490000000 1.0
C      1  0.5344320000000  0.4223370000000  0.4914820000000 1.0
C      1  0.4216790000000  0.4631890000000  0.4927280000000 1.0
C      1  0.4631320000000  0.4207580000000  0.5062240000000 1.0
C      1  0.5737990000000  0.4669870000000  0.5070200000000 1.0
C      1  0.5366110000000  0.5817410000000  0.5077390000000 1.0
C      1  0.4300460000000  0.5319330000000  0.5086550000000 1.0
C      1  0.5569000000000  0.4267880000000  0.5089790000000 1.0
C      1  0.4238690000000  0.4397900000000  0.5095840000000 1.0
C      1  0.4433940000000  0.5736030000000  0.5121380000000 1.0
C      1  0.5737690000000  0.5586970000000  0.5080750000000 1.0
C      1  0.5586810000000  0.5765970000000  0.4898600000000 1.0
C      1  0.4296660000000  0.5553480000000  0.4926470000000 1.0
C      1  0.4401280000000  0.4242100000000  0.4893810000000 1.0
C      1  0.5724120000000  0.4438480000000  0.4903590000000 1.0
C      1  0.5421040000000  0.5172210000000  0.5861940000000 1.0
C      1  0.5212370000000  0.4582310000000  0.5895540000000 1.0
C      1  0.4540270000000  0.4803540000000  0.5873350000000 1.0
C      1  0.4775830000000  0.5392640000000  0.5902060000000 1.0
C      1  0.5466340000000  0.4777520000000  0.4065730000000 1.0
C      1  0.5229300000000  0.5388180000000  0.4086790000000 1.0
C      1  0.4598300000000  0.5161930000000  0.4144920000000 1.0
C      1  0.4783240000000  0.4566480000000  0.4079550000000 1.0
C      1  0.5426990000000  0.4442680000000  0.5395810000000 1.0
C      1  0.4396040000000  0.4504530000000  0.5437130000000 1.0
C      1  0.4580490000000  0.5565600000000  0.5375380000000 1.0
C      1  0.5572730000000  0.5467520000000  0.5414970000000 1.0
C      1  0.5453100000000  0.5608350000000  0.4586320000000 1.0
C      1  0.4467150000000  0.5437770000000  0.4596190000000 1.0
C      1  0.4550540000000  0.4394850000000  0.4577280000000 1.0
C      1  0.5552810000000  0.4566880000000  0.4582850000000 1.0
C      1  0.5278760000000  0.5285260000000  0.5139680000000 1.0
C      1  0.5203320000000  0.4795530000000  0.5130650000000 1.0
C      1  0.4688860000000  0.4715140000000  0.5181450000000 1.0
C      1  0.4839460000000  0.5227050000000  0.5111130000000 1.0
C      1  0.5242540000000  0.4823670000000  0.4825710000000 1.0
C      1  0.5239720000000  0.5307930000000  0.4841230000000 1.0
C      1  0.4788450000000  0.5063090000000  0.4847570000000 1.0
C      1  0.4716340000000  0.4770770000000  0.4900800000000 1.0
C      1  0.4391050000000  0.5179560000000  0.5685760000000 1.0
C      1  0.5144300000000  0.5514770000000  0.5689370000000 1.0
C      1  0.5608660000000  0.4808540000000  0.5694030000000 1.0
C      1  0.4832860000000  0.4464760000000  0.5700870000000 1.0
C      1  0.4405430000000  0.4794370000000  0.4296660000000 1.0
C      1  0.5164080000000  0.4447970000000  0.4272320000000 1.0
C      1  0.5633330000000  0.5199820000000  0.4285730000000 1.0
C      1  0.4870020000000  0.5514410000000  0.4314290000000 1.0
C      1  0.5615700000000  0.5172710000000  0.5293320000000 1.0
C      1  0.5133220000000  0.4438240000000  0.5280440000000 1.0
C      1  0.4422400000000  0.4819840000000  0.5302910000000 1.0
C      1  0.4870180000000  0.5593870000000  0.5264090000000 1.0
C      1  0.5543120000000  0.4859080000000  0.4702070000000 1.0
C      1  0.5153540000000  0.5662090000000  0.4698620000000 1.0
C      1  0.4478140000000  0.5135890000000  0.4714230000000 1.0
C      1  0.4835080000000  0.4292850000000  0.4636270000000 1.0
C      1  0.5516820000000  0.5337300000000  0.4717920000000 1.0
C      1  0.5296820000000  0.4447860000000  0.4724430000000 1.0
C      1  0.4469950000000  0.4662590000000  0.4751130000000 1.0
C      1  0.4681040000000  0.5618570000000  0.4719080000000 1.0
C      1  0.5492600000000  0.4709280000000  0.5247630000000 1.0
C      1  0.5318880000000  0.5579520000000  0.5264930000000 1.0
C      1  0.4550480000000  0.5283750000000  0.5251990000000 1.0
C      1  0.4662600000000  0.4421680000000  0.5272520000000 1.0
C      1  0.4332310000000  0.4992930000000  0.5889550000000 1.0
C      1  0.4975350000000  0.5590100000000  0.5902510000000 1.0
C      1  0.5639460000000  0.4998800000000  0.5902620000000 1.0
C      1  0.5009580000000  0.4387460000000  0.5906350000000 1.0
C      1  0.4372860000000  0.4999940000000  0.4103040000000 1.0
C      1  0.4989250000000  0.4376070000000  0.4064080000000 1.0
C      1  0.5642320000000  0.4993140000000  0.4097850000000 1.0
C      1  0.5027500000000  0.5581570000000  0.4092560000000 1.0
C      1  0.5111770000000  0.4225960000000  0.5071330000000 1.0
C      1  0.4209590000000  0.4866300000000  0.5091360000000 1.0
C      1  0.4885850000000  0.5837870000000  0.5088400000000 1.0
C      1  0.5798300000000  0.5136120000000  0.5061630000000 1.0
C      1  0.5131310000000  0.5860620000000  0.4919150000000 1.0
C      1  0.4250730000000  0.5104360000000  0.4921290000000 1.0
C      1  0.4868220000000  0.4203890000000  0.4910140000000 1.0
C      1  0.5768100000000  0.4891400000000  0.4901770000000 1.0
C      1  0.5440380000000  0.4563050000000  0.5702050000000 1.0
C      1  0.4549070000000  0.4548590000000  0.5718410000000 1.0
C      1  0.4543110000000  0.5428770000000  0.5728730000000 1.0
C      1  0.5421500000000  0.5420380000000  0.5700990000000 1.0
C      1  0.5469710000000  0.5441860000000  0.4248840000000 1.0
C      1  0.4602770000000  0.5403480000000  0.4308820000000 1.0
C      1  0.4562410000000  0.4545740000000  0.4282920000000 1.0
C      1  0.5426470000000  0.4578460000000  0.4282900000000 1.0
C      1  0.5091280000000  0.4377120000000  0.4532910000000 1.0
C      1  0.4396340000000  0.4880550000000  0.4567260000000 1.0
C      1  0.4903590000000  0.5664870000000  0.4547870000000 1.0
C      1  0.5544810000000  0.5111900000000  0.4539880000000 1.0
C      1  0.5097380000000  0.5639190000000  0.5443300000000 1.0
C      1  0.4495470000000  0.5072760000000  0.5443910000000 1.0
C      1  0.4893870000000  0.4368050000000  0.5443110000000 1.0
C      1  0.5566010000000  0.4916420000000  0.5433880000000 1.0
C      1  0.4831680000000  0.5079520000000  0.3992140000000 1.0
C      1  0.5112660000000  0.5120460000000  0.4054700000000 1.0
C      1  0.5220640000000  0.4872450000000  0.3948350000000 1.0
C      1  0.4840320000000  0.4799390000000  0.3913010000000 1.0
C      1  0.4785510000000  0.4881950000000  0.6002950000000 1.0
C      1  0.5161220000000  0.4805700000000  0.6073670000000 1.0
C      1  0.5178210000000  0.5088450000000  0.6003010000000 1.0
C      1  0.4902150000000  0.5131540000000  0.5922830000000 1.0
C      1  0.5078320000000  0.5067250000000  0.4736280000000 1.0
C      1  0.5083260000000  0.5074450000000  0.5242560000000 1.0
END
