TITL C-3577076-40-593 -7.85157900665712e-07 125000 -953.805365793471 0 0 153 (C1) n - 1
REM
REM in /home/bkarasulu/work/CARBON/AIRSS/Generating-Clusters/EDIP-Nigel-Params/with-SteepDescent/Higher-Symm/SD-CG/HFTN-CG
REM
REM
REM
REM
REM
REM ./C.cell (12c818d87b63d06a65506943cc24bca4)
REM
REM compiler GCC version 9.2.1 20190827 (Red Hat 9.2.1-1)
REM options -cpp -mtune=generic -march=x86-64 -g -O0 -fpre-include=/usr/include/finclude/math-vector-fortran.h
REM seed -1716998330 1193988938 968878790 -1994347049 -38399205 -1649459273 1503345595 -553282299 1238867592 -1869519433 936859697 -1745932587 716210590 -673336707 -445662816 2106287383 -1434604062 -361939569 55053448 1599411241 209556746 -954295592 -59313937 -1572312444 -2100362194 -605778932 1921847309 1527898157 -1466149137 -1827009653 975611647 -69788000 1116572238
REM
CELL 1.54180   50.00000   50.00000   50.00000   90.00000   90.00000   90.00000
LATT -1
SFAC C  
C      1  0.4750300000000  0.4359470000000  0.4339270000000 1.0
C      1  0.4831400000000  0.5952510000000  0.4781830000000 1.0
C      1  0.4740860000000  0.4739360000000  0.5739020000000 1.0
C      1  0.5253550000000  0.4416050000000  0.4366550000000 1.0
C      1  0.5291950000000  0.5904940000000  0.4747760000000 1.0
C      1  0.5258040000000  0.4808860000000  0.5715570000000 1.0
C      1  0.4780610000000  0.4244370000000  0.5796540000000 1.0
C      1  0.4758660000000  0.5921120000000  0.5215010000000 1.0
C      1  0.4764060000000  0.4832560000000  0.4172640000000 1.0
C      1  0.5264840000000  0.4321550000000  0.5768680000000 1.0
C      1  0.5279060000000  0.5902670000000  0.5225150000000 1.0
C      1  0.5248570000000  0.4819100000000  0.4163720000000 1.0
C      1  0.4348610000000  0.4701610000000  0.5212580000000 1.0
C      1  0.4427010000000  0.4949740000000  0.4687590000000 1.0
C      1  0.4279230000000  0.5218850000000  0.5162710000000 1.0
C      1  0.5546640000000  0.4784950000000  0.5145370000000 1.0
C      1  0.5568060000000  0.5014520000000  0.4657420000000 1.0
C      1  0.5684890000000  0.5310430000000  0.5128320000000 1.0
C      1  0.4401140000000  0.4680710000000  0.4850190000000 1.0
C      1  0.4411040000000  0.4978510000000  0.5317540000000 1.0
C      1  0.4376300000000  0.5231950000000  0.4867910000000 1.0
C      1  0.5598140000000  0.4757790000000  0.4830420000000 1.0
C      1  0.5545400000000  0.5067660000000  0.5283500000000 1.0
C      1  0.5552440000000  0.5345090000000  0.4848880000000 1.0
C      1  0.6045350000000  0.4972830000000  0.5235500000000 1.0
C      1  0.6038030000000  0.4726690000000  0.4818370000000 1.0
C      1  0.6075100000000  0.5235820000000  0.4822040000000 1.0
C      1  0.3922190000000  0.4976230000000  0.5250810000000 1.0
C      1  0.3942420000000  0.4701000000000  0.4831500000000 1.0
C      1  0.3941570000000  0.5204550000000  0.4801000000000 1.0
C      1  0.6041380000000  0.4980950000000  0.4687490000000 1.0
C      1  0.5983320000000  0.4720870000000  0.5098380000000 1.0
C      1  0.5994840000000  0.5252080000000  0.5116710000000 1.0
C      1  0.3963310000000  0.4942360000000  0.4677500000000 1.0
C      1  0.3923610000000  0.4707690000000  0.5126460000000 1.0
C      1  0.3899990000000  0.5208150000000  0.5084470000000 1.0
C      1  0.4765150000000  0.5587110000000  0.4390010000000 1.0
C      1  0.4709500000000  0.5319820000000  0.5772070000000 1.0
C      1  0.4815370000000  0.4355490000000  0.4805710000000 1.0
C      1  0.5288000000000  0.5567590000000  0.4432720000000 1.0
C      1  0.5146510000000  0.5266220000000  0.5800280000000 1.0
C      1  0.5103230000000  0.4299420000000  0.4917820000000 1.0
C      1  0.4754340000000  0.5466360000000  0.5295360000000 1.0
C      1  0.4883070000000  0.5314790000000  0.4285970000000 1.0
C      1  0.4695670000000  0.4318820000000  0.5350110000000 1.0
C      1  0.5302770000000  0.5470970000000  0.5380420000000 1.0
C      1  0.5180280000000  0.5334520000000  0.4277520000000 1.0
C      1  0.5255950000000  0.4442990000000  0.5311180000000 1.0
C      1  0.5554070000000  0.4439160000000  0.4413250000000 1.0
C      1  0.5585440000000  0.5844300000000  0.4757230000000 1.0
C      1  0.5556610000000  0.4826140000000  0.5720150000000 1.0
C      1  0.4432090000000  0.4364080000000  0.4437360000000 1.0
C      1  0.4526840000000  0.5875790000000  0.4723890000000 1.0
C      1  0.4441530000000  0.4759180000000  0.5767150000000 1.0
C      1  0.5564580000000  0.4387780000000  0.5671410000000 1.0
C      1  0.5581530000000  0.5835340000000  0.5236730000000 1.0
C      1  0.5557530000000  0.4818930000000  0.4184270000000 1.0
C      1  0.4447730000000  0.4264470000000  0.5734990000000 1.0
C      1  0.4468300000000  0.5838000000000  0.5205740000000 1.0
C      1  0.4460160000000  0.4791920000000  0.4204680000000 1.0
C      1  0.5636640000000  0.4292240000000  0.4910470000000 1.0
C      1  0.5827880000000  0.5502340000000  0.4470350000000 1.0
C      1  0.5630960000000  0.5296810000000  0.5717460000000 1.0
C      1  0.4286520000000  0.4238680000000  0.4948610000000 1.0
C      1  0.4294500000000  0.5458640000000  0.4499460000000 1.0
C      1  0.4421480000000  0.5268200000000  0.5714170000000 1.0
C      1  0.5730970000000  0.4314310000000  0.5179090000000 1.0
C      1  0.5779930000000  0.5483960000000  0.5568820000000 1.0
C      1  0.5775980000000  0.5285080000000  0.4284820000000 1.0
C      1  0.4215310000000  0.4278720000000  0.5226140000000 1.0
C      1  0.4297170000000  0.5464440000000  0.5529680000000 1.0
C      1  0.4333690000000  0.5248560000000  0.4321090000000 1.0
C      1  0.4855680000000  0.5020660000000  0.4409040000000 1.0
C      1  0.4893630000000  0.5664060000000  0.5123410000000 1.0
C      1  0.4832360000000  0.4480240000000  0.5596910000000 1.0
C      1  0.5132940000000  0.4896930000000  0.4448340000000 1.0
C      1  0.5186940000000  0.5631590000000  0.5157020000000 1.0
C      1  0.5140980000000  0.4533770000000  0.5581640000000 1.0
C      1  0.4843870000000  0.4958750000000  0.5554990000000 1.0
C      1  0.4858330000000  0.5611330000000  0.4820160000000 1.0
C      1  0.4858250000000  0.4515630000000  0.4560280000000 1.0
C      1  0.5127910000000  0.5051270000000  0.5586090000000 1.0
C      1  0.5139500000000  0.5549260000000  0.4721950000000 1.0
C      1  0.5131030000000  0.4610060000000  0.4567070000000 1.0
C      1  0.4032050000000  0.4494870000000  0.5294670000000 1.0
C      1  0.4025670000000  0.4914280000000  0.4405910000000 1.0
C      1  0.4042980000000  0.5341820000000  0.5480510000000 1.0
C      1  0.5966770000000  0.4463710000000  0.5209890000000 1.0
C      1  0.5984930000000  0.4980690000000  0.4406710000000 1.0
C      1  0.6022730000000  0.5343510000000  0.5482150000000 1.0
C      1  0.3993540000000  0.4468620000000  0.4684140000000 1.0
C      1  0.4013880000000  0.5055680000000  0.5523690000000 1.0
C      1  0.4090090000000  0.5432560000000  0.4697550000000 1.0
C      1  0.5978150000000  0.4501190000000  0.4661740000000 1.0
C      1  0.5977930000000  0.5048460000000  0.5510640000000 1.0
C      1  0.6036670000000  0.5449670000000  0.4648830000000 1.0
C      1  0.4309790000000  0.4973740000000  0.4395940000000 1.0
C      1  0.4460050000000  0.5542410000000  0.5284640000000 1.0
C      1  0.4432270000000  0.4205360000000  0.5437070000000 1.0
C      1  0.5695240000000  0.5014870000000  0.4376320000000 1.0
C      1  0.5606040000000  0.5544560000000  0.5331840000000 1.0
C      1  0.5552490000000  0.4457250000000  0.5371820000000 1.0
C      1  0.4315600000000  0.4995370000000  0.5611380000000 1.0
C      1  0.4518380000000  0.5638150000000  0.4543350000000 1.0
C      1  0.4278150000000  0.4424800000000  0.4720900000000 1.0
C      1  0.5678470000000  0.5050280000000  0.5565100000000 1.0
C      1  0.5585410000000  0.5571390000000  0.4628500000000 1.0
C      1  0.5688860000000  0.4481830000000  0.4694150000000 1.0
C      1  0.4865570000000  0.4086350000000  0.4387740000000 1.0
C      1  0.4918080000000  0.6059290000000  0.4510110000000 1.0
C      1  0.4910650000000  0.4665770000000  0.6007430000000 1.0
C      1  0.5168580000000  0.4127140000000  0.4429950000000 1.0
C      1  0.5225220000000  0.6048490000000  0.4498200000000 1.0
C      1  0.5154120000000  0.4831530000000  0.6003450000000 1.0
C      1  0.4906830000000  0.4013560000000  0.5636360000000 1.0
C      1  0.4867920000000  0.6007180000000  0.5460480000000 1.0
C      1  0.4852230000000  0.5002700000000  0.3934650000000 1.0
C      1  0.5204800000000  0.4064460000000  0.5622870000000 1.0
C      1  0.5127480000000  0.5904380000000  0.5499980000000 1.0
C      1  0.5154590000000  0.4999210000000  0.3937220000000 1.0
C      1  0.5105060000000  0.5166640000000  0.5087740000000 1.0
C      1  0.5271820000000  0.4667350000000  0.5101150000000 1.0
C      1  0.5285980000000  0.5075030000000  0.4621980000000 1.0
C      1  0.4814450000000  0.5210900000000  0.5135180000000 1.0
C      1  0.4626660000000  0.4573190000000  0.5216600000000 1.0
C      1  0.4718220000000  0.5023210000000  0.4673160000000 1.0
C      1  0.5243210000000  0.5282240000000  0.4838810000000 1.0
C      1  0.5272260000000  0.4531940000000  0.4837400000000 1.0
C      1  0.5263100000000  0.5172510000000  0.5332630000000 1.0
C      1  0.4690010000000  0.5265090000000  0.4857030000000 1.0
C      1  0.4674980000000  0.4588170000000  0.4947280000000 1.0
C      1  0.4705620000000  0.4999320000000  0.5304670000000 1.0
C      1  0.5182850000000  0.4137360000000  0.5317090000000 1.0
C      1  0.5217450000000  0.5277800000000  0.3995330000000 1.0
C      1  0.5132680000000  0.5603980000000  0.5611080000000 1.0
C      1  0.4882540000000  0.4075200000000  0.5325330000000 1.0
C      1  0.4829010000000  0.5287630000000  0.3996010000000 1.0
C      1  0.4847690000000  0.5496910000000  0.5579740000000 1.0
C      1  0.5131700000000  0.4054960000000  0.4737020000000 1.0
C      1  0.5099380000000  0.5123880000000  0.6065130000000 1.0
C      1  0.5214530000000  0.5822740000000  0.4291110000000 1.0
C      1  0.4823510000000  0.4017560000000  0.4679960000000 1.0
C      1  0.4827180000000  0.5223690000000  0.6021080000000 1.0
C      1  0.4901050000000  0.5831800000000  0.4296460000000 1.0
C      1  0.5673200000000  0.4567050000000  0.4197970000000 1.0
C      1  0.4363690000000  0.4533560000000  0.4227340000000 1.0
C      1  0.4363040000000  0.5885810000000  0.4950810000000 1.0
C      1  0.4326900000000  0.4509170000000  0.5794720000000 1.0
C      1  0.5693190000000  0.4596980000000  0.5801660000000 1.0
C      1  0.5711740000000  0.5882950000000  0.4999200000000 1.0
C      1  0.5153760000000  0.6034140000000  0.4977700000000 1.0
C      1  0.4978830000000  0.4562940000000  0.4142740000000 1.0
C      1  0.4994920000000  0.4374890000000  0.5995570000000 1.0
END
