TITL C-3578205-846-593 -1.32461332179577e-06 125000 -989.188313026944 0 0 161 (C1) n - 1
REM
REM in /home/bkarasulu/work/CARBON/AIRSS/Generating-Clusters/EDIP-Nigel-Params/with-SteepDescent/Higher-Symm/SD-CG/HFTN-CG
REM
REM
REM
REM
REM
REM ./C.cell (12c818d87b63d06a65506943cc24bca4)
REM
REM compiler GCC version 9.2.1 20190827 (Red Hat 9.2.1-1)
REM options -cpp -mtune=generic -march=x86-64 -g -O0 -fpre-include=/usr/include/finclude/math-vector-fortran.h
REM seed -1318759240 711861386 -1768467018 -1745260682 942494523 -1348186801 -1813653812 752542200 -219874434 2056392948 1088223543 1651388950 -742835382 -1655634082 520251686 2062332059 -1565174793 -1057091703 1366073317 1905591890 596549603 1825684966 -237736940 -191768777 635097360 -991217925 276113060 741191307 1854220925 657825601 1490856502 550995603 418033404
REM
CELL 1.54180   50.00000   50.00000   50.00000   90.00000   90.00000   90.00000
LATT -1
SFAC C  
C      1  0.4617410000000  0.4984770000000  0.5385100000000 1.0
C      1  0.5384970000000  0.4679030000000  0.4987580000000 1.0
C      1  0.5056450000000  0.5497370000000  0.4649630000000 1.0
C      1  0.4764780000000  0.4953870000000  0.4670440000000 1.0
C      1  0.5127680000000  0.4967870000000  0.5376510000000 1.0
C      1  0.5173500000000  0.5018790000000  0.4532690000000 1.0
C      1  0.5399670000000  0.5175950000000  0.4954620000000 1.0
C      1  0.4405910000000  0.5156130000000  0.4925580000000 1.0
C      1  0.4350010000000  0.4650470000000  0.5108720000000 1.0
C      1  0.4900890000000  0.4605180000000  0.5102910000000 1.0
C      1  0.5080610000000  0.4492740000000  0.4617740000000 1.0
C      1  0.4887660000000  0.5289250000000  0.5074110000000 1.0
C      1  0.4618430000000  0.5392390000000  0.4970130000000 1.0
C      1  0.5438720000000  0.5033480000000  0.4662420000000 1.0
C      1  0.5045640000000  0.4680600000000  0.5376650000000 1.0
C      1  0.4576260000000  0.4435370000000  0.5121870000000 1.0
C      1  0.5150660000000  0.5395780000000  0.4963400000000 1.0
C      1  0.5130200000000  0.4535100000000  0.4918200000000 1.0
C      1  0.5326640000000  0.4948180000000  0.5130910000000 1.0
C      1  0.4508390000000  0.4911530000000  0.5101080000000 1.0
C      1  0.4507580000000  0.5110690000000  0.4646780000000 1.0
C      1  0.4969630000000  0.5205350000000  0.4603580000000 1.0
C      1  0.5022070000000  0.4762720000000  0.4462330000000 1.0
C      1  0.4883010000000  0.5103910000000  0.5297940000000 1.0
C      1  0.5185940000000  0.4826110000000  0.5873560000000 1.0
C      1  0.5884550000000  0.5336320000000  0.4863620000000 1.0
C      1  0.4986850000000  0.5783070000000  0.5234980000000 1.0
C      1  0.5322720000000  0.5108530000000  0.4060830000000 1.0
C      1  0.4830820000000  0.5203720000000  0.6065670000000 1.0
C      1  0.4769610000000  0.4965670000000  0.3989090000000 1.0
C      1  0.6061270000000  0.4980580000000  0.5255890000000 1.0
C      1  0.3964690000000  0.4789080000000  0.4948830000000 1.0
C      1  0.4017500000000  0.5345880000000  0.5138330000000 1.0
C      1  0.4962590000000  0.4037380000000  0.4760760000000 1.0
C      1  0.5153810000000  0.4057380000000  0.5315700000000 1.0
C      1  0.5324630000000  0.6077400000000  0.4901880000000 1.0
C      1  0.5390590000000  0.5809190000000  0.4908100000000 1.0
C      1  0.5773900000000  0.5002190000000  0.5286010000000 1.0
C      1  0.4892290000000  0.5229850000000  0.5795600000000 1.0
C      1  0.5346940000000  0.4028530000000  0.5101830000000 1.0
C      1  0.4984380000000  0.6055150000000  0.5186430000000 1.0
C      1  0.4774450000000  0.4026790000000  0.4976020000000 1.0
C      1  0.6136180000000  0.5213580000000  0.4856330000000 1.0
C      1  0.3968020000000  0.5005170000000  0.4748400000000 1.0
C      1  0.4005150000000  0.5128040000000  0.5331670000000 1.0
C      1  0.4965260000000  0.4750670000000  0.4028820000000 1.0
C      1  0.5127430000000  0.5316210000000  0.4019880000000 1.0
C      1  0.5159460000000  0.4836600000000  0.6154570000000 1.0
C      1  0.4592990000000  0.5630910000000  0.5783350000000 1.0
C      1  0.5831290000000  0.4558710000000  0.5594510000000 1.0
C      1  0.5705790000000  0.5843930000000  0.4477520000000 1.0
C      1  0.4600030000000  0.4466640000000  0.4196020000000 1.0
C      1  0.5593620000000  0.4264550000000  0.5902050000000 1.0
C      1  0.5517360000000  0.5694190000000  0.4053530000000 1.0
C      1  0.5948520000000  0.5550040000000  0.4183540000000 1.0
C      1  0.4130300000000  0.5535630000000  0.5680810000000 1.0
C      1  0.4214810000000  0.4690940000000  0.4418910000000 1.0
C      1  0.5709080000000  0.4117930000000  0.5464060000000 1.0
C      1  0.4417390000000  0.4278550000000  0.4622290000000 1.0
C      1  0.4340270000000  0.5933860000000  0.5529490000000 1.0
C      1  0.4604160000000  0.5844980000000  0.5577920000000 1.0
C      1  0.5914270000000  0.5625730000000  0.4452090000000 1.0
C      1  0.5651390000000  0.4532690000000  0.5839420000000 1.0
C      1  0.4567050000000  0.4245940000000  0.4373850000000 1.0
C      1  0.5611400000000  0.5903170000000  0.4218150000000 1.0
C      1  0.5508640000000  0.4113370000000  0.5681340000000 1.0
C      1  0.5916290000000  0.4297580000000  0.5523810000000 1.0
C      1  0.4134900000000  0.5748230000000  0.5473400000000 1.0
C      1  0.4225630000000  0.4496520000000  0.4628280000000 1.0
C      1  0.5714360000000  0.5470890000000  0.4047620000000 1.0
C      1  0.4422170000000  0.4691080000000  0.4218010000000 1.0
C      1  0.4328070000000  0.5594410000000  0.5873120000000 1.0
C      1  0.4308190000000  0.5156470000000  0.4089040000000 1.0
C      1  0.4176970000000  0.4346970000000  0.5381270000000 1.0
C      1  0.5327350000000  0.4373320000000  0.4486740000000 1.0
C      1  0.4436210000000  0.4789320000000  0.5824040000000 1.0
C      1  0.5548270000000  0.4719370000000  0.4175920000000 1.0
C      1  0.5631090000000  0.4966130000000  0.5751960000000 1.0
C      1  0.4068610000000  0.5502500000000  0.4699120000000 1.0
C      1  0.5706440000000  0.5522280000000  0.5224370000000 1.0
C      1  0.5841700000000  0.4536400000000  0.4930170000000 1.0
C      1  0.5227670000000  0.5685900000000  0.5836750000000 1.0
C      1  0.4864770000000  0.5694230000000  0.4503190000000 1.0
C      1  0.4865030000000  0.4269390000000  0.5574850000000 1.0
C      1  0.4448960000000  0.4299950000000  0.5360800000000 1.0
C      1  0.4077660000000  0.5145710000000  0.4267420000000 1.0
C      1  0.5325180000000  0.4337940000000  0.4208160000000 1.0
C      1  0.4313130000000  0.5603870000000  0.4582660000000 1.0
C      1  0.5754450000000  0.4402760000000  0.4696940000000 1.0
C      1  0.5450910000000  0.5592030000000  0.5342710000000 1.0
C      1  0.4162890000000  0.4821970000000  0.5788380000000 1.0
C      1  0.5683570000000  0.5168240000000  0.5537790000000 1.0
C      1  0.5705010000000  0.4756690000000  0.4437920000000 1.0
C      1  0.5376640000000  0.5452660000000  0.5793910000000 1.0
C      1  0.4787890000000  0.4535720000000  0.5704610000000 1.0
C      1  0.4723630000000  0.5478110000000  0.4354560000000 1.0
C      1  0.5553620000000  0.4218750000000  0.5228410000000 1.0
C      1  0.5305870000000  0.5524050000000  0.4192610000000 1.0
C      1  0.4203090000000  0.5281480000000  0.5523950000000 1.0
C      1  0.5509960000000  0.5676750000000  0.4654040000000 1.0
C      1  0.4510860000000  0.5592450000000  0.5158630000000 1.0
C      1  0.4576830000000  0.4233690000000  0.4886880000000 1.0
C      1  0.5292590000000  0.4552280000000  0.5482830000000 1.0
C      1  0.4844620000000  0.4501350000000  0.4066600000000 1.0
C      1  0.4708340000000  0.5400060000000  0.5618180000000 1.0
C      1  0.4059620000000  0.4933100000000  0.4467590000000 1.0
C      1  0.5689960000000  0.4705000000000  0.5365780000000 1.0
C      1  0.5629480000000  0.5191080000000  0.4481320000000 1.0
C      1  0.5564320000000  0.5240350000000  0.4189510000000 1.0
C      1  0.5287630000000  0.4245390000000  0.5515140000000 1.0
C      1  0.4219190000000  0.5557220000000  0.5252490000000 1.0
C      1  0.5426790000000  0.4712410000000  0.5723690000000 1.0
C      1  0.4493270000000  0.5214720000000  0.5522010000000 1.0
C      1  0.4495180000000  0.4935330000000  0.4085100000000 1.0
C      1  0.5290360000000  0.5566720000000  0.4492680000000 1.0
C      1  0.4856100000000  0.4272860000000  0.4615630000000 1.0
C      1  0.4727300000000  0.5661330000000  0.5361790000000 1.0
C      1  0.4074940000000  0.4535960000000  0.4865840000000 1.0
C      1  0.5752630000000  0.5425560000000  0.4620620000000 1.0
C      1  0.5619250000000  0.4526350000000  0.5133520000000 1.0
C      1  0.4726730000000  0.4487590000000  0.5975760000000 1.0
C      1  0.5978050000000  0.4773690000000  0.4530180000000 1.0
C      1  0.4402510000000  0.5865750000000  0.4635960000000 1.0
C      1  0.4587060000000  0.5554500000000  0.4118460000000 1.0
C      1  0.5374630000000  0.5241290000000  0.5980600000000 1.0
C      1  0.5470640000000  0.4331270000000  0.3979200000000 1.0
C      1  0.5911100000000  0.5339260000000  0.5605360000000 1.0
C      1  0.3911510000000  0.5365750000000  0.4308020000000 1.0
C      1  0.3963290000000  0.4675230000000  0.5685730000000 1.0
C      1  0.4546430000000  0.4061640000000  0.5487210000000 1.0
C      1  0.5685400000000  0.4134510000000  0.4698100000000 1.0
C      1  0.5472270000000  0.5833210000000  0.5498930000000 1.0
C      1  0.4674350000000  0.5856000000000  0.4632110000000 1.0
C      1  0.5940800000000  0.4785180000000  0.4814870000000 1.0
C      1  0.4510360000000  0.4633640000000  0.6043370000000 1.0
C      1  0.4724980000000  0.4048460000000  0.5700760000000 1.0
C      1  0.5329320000000  0.5906600000000  0.5716830000000 1.0
C      1  0.5413690000000  0.4133910000000  0.4627220000000 1.0
C      1  0.5917030000000  0.5526590000000  0.5408630000000 1.0
C      1  0.3980490000000  0.4470390000000  0.5514190000000 1.0
C      1  0.3845640000000  0.5509260000000  0.4527430000000 1.0
C      1  0.4396730000000  0.5404720000000  0.3995910000000 1.0
C      1  0.5640050000000  0.4543740000000  0.3973210000000 1.0
C      1  0.5604520000000  0.5086800000000  0.6005490000000 1.0
C      1  0.5246060000000  0.4829780000000  0.4150960000000 1.0
C      1  0.4969260000000  0.5021900000000  0.6207670000000 1.0
C      1  0.5232760000000  0.4111120000000  0.4847850000000 1.0
C      1  0.5135070000000  0.6216110000000  0.5032650000000 1.0
C      1  0.4876270000000  0.5219110000000  0.3941940000000 1.0
C      1  0.5146760000000  0.5085880000000  0.5713060000000 1.0
C      1  0.5687420000000  0.5264390000000  0.5072340000000 1.0
C      1  0.5237780000000  0.5644870000000  0.5116400000000 1.0
C      1  0.6098330000000  0.4966000000000  0.4977930000000 1.0
C      1  0.4045600000000  0.4865630000000  0.5216750000000 1.0
C      1  0.4103480000000  0.5253540000000  0.4871980000000 1.0
C      1  0.4894210000000  0.4123670000000  0.5220370000000 1.0
C      1  0.4604740000000  0.4745080000000  0.5588470000000 1.0
C      1  0.5523800000000  0.4711740000000  0.4689040000000 1.0
C      1  0.4541420000000  0.5413990000000  0.4591470000000 1.0
C      1  0.5427500000000  0.5354780000000  0.5525920000000 1.0
C      1  0.4762140000000  0.4842160000000  0.4961100000000 1.0
END
