TITL C-3577077-324-23 -4.34797330284329e-06 125000 -748.058117614153 0 0 119 (C1) n - 1
REM
REM in /home/bkarasulu/work/CARBON/AIRSS/Generating-Clusters/EDIP-Nigel-Params/with-SteepDescent/Higher-Symm/SD-CG/HFTN-CG
REM
REM
REM
REM
REM
REM ./C.cell (12c818d87b63d06a65506943cc24bca4)
REM
REM compiler GCC version 9.2.1 20190827 (Red Hat 9.2.1-1)
REM options -cpp -mtune=generic -march=x86-64 -g -O0 -fpre-include=/usr/include/finclude/math-vector-fortran.h
REM seed -984468229 -1389552183 -691332560 509815362 -469682956 -132468614 -973149834 1990612245 -17794488 -1747938204 1758871521 -1243153194 1882926924 -1252346943 1959096376 -1311731943 -1014788729 1517437489 1701727002 -1639406015 1255941694 -1461110357 1840232427 -1834643099 192768628 421046667 -689282500 1800383591 -360359511 409087908 243983362 -2083129518 186180060
REM
CELL 1.54180   50.00000   50.00000   50.00000   90.00000   90.00000   90.00000
LATT -1
SFAC C  
C      1  0.4296100000000  0.4581430000000  0.4709810000000 1.0
C      1  0.4667260000000  0.4660390000000  0.5792040000000 1.0
C      1  0.5674350000000  0.4606570000000  0.5174900000000 1.0
C      1  0.5257900000000  0.4587220000000  0.4353510000000 1.0
C      1  0.4296750000000  0.5403360000000  0.4741980000000 1.0
C      1  0.4725760000000  0.5315640000000  0.5760380000000 1.0
C      1  0.5712170000000  0.5381490000000  0.5239030000000 1.0
C      1  0.5275910000000  0.5374000000000  0.4352650000000 1.0
C      1  0.5886300000000  0.4828350000000  0.5587360000000 1.0
C      1  0.5649180000000  0.4850850000000  0.4166320000000 1.0
C      1  0.4233460000000  0.4852720000000  0.4307440000000 1.0
C      1  0.4237650000000  0.4890950000000  0.5837970000000 1.0
C      1  0.5798020000000  0.5078470000000  0.5614450000000 1.0
C      1  0.5671860000000  0.5114560000000  0.4170560000000 1.0
C      1  0.4228490000000  0.5115300000000  0.4344720000000 1.0
C      1  0.4247390000000  0.5150180000000  0.5899690000000 1.0
C      1  0.4582010000000  0.5819030000000  0.4680380000000 1.0
C      1  0.4628000000000  0.5728910000000  0.5496250000000 1.0
C      1  0.5371950000000  0.5746610000000  0.5271220000000 1.0
C      1  0.5394650000000  0.5787160000000  0.4564550000000 1.0
C      1  0.4584760000000  0.4185240000000  0.4680320000000 1.0
C      1  0.4659060000000  0.4279960000000  0.5466110000000 1.0
C      1  0.5367110000000  0.4245860000000  0.5241250000000 1.0
C      1  0.5388440000000  0.4164410000000  0.4563730000000 1.0
C      1  0.4329570000000  0.4652770000000  0.5421250000000 1.0
C      1  0.5430280000000  0.4637210000000  0.5595440000000 1.0
C      1  0.5690370000000  0.4575470000000  0.4562110000000 1.0
C      1  0.4609290000000  0.4554640000000  0.4319340000000 1.0
C      1  0.4316180000000  0.5334750000000  0.5435740000000 1.0
C      1  0.5386580000000  0.5343870000000  0.5621960000000 1.0
C      1  0.5720760000000  0.5395410000000  0.4564260000000 1.0
C      1  0.4608340000000  0.5421980000000  0.4333070000000 1.0
C      1  0.4911990000000  0.5138640000000  0.4594710000000 1.0
C      1  0.4614920000000  0.5122570000000  0.4995980000000 1.0
C      1  0.4801190000000  0.5154550000000  0.5524580000000 1.0
C      1  0.5360510000000  0.5122210000000  0.4833150000000 1.0
C      1  0.4911580000000  0.4830140000000  0.4628900000000 1.0
C      1  0.4473290000000  0.4860770000000  0.4922050000000 1.0
C      1  0.4912210000000  0.4884100000000  0.5591940000000 1.0
C      1  0.5407360000000  0.4820210000000  0.4797960000000 1.0
C      1  0.5214010000000  0.5171670000000  0.5093610000000 1.0
C      1  0.5180920000000  0.5287180000000  0.4636120000000 1.0
C      1  0.4718440000000  0.5274230000000  0.4769830000000 1.0
C      1  0.4715240000000  0.5267450000000  0.5261990000000 1.0
C      1  0.5408490000000  0.4706060000000  0.5073010000000 1.0
C      1  0.5177710000000  0.4670570000000  0.4641410000000 1.0
C      1  0.4706980000000  0.4705640000000  0.4810870000000 1.0
C      1  0.4956400000000  0.4788760000000  0.5320060000000 1.0
C      1  0.5062900000000  0.4350040000000  0.5692280000000 1.0
C      1  0.5728890000000  0.4219700000000  0.4907500000000 1.0
C      1  0.4962380000000  0.4213270000000  0.4352090000000 1.0
C      1  0.4346940000000  0.4288510000000  0.5081640000000 1.0
C      1  0.5052180000000  0.5677540000000  0.5672280000000 1.0
C      1  0.5717850000000  0.5733540000000  0.4921250000000 1.0
C      1  0.4967160000000  0.5754790000000  0.4351180000000 1.0
C      1  0.4341790000000  0.5706680000000  0.5105770000000 1.0
C      1  0.4185240000000  0.5200980000000  0.4932330000000 1.0
C      1  0.4963100000000  0.5168910000000  0.5932290000000 1.0
C      1  0.5871230000000  0.5229830000000  0.5040630000000 1.0
C      1  0.5083670000000  0.5231260000000  0.4164180000000 1.0
C      1  0.4078250000000  0.4739310000000  0.4989550000000 1.0
C      1  0.5081040000000  0.4728820000000  0.5908350000000 1.0
C      1  0.5887300000000  0.4740670000000  0.5005900000000 1.0
C      1  0.5073530000000  0.4737170000000  0.4161890000000 1.0
C      1  0.5226070000000  0.4474950000000  0.5097070000000 1.0
C      1  0.5105210000000  0.4418390000000  0.4819250000000 1.0
C      1  0.4811430000000  0.4453080000000  0.4936780000000 1.0
C      1  0.4946420000000  0.4503960000000  0.5227500000000 1.0
C      1  0.5153350000000  0.5466710000000  0.5109700000000 1.0
C      1  0.5114920000000  0.5548980000000  0.4804070000000 1.0
C      1  0.4808870000000  0.5545250000000  0.4860800000000 1.0
C      1  0.4850910000000  0.5530190000000  0.5176530000000 1.0
C      1  0.4718720000000  0.5673000000000  0.4447940000000 1.0
C      1  0.4425090000000  0.5587910000000  0.5342100000000 1.0
C      1  0.5266130000000  0.5590070000000  0.5519050000000 1.0
C      1  0.5622120000000  0.5644790000000  0.4676290000000 1.0
C      1  0.4721390000000  0.4315540000000  0.4448980000000 1.0
C      1  0.4441600000000  0.4405910000000  0.5315830000000 1.0
C      1  0.5302950000000  0.4374700000000  0.5541220000000 1.0
C      1  0.5590840000000  0.4335260000000  0.4693580000000 1.0
C      1  0.4417400000000  0.5274890000000  0.5714140000000 1.0
C      1  0.5642070000000  0.5275040000000  0.5501520000000 1.0
C      1  0.5572130000000  0.5322840000000  0.4321570000000 1.0
C      1  0.4344190000000  0.5342620000000  0.4453220000000 1.0
C      1  0.4393710000000  0.4712280000000  0.5697860000000 1.0
C      1  0.5685710000000  0.4676750000000  0.5464860000000 1.0
C      1  0.5547710000000  0.4646590000000  0.4321360000000 1.0
C      1  0.4341410000000  0.4624140000000  0.4417660000000 1.0
C      1  0.4786130000000  0.5603310000000  0.5707470000000 1.0
C      1  0.5630440000000  0.5647780000000  0.5168890000000 1.0
C      1  0.5232680000000  0.5668410000000  0.4349830000000 1.0
C      1  0.4381570000000  0.5661300000000  0.4836350000000 1.0
C      1  0.4783190000000  0.4405400000000  0.5695110000000 1.0
C      1  0.5655380000000  0.4305770000000  0.5159910000000 1.0
C      1  0.5230370000000  0.4290650000000  0.4343070000000 1.0
C      1  0.4351950000000  0.4311800000000  0.4803790000000 1.0
C      1  0.4807240000000  0.5884010000000  0.5337150000000 1.0
C      1  0.5198270000000  0.5903450000000  0.5051460000000 1.0
C      1  0.5236420000000  0.5916730000000  0.4764380000000 1.0
C      1  0.4752280000000  0.5971420000000  0.4855050000000 1.0
C      1  0.4881520000000  0.4142290000000  0.5349360000000 1.0
C      1  0.5221460000000  0.4012010000000  0.5034380000000 1.0
C      1  0.5164520000000  0.4121640000000  0.4753610000000 1.0
C      1  0.4746920000000  0.4070780000000  0.4892960000000 1.0
C      1  0.5307280000000  0.4840950000000  0.5781640000000 1.0
C      1  0.5789090000000  0.4802990000000  0.4730600000000 1.0
C      1  0.4796430000000  0.4791290000000  0.4260040000000 1.0
C      1  0.4175470000000  0.4840540000000  0.5248750000000 1.0
C      1  0.5227420000000  0.5132720000000  0.5773250000000 1.0
C      1  0.5735970000000  0.5180810000000  0.4775760000000 1.0
C      1  0.4820490000000  0.5175490000000  0.4304280000000 1.0
C      1  0.4236010000000  0.5134770000000  0.5221270000000 1.0
C      1  0.4877620000000  0.4899650000000  0.6013740000000 1.0
C      1  0.5976150000000  0.4981230000000  0.5121000000000 1.0
C      1  0.5169350000000  0.4982840000000  0.4067830000000 1.0
C      1  0.4113570000000  0.4956750000000  0.4805610000000 1.0
C      1  0.4930550000000  0.3995260000000  0.5109460000000 1.0
C      1  0.4915410000000  0.5956720000000  0.5085000000000 1.0
C      1  0.4958410000000  0.5016740000000  0.5133160000000 1.0
END
