TITL C-3578207-9274-339 -1.13836310366644e-06 125000 -302.045748593632 0 0 49 (C1) n - 1
REM
REM in /home/bkarasulu/work/CARBON/AIRSS/Generating-Clusters/EDIP-Nigel-Params/with-SteepDescent/Higher-Symm/SD-CG/HFTN-CG
REM
REM
REM
REM
REM
REM ./C.cell (12c818d87b63d06a65506943cc24bca4)
REM
REM compiler GCC version 9.2.1 20190827 (Red Hat 9.2.1-1)
REM options -cpp -mtune=generic -march=x86-64 -g -O0 -fpre-include=/usr/include/finclude/math-vector-fortran.h
REM seed 2116700734 1141632064 1171835639 1586510737 127365947 1572148151 -1636632074 346590679 549460042 947008931 -757593857 -2132322193 965068504 794613263 1949985265 -1316831411 1400646238 60474618 -1932185490 374627751 1670884746 -1455470593 1059612324 -706591167 1307760695 780399126 212377662 -733012627 2034677818 766854491 -1894197159 317303542 -833028911
REM
CELL 1.54180   50.00000   50.00000   50.00000   90.00000   90.00000   90.00000
LATT -1
SFAC C  
C      1  0.4902550000000  0.4614410000000  0.5398870000000 1.0
C      1  0.4559950000000  0.5015430000000  0.5381170000000 1.0
C      1  0.4814250000000  0.5414680000000  0.5392600000000 1.0
C      1  0.5314470000000  0.5242570000000  0.5413780000000 1.0
C      1  0.5390840000000  0.4730680000000  0.5410990000000 1.0
C      1  0.4386930000000  0.5116500000000  0.4655440000000 1.0
C      1  0.4935400000000  0.5609780000000  0.4666520000000 1.0
C      1  0.5568690000000  0.5240530000000  0.4696370000000 1.0
C      1  0.5423810000000  0.4519870000000  0.4685920000000 1.0
C      1  0.4689780000000  0.4441950000000  0.4681960000000 1.0
C      1  0.4634540000000  0.4695110000000  0.4533100000000 1.0
C      1  0.4624690000000  0.5242320000000  0.4531710000000 1.0
C      1  0.5132040000000  0.5424420000000  0.4547630000000 1.0
C      1  0.5461410000000  0.5001150000000  0.4558570000000 1.0
C      1  0.5161480000000  0.4550530000000  0.4552640000000 1.0
C      1  0.5015030000000  0.5632380000000  0.4960640000000 1.0
C      1  0.5603780000000  0.5153630000000  0.4986610000000 1.0
C      1  0.5359200000000  0.4453310000000  0.4976070000000 1.0
C      1  0.4609240000000  0.4500190000000  0.4970630000000 1.0
C      1  0.4392250000000  0.5215530000000  0.4944350000000 1.0
C      1  0.4573770000000  0.5284660000000  0.5469360000000 1.0
C      1  0.5048110000000  0.5296290000000  0.5529590000000 1.0
C      1  0.5420250000000  0.4995430000000  0.5500570000000 1.0
C      1  0.5164650000000  0.4589500000000  0.5499130000000 1.0
C      1  0.4772090000000  0.4855030000000  0.5506040000000 1.0
C      1  0.5590690000000  0.4768510000000  0.4685840000000 1.0
C      1  0.4977770000000  0.4359690000000  0.4686550000000 1.0
C      1  0.4395950000000  0.4816320000000  0.4664740000000 1.0
C      1  0.4653940000000  0.5508870000000  0.4657570000000 1.0
C      1  0.5385890000000  0.5475410000000  0.4691320000000 1.0
C      1  0.5632380000000  0.4850340000000  0.4976210000000 1.0
C      1  0.5067200000000  0.4358900000000  0.4979110000000 1.0
C      1  0.4419500000000  0.4736660000000  0.4958600000000 1.0
C      1  0.4564260000000  0.5469670000000  0.4945710000000 1.0
C      1  0.5302920000000  0.5539690000000  0.4979310000000 1.0
C      1  0.4864400000000  0.4525420000000  0.5122550000000 1.0
C      1  0.4495510000000  0.4984850000000  0.5099730000000 1.0
C      1  0.4816950000000  0.5466290000000  0.5104460000000 1.0
C      1  0.5333420000000  0.5258400000000  0.5110610000000 1.0
C      1  0.5430630000000  0.4697740000000  0.5127120000000 1.0
C      1  0.5081980000000  0.5230430000000  0.4322070000000 1.0
C      1  0.5268020000000  0.4991270000000  0.4328560000000 1.0
C      1  0.5098010000000  0.4738810000000  0.4325820000000 1.0
C      1  0.4806380000000  0.4822840000000  0.4316480000000 1.0
C      1  0.4796300000000  0.5126960000000  0.4313580000000 1.0
C      1  0.4960660000000  0.4957960000000  0.4867920000000 1.0
C      1  0.5079740000000  0.4868140000000  0.5875040000000 1.0
C      1  0.5120490000000  0.5090720000000  0.5017570000000 1.0
C      1  0.4914720000000  0.4998610000000  0.5714420000000 1.0
END
