TITL C-3577082-504-485 -1.64529287023198e-07 125000 -713.482797865202 0 0 113 (C1) n - 1
REM
REM in /home/bkarasulu/work/CARBON/AIRSS/Generating-Clusters/EDIP-Nigel-Params/with-SteepDescent/Higher-Symm/SD-CG/HFTN-CG
REM
REM
REM
REM
REM
REM ./C.cell (12c818d87b63d06a65506943cc24bca4)
REM
REM compiler GCC version 9.2.1 20190827 (Red Hat 9.2.1-1)
REM options -cpp -mtune=generic -march=x86-64 -g -O0 -fpre-include=/usr/include/finclude/math-vector-fortran.h
REM seed -299978369 -1727107121 -1771317189 377607563 949044591 -1302899317 -1488168141 957288107 837090730 1997153347 -1666361524 -1617837361 -310803831 -384684989 827131966 -694320548 -1942578760 -31562870 207748157 -1620639680 635444033 1623813987 -2094627120 981263421 -1098049090 -1920754719 963292109 -787378714 -48667427 -1564785608 1399221096 2043869832 -1659767487
REM
CELL 1.54180   50.00000   50.00000   50.00000   90.00000   90.00000   90.00000
LATT -1
SFAC C  
C      1  0.5385510000000  0.4337980000000  0.4701190000000 1.0
C      1  0.5299080000000  0.5818890000000  0.4470630000000 1.0
C      1  0.5497910000000  0.5141140000000  0.5846560000000 1.0
C      1  0.4544590000000  0.5768090000000  0.4663500000000 1.0
C      1  0.4660090000000  0.4262480000000  0.4465110000000 1.0
C      1  0.4686950000000  0.4967820000000  0.5928380000000 1.0
C      1  0.5077600000000  0.5624700000000  0.4419630000000 1.0
C      1  0.5200920000000  0.5200330000000  0.5825980000000 1.0
C      1  0.5122290000000  0.4221810000000  0.4774560000000 1.0
C      1  0.4902440000000  0.4416950000000  0.4370600000000 1.0
C      1  0.4901640000000  0.4779150000000  0.5836320000000 1.0
C      1  0.4736330000000  0.5970690000000  0.4728400000000 1.0
C      1  0.4414070000000  0.4755860000000  0.5625620000000 1.0
C      1  0.4399550000000  0.4541140000000  0.4387430000000 1.0
C      1  0.4417990000000  0.5658520000000  0.4906770000000 1.0
C      1  0.5587000000000  0.5316840000000  0.5633380000000 1.0
C      1  0.5507940000000  0.5395510000000  0.4550660000000 1.0
C      1  0.5563680000000  0.4314740000000  0.4931930000000 1.0
C      1  0.5135400000000  0.4812750000000  0.6032960000000 1.0
C      1  0.5131550000000  0.4213030000000  0.4329750000000 1.0
C      1  0.5193780000000  0.6068000000000  0.4557080000000 1.0
C      1  0.4799050000000  0.5141930000000  0.6119850000000 1.0
C      1  0.4845100000000  0.5801230000000  0.4330540000000 1.0
C      1  0.4751340000000  0.3996330000000  0.4536170000000 1.0
C      1  0.5143710000000  0.5492240000000  0.5787940000000 1.0
C      1  0.5128530000000  0.4093620000000  0.5038830000000 1.0
C      1  0.5146540000000  0.5443110000000  0.4196870000000 1.0
C      1  0.4829480000000  0.4493960000000  0.5800840000000 1.0
C      1  0.4741760000000  0.6029110000000  0.5005650000000 1.0
C      1  0.4853620000000  0.4575500000000  0.4124630000000 1.0
C      1  0.5408460000000  0.5327990000000  0.4279470000000 1.0
C      1  0.5392830000000  0.5552280000000  0.5627250000000 1.0
C      1  0.5382400000000  0.4205880000000  0.5138820000000 1.0
C      1  0.4574690000000  0.4677190000000  0.4175750000000 1.0
C      1  0.4572080000000  0.4507870000000  0.5651010000000 1.0
C      1  0.4533460000000  0.5847090000000  0.5104520000000 1.0
C      1  0.5698620000000  0.5201600000000  0.4656120000000 1.0
C      1  0.5635710000000  0.5183500000000  0.5371170000000 1.0
C      1  0.5721560000000  0.4546570000000  0.5028300000000 1.0
C      1  0.4329260000000  0.4719280000000  0.4646280000000 1.0
C      1  0.4261600000000  0.4790760000000  0.5384120000000 1.0
C      1  0.4394740000000  0.5372380000000  0.4983000000000 1.0
C      1  0.5781480000000  0.4930180000000  0.5314710000000 1.0
C      1  0.5813950000000  0.4757600000000  0.4834060000000 1.0
C      1  0.5797590000000  0.5239140000000  0.4927900000000 1.0
C      1  0.4175520000000  0.5059940000000  0.5286890000000 1.0
C      1  0.4248190000000  0.5183070000000  0.4812380000000 1.0
C      1  0.4189340000000  0.4716960000000  0.4916380000000 1.0
C      1  0.4872670000000  0.4597500000000  0.5105190000000 1.0
C      1  0.4919400000000  0.5119030000000  0.4592150000000 1.0
C      1  0.4931890000000  0.5257990000000  0.5377880000000 1.0
C      1  0.5063160000000  0.5287100000000  0.5109230000000 1.0
C      1  0.5109670000000  0.4880480000000  0.4555320000000 1.0
C      1  0.5079540000000  0.4668340000000  0.5319600000000 1.0
C      1  0.4434860000000  0.5495920000000  0.5472120000000 1.0
C      1  0.4443500000000  0.4382330000000  0.5186560000000 1.0
C      1  0.4456140000000  0.5137710000000  0.4355750000000 1.0
C      1  0.5552110000000  0.4478260000000  0.5511150000000 1.0
C      1  0.5511780000000  0.5603060000000  0.5139080000000 1.0
C      1  0.5565500000000  0.4839660000000  0.4350160000000 1.0
C      1  0.4668080000000  0.4849500000000  0.5075790000000 1.0
C      1  0.4690090000000  0.5005910000000  0.4782090000000 1.0
C      1  0.4667880000000  0.5083550000000  0.5320950000000 1.0
C      1  0.5313610000000  0.5127000000000  0.5036360000000 1.0
C      1  0.5333020000000  0.4901270000000  0.4786000000000 1.0
C      1  0.5325000000000  0.4803600000000  0.5170720000000 1.0
C      1  0.4408280000000  0.5264540000000  0.5268970000000 1.0
C      1  0.4387840000000  0.4676680000000  0.5139180000000 1.0
C      1  0.4427500000000  0.5012050000000  0.4635860000000 1.0
C      1  0.5599110000000  0.4685440000000  0.5270110000000 1.0
C      1  0.5570830000000  0.5305780000000  0.5109920000000 1.0
C      1  0.5610620000000  0.4913480000000  0.4648710000000 1.0
C      1  0.4577020000000  0.4965830000000  0.4140500000000 1.0
C      1  0.4585450000000  0.5731380000000  0.5364260000000 1.0
C      1  0.4555740000000  0.4298530000000  0.5450180000000 1.0
C      1  0.5441330000000  0.5057430000000  0.4170420000000 1.0
C      1  0.5420980000000  0.4215410000000  0.5424840000000 1.0
C      1  0.5329690000000  0.5648800000000  0.5359720000000 1.0
C      1  0.4938510000000  0.4631970000000  0.4590540000000 1.0
C      1  0.4977980000000  0.5499860000000  0.4925400000000 1.0
C      1  0.4969100000000  0.4848480000000  0.5543740000000 1.0
C      1  0.5025490000000  0.5411820000000  0.4654590000000 1.0
C      1  0.4991670000000  0.4496000000000  0.4833700000000 1.0
C      1  0.5107670000000  0.5091310000000  0.5549200000000 1.0
C      1  0.5093380000000  0.4432680000000  0.5629400000000 1.0
C      1  0.5109490000000  0.4763230000000  0.4183900000000 1.0
C      1  0.5043630000000  0.5794760000000  0.4994190000000 1.0
C      1  0.4889300000000  0.5491380000000  0.5604460000000 1.0
C      1  0.4901660000000  0.5256600000000  0.4229060000000 1.0
C      1  0.4863300000000  0.4206450000000  0.5144060000000 1.0
C      1  0.4592070000000  0.5653950000000  0.4396070000000 1.0
C      1  0.4560850000000  0.5102320000000  0.5697350000000 1.0
C      1  0.4572550000000  0.4421500000000  0.4714610000000 1.0
C      1  0.5387460000000  0.4353430000000  0.4404340000000 1.0
C      1  0.5387110000000  0.4778300000000  0.5896740000000 1.0
C      1  0.5489100000000  0.5678350000000  0.4641920000000 1.0
C      1  0.4645270000000  0.5362970000000  0.4357060000000 1.0
C      1  0.4604740000000  0.5399460000000  0.5695540000000 1.0
C      1  0.4606090000000  0.4267850000000  0.4975710000000 1.0
C      1  0.5365410000000  0.4632030000000  0.4290920000000 1.0
C      1  0.5359580000000  0.4547730000000  0.5722810000000 1.0
C      1  0.5406440000000  0.5749950000000  0.4912530000000 1.0
C      1  0.4859620000000  0.5753620000000  0.5471610000000 1.0
C      1  0.4800230000000  0.4134010000000  0.5421460000000 1.0
C      1  0.4828790000000  0.5065900000000  0.4019920000000 1.0
C      1  0.5155160000000  0.4154680000000  0.5555650000000 1.0
C      1  0.5093520000000  0.5812370000000  0.5295290000000 1.0
C      1  0.5201880000000  0.4979200000000  0.4006090000000 1.0
C      1  0.5076680000000  0.5098690000000  0.6091440000000 1.0
C      1  0.5030110000000  0.4031730000000  0.4550280000000 1.0
C      1  0.4913670000000  0.6035910000000  0.4508630000000 1.0
C      1  0.4102770000000  0.4996860000000  0.4994760000000 1.0
C      1  0.5897310000000  0.4974230000000  0.5031360000000 1.0
END
