TITL C-3578206-1180-263 -1.62493262178845e-06 125000 -1209.36834337875 0 0 191 (C1) n - 1
REM
REM in /home/bkarasulu/work/CARBON/AIRSS/Generating-Clusters/EDIP-Nigel-Params/with-SteepDescent/Higher-Symm/SD-CG/HFTN-CG
REM
REM
REM
REM
REM
REM ./C.cell (12c818d87b63d06a65506943cc24bca4)
REM
REM compiler GCC version 9.2.1 20190827 (Red Hat 9.2.1-1)
REM options -cpp -mtune=generic -march=x86-64 -g -O0 -fpre-include=/usr/include/finclude/math-vector-fortran.h
REM seed -2095057323 2141293378 -1785553366 -1366646838 -1669372054 -469811399 -767951048 326005278 -92057817 -1815134091 1692723569 -273673627 -492984324 -2123009515 -1926636503 1756283731 557320014 40726182 1367194382 -1994586636 1342519503 733597213 -1409346959 1637003926 -1310917515 -1499973101 -354490479 -1132438698 -2073857734 -1490581093 -1421392071 662746099 1887083483
REM
CELL 1.54180   50.00000   50.00000   50.00000   90.00000   90.00000   90.00000
LATT -1
SFAC C  
C      1  0.4466040000000  0.4041300000000  0.5289870000000 1.0
C      1  0.5444430000000  0.3944420000000  0.5306250000000 1.0
C      1  0.6078310000000  0.4670650000000  0.5282260000000 1.0
C      1  0.5893040000000  0.5626410000000  0.5282240000000 1.0
C      1  0.5057370000000  0.6118590000000  0.5295040000000 1.0
C      1  0.4163700000000  0.5750590000000  0.5301570000000 1.0
C      1  0.3902610000000  0.4824660000000  0.5297400000000 1.0
C      1  0.5590860000000  0.5021820000000  0.5708950000000 1.0
C      1  0.5357190000000  0.5492690000000  0.5735660000000 1.0
C      1  0.4830890000000  0.5571810000000  0.5691280000000 1.0
C      1  0.4422800000000  0.5231550000000  0.5731800000000 1.0
C      1  0.4454670000000  0.4710860000000  0.5747310000000 1.0
C      1  0.4908390000000  0.4420390000000  0.5703530000000 1.0
C      1  0.5431270000000  0.4505130000000  0.5919580000000 1.0
C      1  0.4735690000000  0.4051660000000  0.4389370000000 1.0
C      1  0.5587730000000  0.4164510000000  0.4378180000000 1.0
C      1  0.5974470000000  0.4935240000000  0.4396850000000 1.0
C      1  0.5639520000000  0.5724310000000  0.4406500000000 1.0
C      1  0.4827830000000  0.5995960000000  0.4399770000000 1.0
C      1  0.4133430000000  0.5490640000000  0.4412130000000 1.0
C      1  0.4109540000000  0.4636250000000  0.4408250000000 1.0
C      1  0.5329700000000  0.5003600000000  0.5860420000000 1.0
C      1  0.5211790000000  0.5275450000000  0.5915080000000 1.0
C      1  0.4909610000000  0.5315550000000  0.5843840000000 1.0
C      1  0.4665040000000  0.5136890000000  0.5897940000000 1.0
C      1  0.4687530000000  0.4825390000000  0.5932280000000 1.0
C      1  0.4945070000000  0.4673280000000  0.5867530000000 1.0
C      1  0.5222410000000  0.4741410000000  0.5982640000000 1.0
C      1  0.5273220000000  0.5774420000000  0.5764440000000 1.0
C      1  0.4563420000000  0.5692740000000  0.5771630000000 1.0
C      1  0.4162310000000  0.5096990000000  0.5783500000000 1.0
C      1  0.4408250000000  0.4421980000000  0.5764250000000 1.0
C      1  0.5081830000000  0.4184570000000  0.5786530000000 1.0
C      1  0.5697680000000  0.4546570000000  0.5786770000000 1.0
C      1  0.5772080000000  0.5262710000000  0.5759340000000 1.0
C      1  0.4380090000000  0.5744920000000  0.4898560000000 1.0
C      1  0.4077520000000  0.4977920000000  0.4903790000000 1.0
C      1  0.4467670000000  0.4266070000000  0.4888480000000 1.0
C      1  0.5247310000000  0.4056310000000  0.4889900000000 1.0
C      1  0.5867050000000  0.4598210000000  0.4879340000000 1.0
C      1  0.5814700000000  0.5425020000000  0.4886390000000 1.0
C      1  0.5172590000000  0.5938440000000  0.4891600000000 1.0
C      1  0.6138750000000  0.4998250000000  0.4897330000000 1.0
C      1  0.5702170000000  0.5894280000000  0.4902530000000 1.0
C      1  0.4731280000000  0.6137730000000  0.4907090000000 1.0
C      1  0.3958070000000  0.5500320000000  0.4912670000000 1.0
C      1  0.4038010000000  0.4493210000000  0.4947870000000 1.0
C      1  0.4790570000000  0.3902170000000  0.4930590000000 1.0
C      1  0.5734610000000  0.4081710000000  0.4892340000000 1.0
C      1  0.4879110000000  0.4180270000000  0.4137870000000 1.0
C      1  0.5564280000000  0.4376180000000  0.4125530000000 1.0
C      1  0.5806590000000  0.5050910000000  0.4148310000000 1.0
C      1  0.5453760000000  0.5675690000000  0.4155350000000 1.0
C      1  0.4753240000000  0.5808100000000  0.4148720000000 1.0
C      1  0.4234880000000  0.5316040000000  0.4162890000000 1.0
C      1  0.4301740000000  0.4603310000000  0.4159670000000 1.0
C      1  0.4868640000000  0.5340080000000  0.6227910000000 1.0
C      1  0.4665930000000  0.5143020000000  0.6286430000000 1.0
C      1  0.4679090000000  0.4853810000000  0.6236950000000 1.0
C      1  0.4910260000000  0.4739900000000  0.6351220000000 1.0
C      1  0.5173930000000  0.4797910000000  0.6276490000000 1.0
C      1  0.5239120000000  0.5061810000000  0.6342580000000 1.0
C      1  0.5157130000000  0.5296380000000  0.6211040000000 1.0
C      1  0.5997340000000  0.4910850000000  0.5557750000000 1.0
C      1  0.5704260000000  0.5759940000000  0.5575830000000 1.0
C      1  0.4837370000000  0.6029890000000  0.5585970000000 1.0
C      1  0.4088100000000  0.5522970000000  0.5587380000000 1.0
C      1  0.4027100000000  0.4622460000000  0.5581770000000 1.0
C      1  0.4689240000000  0.4009040000000  0.5589280000000 1.0
C      1  0.5482060000000  0.4242050000000  0.5515620000000 1.0
C      1  0.4751100000000  0.4441780000000  0.5349600000000 1.0
C      1  0.5270930000000  0.4390780000000  0.5319290000000 1.0
C      1  0.5623940000000  0.4856990000000  0.5354110000000 1.0
C      1  0.5465250000000  0.5380650000000  0.5377260000000 1.0
C      1  0.5006230000000  0.5611150000000  0.5344250000000 1.0
C      1  0.4511590000000  0.5391480000000  0.5385750000000 1.0
C      1  0.4404690000000  0.4863530000000  0.5389620000000 1.0
C      1  0.5184300000000  0.4644260000000  0.4330900000000 1.0
C      1  0.5356940000000  0.4910650000000  0.4335720000000 1.0
C      1  0.5262000000000  0.5238910000000  0.4349040000000 1.0
C      1  0.4978760000000  0.5391090000000  0.4343090000000 1.0
C      1  0.4700680000000  0.5245900000000  0.4353800000000 1.0
C      1  0.4659810000000  0.4919110000000  0.4354300000000 1.0
C      1  0.4868890000000  0.4652960000000  0.4347070000000 1.0
C      1  0.4855740000000  0.4685160000000  0.3866870000000 1.0
C      1  0.5159800000000  0.4680610000000  0.3850360000000 1.0
C      1  0.5337150000000  0.4928140000000  0.3861020000000 1.0
C      1  0.5254850000000  0.5224070000000  0.3872950000000 1.0
C      1  0.4983030000000  0.5364800000000  0.3862480000000 1.0
C      1  0.4711960000000  0.5227560000000  0.3869860000000 1.0
C      1  0.4664950000000  0.4925640000000  0.3878600000000 1.0
C      1  0.4405450000000  0.5616920000000  0.4460250000000 1.0
C      1  0.4191680000000  0.4920470000000  0.4475940000000 1.0
C      1  0.4572720000000  0.4297860000000  0.4457070000000 1.0
C      1  0.5288950000000  0.4176270000000  0.4428530000000 1.0
C      1  0.5782950000000  0.4703460000000  0.4442020000000 1.0
C      1  0.5686340000000  0.5430390000000  0.4460460000000 1.0
C      1  0.5090400000000  0.5852030000000  0.4450150000000 1.0
C      1  0.6103460000000  0.4726640000000  0.4993860000000 1.0
C      1  0.5876030000000  0.5685120000000  0.4999090000000 1.0
C      1  0.5003560000000  0.6145720000000  0.5008840000000 1.0
C      1  0.4111280000000  0.5726350000000  0.5013970000000 1.0
C      1  0.3914030000000  0.4759020000000  0.5011460000000 1.0
C      1  0.4516930000000  0.4000890000000  0.5005300000000 1.0
C      1  0.5496350000000  0.3956350000000  0.5011640000000 1.0
C      1  0.5798500000000  0.4818910000000  0.5759410000000 1.0
C      1  0.5644450000000  0.5526580000000  0.5750600000000 1.0
C      1  0.4987200000000  0.5819040000000  0.5730700000000 1.0
C      1  0.4332150000000  0.5509220000000  0.5759810000000 1.0
C      1  0.4178210000000  0.4804560000000  0.5762780000000 1.0
C      1  0.4649510000000  0.4263910000000  0.5735300000000 1.0
C      1  0.5364830000000  0.4245100000000  0.5789840000000 1.0
C      1  0.4692700000000  0.4932260000000  0.5450060000000 1.0
C      1  0.4870390000000  0.4710960000000  0.5375090000000 1.0
C      1  0.5154800000000  0.4660460000000  0.5423120000000 1.0
C      1  0.5326660000000  0.4887950000000  0.5383840000000 1.0
C      1  0.5261710000000  0.5166980000000  0.5452740000000 1.0
C      1  0.5016000000000  0.5309300000000  0.5387200000000 1.0
C      1  0.4754820000000  0.5213690000000  0.5441480000000 1.0
C      1  0.4902760000000  0.4363660000000  0.5094050000000 1.0
C      1  0.5413440000000  0.4431170000000  0.5054730000000 1.0
C      1  0.5625170000000  0.4974930000000  0.5068970000000 1.0
C      1  0.5346270000000  0.5499270000000  0.5106790000000 1.0
C      1  0.4849840000000  0.5648540000000  0.5081150000000 1.0
C      1  0.4411200000000  0.5306570000000  0.5105400000000 1.0
C      1  0.4450000000000  0.4756010000000  0.5094680000000 1.0
C      1  0.5145060000000  0.4021490000000  0.5339250000000 1.0
C      1  0.5792380000000  0.4575560000000  0.5324550000000 1.0
C      1  0.5805940000000  0.5341920000000  0.5325390000000 1.0
C      1  0.5236260000000  0.5878410000000  0.5336760000000 1.0
C      1  0.4462580000000  0.5740010000000  0.5345040000000 1.0
C      1  0.4098840000000  0.5046930000000  0.5349910000000 1.0
C      1  0.4414000000000  0.4334670000000  0.5331210000000 1.0
C      1  0.4327790000000  0.4469650000000  0.5065610000000 1.0
C      1  0.5006590000000  0.4075180000000  0.5070070000000 1.0
C      1  0.5716720000000  0.4423360000000  0.5065940000000 1.0
C      1  0.5846950000000  0.5186120000000  0.5060060000000 1.0
C      1  0.5372000000000  0.5806870000000  0.5073290000000 1.0
C      1  0.4601520000000  0.5825070000000  0.5083690000000 1.0
C      1  0.4126110000000  0.5206810000000  0.5089580000000 1.0
C      1  0.4562370000000  0.5373480000000  0.4588950000000 1.0
C      1  0.4484770000000  0.4884730000000  0.4590670000000 1.0
C      1  0.4792370000000  0.4493350000000  0.4588940000000 1.0
C      1  0.5272760000000  0.4460460000000  0.4548100000000 1.0
C      1  0.5537150000000  0.4862890000000  0.4563540000000 1.0
C      1  0.5398090000000  0.5341980000000  0.4596060000000 1.0
C      1  0.4986860000000  0.5580580000000  0.4571840000000 1.0
C      1  0.5283110000000  0.5982910000000  0.4634260000000 1.0
C      1  0.4412700000000  0.5854410000000  0.4638460000000 1.0
C      1  0.4007630000000  0.5073680000000  0.4649400000000 1.0
C      1  0.4341340000000  0.4251360000000  0.4634230000000 1.0
C      1  0.5179790000000  0.3976860000000  0.4621370000000 1.0
C      1  0.5881300000000  0.4485420000000  0.4620370000000 1.0
C      1  0.5918910000000  0.5367150000000  0.4632070000000 1.0
C      1  0.5209410000000  0.5329250000000  0.4863760000000 1.0
C      1  0.4910340000000  0.5457140000000  0.4848010000000 1.0
C      1  0.4609760000000  0.5250060000000  0.4876610000000 1.0
C      1  0.4612870000000  0.4935040000000  0.4865730000000 1.0
C      1  0.4957000000000  0.4566710000000  0.4856340000000 1.0
C      1  0.5273000000000  0.4572640000000  0.4830260000000 1.0
C      1  0.5409720000000  0.4864000000000  0.4841280000000 1.0
C      1  0.4213840000000  0.5035740000000  0.4194090000000 1.0
C      1  0.4495800000000  0.4398520000000  0.4178720000000 1.0
C      1  0.5162480000000  0.4191820000000  0.4149420000000 1.0
C      1  0.5708540000000  0.4618950000000  0.4157090000000 1.0
C      1  0.5710220000000  0.5315420000000  0.4178840000000 1.0
C      1  0.5195120000000  0.5789810000000  0.4169510000000 1.0
C      1  0.4513220000000  0.5660000000000  0.4176770000000 1.0
C      1  0.4199830000000  0.4377290000000  0.5559520000000 1.0
C      1  0.4987230000000  0.3973660000000  0.5594160000000 1.0
C      1  0.5741560000000  0.4388410000000  0.5545110000000 1.0
C      1  0.5973920000000  0.5209540000000  0.5548310000000 1.0
C      1  0.5446090000000  0.5913980000000  0.5567930000000 1.0
C      1  0.4556560000000  0.5922520000000  0.5581020000000 1.0
C      1  0.3996960000000  0.5235510000000  0.5577590000000 1.0
C      1  0.5266840000000  0.4475380000000  0.4077270000000 1.0
C      1  0.5550640000000  0.4879020000000  0.4089700000000 1.0
C      1  0.5416240000000  0.5363960000000  0.4103780000000 1.0
C      1  0.4975700000000  0.5585670000000  0.4094710000000 1.0
C      1  0.4541210000000  0.5359360000000  0.4106600000000 1.0
C      1  0.4462620000000  0.4870470000000  0.4111680000000 1.0
C      1  0.4778730000000  0.4481780000000  0.4096910000000 1.0
C      1  0.4666220000000  0.5993470000000  0.4653470000000 1.0
C      1  0.4046460000000  0.5358790000000  0.4666020000000 1.0
C      1  0.4119590000000  0.4443520000000  0.4644850000000 1.0
C      1  0.4888550000000  0.3943530000000  0.4630520000000 1.0
C      1  0.5724430000000  0.4241280000000  0.4636370000000 1.0
C      1  0.5998610000000  0.5090570000000  0.4651460000000 1.0
C      1  0.5541740000000  0.5855520000000  0.4655610000000 1.0
C      1  0.4908550000000  0.4861310000000  0.4884620000000 1.0
C      1  0.5158970000000  0.5026800000000  0.4871740000000 1.0
END
