TITL C-3577088-510-499 5.02940548979808e-08 125000 -187.397426418203 0 0 31 (C1) n - 1
REM
REM in /home/bkarasulu/work/CARBON/AIRSS/Generating-Clusters/EDIP-Nigel-Params/with-SteepDescent/Higher-Symm/SD-CG/HFTN-CG
REM
REM
REM
REM
REM
REM ./C.cell (12c818d87b63d06a65506943cc24bca4)
REM
REM compiler GCC version 9.2.1 20190827 (Red Hat 9.2.1-1)
REM options -cpp -mtune=generic -march=x86-64 -g -O0 -fpre-include=/usr/include/finclude/math-vector-fortran.h
REM seed 1230752873 -1517666420 940613198 -1560394279 368520538 -137260662 1854616529 571798582 349408344 912660271 2102484245 2133342387 -1209219532 1459534864 -319597668 -779572553 1681187098 -2030965095 1354498044 1974478095 -258514036 -585643690 -1811248324 -1081495199 -1357094841 196595962 688780334 1348650897 -1767774186 479274557 165508524 -1433681165 -374158116
REM
CELL 1.54180   50.00000   50.00000   50.00000   90.00000   90.00000   90.00000
LATT -1
SFAC C  
C      1  0.5144820000000  0.5242370000000  0.5374740000000 1.0
C      1  0.5269350000000  0.5204990000000  0.4779100000000 1.0
C      1  0.4511140000000  0.5178810000000  0.4864140000000 1.0
C      1  0.4978730000000  0.4818470000000  0.5497540000000 1.0
C      1  0.5521560000000  0.4813900000000  0.4727930000000 1.0
C      1  0.4554530000000  0.4746970000000  0.4690150000000 1.0
C      1  0.5251990000000  0.5568060000000  0.5193380000000 1.0
C      1  0.5085550000000  0.5424850000000  0.4752570000000 1.0
C      1  0.4702590000000  0.5683600000000  0.5163240000000 1.0
C      1  0.5277540000000  0.4537710000000  0.5122370000000 1.0
C      1  0.5073250000000  0.4510860000000  0.4696850000000 1.0
C      1  0.4655520000000  0.4513460000000  0.5179580000000 1.0
C      1  0.5458530000000  0.5376380000000  0.5197490000000 1.0
C      1  0.4867850000000  0.5400090000000  0.4580120000000 1.0
C      1  0.4689760000000  0.5449150000000  0.5292530000000 1.0
C      1  0.5339580000000  0.4806710000000  0.5172600000000 1.0
C      1  0.5044160000000  0.4781940000000  0.4626700000000 1.0
C      1  0.4631590000000  0.4791190000000  0.5161380000000 1.0
C      1  0.5498520000000  0.5221960000000  0.4959390000000 1.0
C      1  0.4725700000000  0.5176330000000  0.4674870000000 1.0
C      1  0.4855580000000  0.5226980000000  0.5306620000000 1.0
C      1  0.5543770000000  0.4928200000000  0.4992850000000 1.0
C      1  0.4777630000000  0.4899910000000  0.4591140000000 1.0
C      1  0.4769060000000  0.4954530000000  0.5361670000000 1.0
C      1  0.5284350000000  0.4949360000000  0.4635110000000 1.0
C      1  0.5211050000000  0.4948250000000  0.5397950000000 1.0
C      1  0.4490670000000  0.4898630000000  0.4926470000000 1.0
C      1  0.4874820000000  0.5799050000000  0.4990770000000 1.0
C      1  0.4849980000000  0.4355970000000  0.5081040000000 1.0
C      1  0.5094150000000  0.5626730000000  0.4960420000000 1.0
C      1  0.5093150000000  0.4407240000000  0.4957320000000 1.0
END
