TITL C-3577087-600-114 -3.80939881212153e-07 125000 -269.286258059911 0 0 45 (C5) n - 1
REM
REM in /home/bkarasulu/work/CARBON/AIRSS/Generating-Clusters/EDIP-Nigel-Params/with-SteepDescent/Higher-Symm/SD-CG/HFTN-CG
REM
REM
REM
REM
REM
REM ./C.cell (12c818d87b63d06a65506943cc24bca4)
REM
REM compiler GCC version 9.2.1 20190827 (Red Hat 9.2.1-1)
REM options -cpp -mtune=generic -march=x86-64 -g -O0 -fpre-include=/usr/include/finclude/math-vector-fortran.h
REM seed -1137880135 585049494 -1687272897 -1237275193 -1337586984 2113755105 -1698569496 1545202388 324919991 494206042 -1454268634 -1702143982 78828308 1004598515 -415746704 -1472220850 2132599122 166293721 744257981 -323916104 123118764 1774011774 652437062 -1232548827 1028291552 1336963 587438811 -461757849 629635293 705595742 -1940705106 -1261515639 327071540
REM
CELL 1.54180   50.00000   50.00000   50.00000   90.00000   90.00000   90.00000
LATT -1
SFAC C  
C      1  0.4748680000000  0.5413280000000  0.5516840000000 1.0
C      1  0.4748700000000  0.5619260000000  0.4766660000000 1.0
C      1  0.4748690000000  0.4969450000000  0.4338940000000 1.0
C      1  0.4748670000000  0.4361870000000  0.4824780000000 1.0
C      1  0.4748670000000  0.4636170000000  0.5552760000000 1.0
C      1  0.5216270000000  0.5408650000000  0.5515230000000 1.0
C      1  0.5216290000000  0.5616290000000  0.4770570000000 1.0
C      1  0.5216280000000  0.4972230000000  0.4342970000000 1.0
C      1  0.5216260000000  0.4366540000000  0.4823370000000 1.0
C      1  0.5216260000000  0.4636260000000  0.5547870000000 1.0
C      1  0.4491370000000  0.5217340000000  0.5133960000000 1.0
C      1  0.4491370000000  0.5194580000000  0.4834700000000 1.0
C      1  0.4491360000000  0.4902930000000  0.4763870000000 1.0
C      1  0.4491360000000  0.4745440000000  0.5019350000000 1.0
C      1  0.4491360000000  0.4939760000000  0.5248080000000 1.0
C      1  0.5493210000000  0.5218770000000  0.5135990000000 1.0
C      1  0.5493210000000  0.5196930000000  0.4833950000000 1.0
C      1  0.5493210000000  0.4902920000000  0.4761400000000 1.0
C      1  0.5493200000000  0.4743060000000  0.5018590000000 1.0
C      1  0.5493200000000  0.4938270000000  0.5250100000000 1.0
C      1  0.4618250000000  0.4877600000000  0.5506360000000 1.0
C      1  0.4618260000000  0.5443760000000  0.5272880000000 1.0
C      1  0.4618270000000  0.5396670000000  0.4662290000000 1.0
C      1  0.4618260000000  0.4801400000000  0.4518390000000 1.0
C      1  0.4618250000000  0.4480600000000  0.5040050000000 1.0
C      1  0.5345610000000  0.4878480000000  0.5499970000000 1.0
C      1  0.5345620000000  0.5437930000000  0.5270070000000 1.0
C      1  0.5345630000000  0.5392170000000  0.4666950000000 1.0
C      1  0.5345620000000  0.4804430000000  0.4524110000000 1.0
C      1  0.5345610000000  0.4486950000000  0.5038940000000 1.0
C      1  0.4981570000000  0.5673020000000  0.4914160000000 1.0
C      1  0.4981540000000  0.4505970000000  0.5465030000000 1.0
C      1  0.4981550000000  0.5289610000000  0.5613550000000 1.0
C      1  0.4981550000000  0.4405070000000  0.4673850000000 1.0
C      1  0.4981570000000  0.5126340000000  0.4333400000000 1.0
C      1  0.4981390000000  0.4999380000000  0.5539320000000 1.0
C      1  0.4981410000000  0.5512730000000  0.5167250000000 1.0
C      1  0.4981410000000  0.5317500000000  0.4564050000000 1.0
C      1  0.4981400000000  0.4683500000000  0.4563320000000 1.0
C      1  0.4981390000000  0.4486890000000  0.5166070000000 1.0
C      1  0.5004140000000  0.5144040000000  0.4804060000000 1.0
C      1  0.5004140000000  0.4858160000000  0.4802460000000 1.0
C      1  0.5004130000000  0.4998640000000  0.5243180000000 1.0
C      1  0.5004140000000  0.5230860000000  0.5076440000000 1.0
C      1  0.5004130000000  0.4768300000000  0.5073850000000 1.0
END
