TITL C-3577083-591-69 -7.72037743113242e-07 125000 -323.74655243082 0 0 54 (Cs) n - 1
REM
REM in /home/bkarasulu/work/CARBON/AIRSS/Generating-Clusters/EDIP-Nigel-Params/with-SteepDescent/Higher-Symm/SD-CG/HFTN-CG
REM
REM
REM
REM
REM
REM ./C.cell (12c818d87b63d06a65506943cc24bca4)
REM
REM compiler GCC version 9.2.1 20190827 (Red Hat 9.2.1-1)
REM options -cpp -mtune=generic -march=x86-64 -g -O0 -fpre-include=/usr/include/finclude/math-vector-fortran.h
REM seed -1441735988 208460216 928273527 -2036866326 -1603106498 -910225415 -383950425 1002007145 161373046 -1600657887 -254818279 1491302123 -330233809 183726603 1689287363 -1988675470 -1658333213 309848026 -404306082 513455593 972054259 2088658254 -792687164 -1204987866 2004123079 2042807319 -1457263130 1284823300 1161886990 -901172597 1329953724 1480034206 1060532289
REM
CELL 1.54180   50.00000   50.00000   50.00000   90.00000   90.00000   90.00000
LATT -1
SFAC C  
C      1  0.4795010000000  0.5583490000000  0.4663530000000 1.0
C      1  0.4648860000000  0.5680800000000  0.4878420000000 1.0
C      1  0.4651750000000  0.5586480000000  0.5139420000000 1.0
C      1  0.4848800000000  0.5703860000000  0.5294690000000 1.0
C      1  0.5077860000000  0.5614980000000  0.5424360000000 1.0
C      1  0.5341100000000  0.5615030000000  0.5264060000000 1.0
C      1  0.5331020000000  0.5703960000000  0.5001060000000 1.0
C      1  0.5283550000000  0.5586600000000  0.4754700000000 1.0
C      1  0.5052970000000  0.5680870000000  0.4632340000000 1.0
C      1  0.4818680000000  0.4315890000000  0.4702010000000 1.0
C      1  0.4598940000000  0.4450780000000  0.4806680000000 1.0
C      1  0.4574160000000  0.4473100000000  0.5091260000000 1.0
C      1  0.4804750000000  0.4448500000000  0.5394730000000 1.0
C      1  0.5066710000000  0.4573770000000  0.5410250000000 1.0
C      1  0.5333980000000  0.4573820000000  0.5247510000000 1.0
C      1  0.5440470000000  0.4448620000000  0.5007630000000 1.0
C      1  0.5276690000000  0.4473230000000  0.4663470000000 1.0
C      1  0.5012500000000  0.4450860000000  0.4554850000000 1.0
C      1  0.5535160000000  0.4901270000000  0.4527780000000 1.0
C      1  0.5087200000000  0.4817420000000  0.4231090000000 1.0
C      1  0.4563440000000  0.4979060000000  0.4283060000000 1.0
C      1  0.4276900000000  0.4817260000000  0.4724500000000 1.0
C      1  0.4334850000000  0.4901040000000  0.5258680000000 1.0
C      1  0.4625220000000  0.4806140000000  0.5665110000000 1.0
C      1  0.5160560000000  0.4947880000000  0.5773440000000 1.0
C      1  0.5613460000000  0.4947970000000  0.5497660000000 1.0
C      1  0.5762990000000  0.4806360000000  0.4972300000000 1.0
C      1  0.5520380000000  0.4627670000000  0.4606900000000 1.0
C      1  0.4911210000000  0.4652750000000  0.4375930000000 1.0
C      1  0.4633040000000  0.4732940000000  0.4397280000000 1.0
C      1  0.4486410000000  0.4652670000000  0.4634600000000 1.0
C      1  0.4412000000000  0.4627460000000  0.5281820000000 1.0
C      1  0.4571270000000  0.4570430000000  0.5523700000000 1.0
C      1  0.5215930000000  0.4701720000000  0.5652160000000 1.0
C      1  0.5480360000000  0.4701770000000  0.5491140000000 1.0
C      1  0.5662180000000  0.4570640000000  0.4859410000000 1.0
C      1  0.5135150000000  0.5212350000000  0.5724790000000 1.0
C      1  0.5581830000000  0.5212440000000  0.5452790000000 1.0
C      1  0.5620050000000  0.5032520000000  0.5003070000000 1.0
C      1  0.5508580000000  0.5171900000000  0.4571810000000 1.0
C      1  0.5117040000000  0.5043700000000  0.4379240000000 1.0
C      1  0.4637230000000  0.5209970000000  0.4404320000000 1.0
C      1  0.4394760000000  0.5043570000000  0.4819050000000 1.0
C      1  0.4386100000000  0.5171690000000  0.5255320000000 1.0
C      1  0.4718110000000  0.5032350000000  0.5552280000000 1.0
C      1  0.5366640000000  0.5306360000000  0.5285070000000 1.0
C      1  0.5378040000000  0.5168810000000  0.5017980000000 1.0
C      1  0.5304960000000  0.5284130000000  0.4748080000000 1.0
C      1  0.5058510000000  0.5168990000000  0.4621830000000 1.0
C      1  0.4782120000000  0.5286240000000  0.4642280000000 1.0
C      1  0.4637120000000  0.5168910000000  0.4878420000000 1.0
C      1  0.4636130000000  0.5284000000000  0.5155350000000 1.0
C      1  0.4842400000000  0.5168710000000  0.5344150000000 1.0
C      1  0.5084890000000  0.5306310000000  0.5456640000000 1.0
END
