TITL C-3578206-1180-634 0.0843219606916892 125000 -625.767418270045 0 0 101 (C1) n - 1
REM
REM in /home/bkarasulu/work/CARBON/AIRSS/Generating-Clusters/EDIP-Nigel-Params/with-SteepDescent/Higher-Symm/SD-CG/HFTN-CG
REM
REM
REM
REM
REM
REM ./C.cell (12c818d87b63d06a65506943cc24bca4)
REM
REM compiler GCC version 9.2.1 20190827 (Red Hat 9.2.1-1)
REM options -cpp -mtune=generic -march=x86-64 -g -O0 -fpre-include=/usr/include/finclude/math-vector-fortran.h
REM seed 987740196 1045015928 1306204929 1978789225 -1422870423 -1622790734 2058097821 -854147963 -11820150 548744447 281929754 -1584585232 1620933777 -499608567 897838281 -1662071723 1390484532 20154076 -1006019465 1162426233 1079004037 369828460 565862291 -446550280 518515594 -1568649172 -1083830263 -658978674 1705962178 570276623 42244222 -295743345 -1906610109
REM
CELL 1.54180   50.00000   50.00000   50.00000   90.00000   90.00000   90.00000
LATT -1
SFAC C  
C      1  0.4771230000000  0.4992900000000  0.5368110000000 1.0
C      1  0.4830920000000  0.4724630000000  0.5392660000000 1.0
C      1  0.5078720000000  0.4732570000000  0.5556220000000 1.0
C      1  0.5307810000000  0.4783650000000  0.5369160000000 1.0
C      1  0.5355690000000  0.5085040000000  0.5327340000000 1.0
C      1  0.5139970000000  0.5225490000000  0.5428330000000 1.0
C      1  0.5005910000000  0.5456660000000  0.5355460000000 1.0
C      1  0.4748340000000  0.5431900000000  0.5496860000000 1.0
C      1  0.4623380000000  0.5221930000000  0.5327930000000 1.0
C      1  0.4613560000000  0.5765280000000  0.5039480000000 1.0
C      1  0.4229280000000  0.5357700000000  0.5061150000000 1.0
C      1  0.4250390000000  0.4810770000000  0.5124630000000 1.0
C      1  0.4550380000000  0.4346260000000  0.5184180000000 1.0
C      1  0.5094420000000  0.4209250000000  0.5198360000000 1.0
C      1  0.5593950000000  0.4455710000000  0.5201660000000 1.0
C      1  0.5795300000000  0.4966600000000  0.5186340000000 1.0
C      1  0.5641490000000  0.5521040000000  0.5139050000000 1.0
C      1  0.5179880000000  0.5849880000000  0.5071660000000 1.0
C      1  0.4274320000000  0.5058770000000  0.4942880000000 1.0
C      1  0.4427740000000  0.4588610000000  0.5022380000000 1.0
C      1  0.4839820000000  0.4323570000000  0.5071220000000 1.0
C      1  0.5324610000000  0.4366950000000  0.5066240000000 1.0
C      1  0.5705200000000  0.4703670000000  0.5072170000000 1.0
C      1  0.5712930000000  0.5234950000000  0.5020430000000 1.0
C      1  0.5408390000000  0.5649060000000  0.4978850000000 1.0
C      1  0.4908030000000  0.5734760000000  0.4952730000000 1.0
C      1  0.4470500000000  0.5507000000000  0.4945090000000 1.0
C      1  0.5338250000000  0.4328560000000  0.5581620000000 1.0
C      1  0.5621780000000  0.4739710000000  0.5586460000000 1.0
C      1  0.5628010000000  0.5241770000000  0.5550530000000 1.0
C      1  0.5309780000000  0.5654330000000  0.5488750000000 1.0
C      1  0.4866890000000  0.5872760000000  0.5422650000000 1.0
C      1  0.4417930000000  0.5609300000000  0.5454630000000 1.0
C      1  0.4282480000000  0.5134660000000  0.5486860000000 1.0
C      1  0.4480480000000  0.4660670000000  0.5538630000000 1.0
C      1  0.4823440000000  0.4303490000000  0.5568570000000 1.0
C      1  0.5271990000000  0.4868640000000  0.4855910000000 1.0
C      1  0.5415660000000  0.5152980000000  0.5032710000000 1.0
C      1  0.5245110000000  0.5390290000000  0.4911400000000 1.0
C      1  0.4964140000000  0.5445780000000  0.5047390000000 1.0
C      1  0.4677560000000  0.5292660000000  0.5028210000000 1.0
C      1  0.4579310000000  0.5047350000000  0.4849620000000 1.0
C      1  0.4674000000000  0.4741670000000  0.4893540000000 1.0
C      1  0.4898260000000  0.4627760000000  0.5104930000000 1.0
C      1  0.5212870000000  0.4657900000000  0.5088970000000 1.0
C      1  0.4351160000000  0.5239820000000  0.4512190000000 1.0
C      1  0.4303950000000  0.4760120000000  0.4532230000000 1.0
C      1  0.4637670000000  0.4406730000000  0.4611750000000 1.0
C      1  0.5087600000000  0.4275190000000  0.4614630000000 1.0
C      1  0.5476450000000  0.4533760000000  0.4646730000000 1.0
C      1  0.5649180000000  0.4952490000000  0.4636870000000 1.0
C      1  0.5585380000000  0.5401320000000  0.4530190000000 1.0
C      1  0.5161960000000  0.5615240000000  0.4540570000000 1.0
C      1  0.4698100000000  0.5577200000000  0.4506580000000 1.0
C      1  0.4566420000000  0.4387320000000  0.5473670000000 1.0
C      1  0.5087450000000  0.4230940000000  0.5485530000000 1.0
C      1  0.5574450000000  0.4465020000000  0.5493790000000 1.0
C      1  0.5754520000000  0.4982540000000  0.5477390000000 1.0
C      1  0.5555430000000  0.5499090000000  0.5417510000000 1.0
C      1  0.5148950000000  0.5868800000000  0.5362440000000 1.0
C      1  0.4601760000000  0.5810840000000  0.5324350000000 1.0
C      1  0.4221890000000  0.5394770000000  0.5356810000000 1.0
C      1  0.4293650000000  0.4852190000000  0.5408010000000 1.0
C      1  0.4823410000000  0.5320880000000  0.4398400000000 1.0
C      1  0.4622300000000  0.5102820000000  0.4526620000000 1.0
C      1  0.4577920000000  0.4829000000000  0.4390280000000 1.0
C      1  0.4778560000000  0.4623480000000  0.4487860000000 1.0
C      1  0.5053760000000  0.4532560000000  0.4372060000000 1.0
C      1  0.5313590000000  0.4677970000000  0.4456990000000 1.0
C      1  0.5433920000000  0.4945760000000  0.4449730000000 1.0
C      1  0.5364750000000  0.5224400000000  0.4365050000000 1.0
C      1  0.5112290000000  0.5333960000000  0.4497440000000 1.0
C      1  0.4844310000000  0.4808080000000  0.5974620000000 1.0
C      1  0.5073800000000  0.4838560000000  0.5825900000000 1.0
C      1  0.5310960000000  0.4863680000000  0.5963970000000 1.0
C      1  0.5440460000000  0.4888210000000  0.6195110000000 1.0
C      1  0.5412860000000  0.4894870000000  0.6459150000000 1.0
C      1  0.5223430000000  0.4879050000000  0.6645140000000 1.0
C      1  0.4959290000000  0.4847420000000  0.6651230000000 1.0
C      1  0.4763050000000  0.4817100000000  0.6474320000000 1.0
C      1  0.4724920000000  0.4802650000000  0.6211920000000 1.0
C      1  0.4385040000000  0.4526440000000  0.4723490000000 1.0
C      1  0.4834330000000  0.4254600000000  0.4772610000000 1.0
C      1  0.5339960000000  0.4310280000000  0.4771280000000 1.0
C      1  0.5675330000000  0.4702960000000  0.4783570000000 1.0
C      1  0.5740930000000  0.5218690000000  0.4716440000000 1.0
C      1  0.5434240000000  0.5634680000000  0.4663950000000 1.0
C      1  0.4914060000000  0.5733560000000  0.4651170000000 1.0
C      1  0.4439580000000  0.5506170000000  0.4643380000000 1.0
C      1  0.4183040000000  0.5020220000000  0.4651500000000 1.0
C      1  0.5029540000000  0.4568800000000  0.4070560000000 1.0
C      1  0.5234270000000  0.4719550000000  0.3957670000000 1.0
C      1  0.5348630000000  0.4963180000000  0.3955360000000 1.0
C      1  0.5318860000000  0.5217820000000  0.4064180000000 1.0
C      1  0.5074190000000  0.5330370000000  0.3993400000000 1.0
C      1  0.4819170000000  0.5307070000000  0.4101260000000 1.0
C      1  0.4656150000000  0.5104960000000  0.4006200000000 1.0
C      1  0.4598870000000  0.4848110000000  0.4091610000000 1.0
C      1  0.4774580000000  0.4653950000000  0.3996110000000 1.0
C      1  0.5012460000000  0.5018780000000  0.4923520000000 1.0
C      1  0.5027110000000  0.4936540000000  0.4671910000000 1.0
END
