TITL C-3578196-9646-410 -2.34260014458075e-06 125000 -212.892542185184 0 0 36 (C1) n - 1
REM
REM in /home/bkarasulu/work/CARBON/AIRSS/Generating-Clusters/EDIP-Nigel-Params/with-SteepDescent/Higher-Symm/SD-CG/HFTN-CG
REM
REM
REM
REM
REM
REM ./C.cell (12c818d87b63d06a65506943cc24bca4)
REM
REM compiler GCC version 9.2.1 20190827 (Red Hat 9.2.1-1)
REM options -cpp -mtune=generic -march=x86-64 -g -O0 -fpre-include=/usr/include/finclude/math-vector-fortran.h
REM seed -1815506405 1319816109 -306971684 -1741580514 -1174311946 -1468927307 -275488569 408912952 -826862496 1451578638 1191262577 -1555249257 1645487624 476555377 -988331292 -659763472 674741132 1015060565 -272443421 -682920190 -730669230 -795427306 -338489115 1444809876 -653175422 -2084520516 2126835223 2113624737 -1593274722 -1915059284 -1090907655 146783136 -1572238136
REM
CELL 1.54180   50.00000   50.00000   50.00000   90.00000   90.00000   90.00000
LATT -1
SFAC C  
C      1  0.4846730000000  0.4829030000000  0.4554130000000 1.0
C      1  0.4919950000000  0.4545180000000  0.4616710000000 1.0
C      1  0.4854250000000  0.4474770000000  0.4892490000000 1.0
C      1  0.4894050000000  0.4741040000000  0.5447870000000 1.0
C      1  0.4960800000000  0.4994850000000  0.5574170000000 1.0
C      1  0.4853460000000  0.5243830000000  0.5450150000000 1.0
C      1  0.4945580000000  0.5470240000000  0.5147840000000 1.0
C      1  0.4901660000000  0.5391700000000  0.4855240000000 1.0
C      1  0.4985560000000  0.5122380000000  0.4764060000000 1.0
C      1  0.5405090000000  0.5175570000000  0.5249010000000 1.0
C      1  0.5413970000000  0.5480010000000  0.5013200000000 1.0
C      1  0.5333660000000  0.5491710000000  0.4737090000000 1.0
C      1  0.5402630000000  0.5248720000000  0.4596130000000 1.0
C      1  0.5457420000000  0.4863700000000  0.4615830000000 1.0
C      1  0.5383220000000  0.4616080000000  0.4749130000000 1.0
C      1  0.5261400000000  0.4598810000000  0.5019230000000 1.0
C      1  0.5305800000000  0.4673070000000  0.5300650000000 1.0
C      1  0.5372210000000  0.4940970000000  0.5414450000000 1.0
C      1  0.4484830000000  0.4956500000000  0.5336520000000 1.0
C      1  0.4580850000000  0.5218010000000  0.5330920000000 1.0
C      1  0.4518660000000  0.5365900000000  0.5101090000000 1.0
C      1  0.4603160000000  0.5387750000000  0.4833810000000 1.0
C      1  0.4521180000000  0.5180030000000  0.4666090000000 1.0
C      1  0.4565450000000  0.4906340000000  0.4628000000000 1.0
C      1  0.4457750000000  0.4743170000000  0.4828740000000 1.0
C      1  0.4643830000000  0.4638730000000  0.5010610000000 1.0
C      1  0.4648460000000  0.4735370000000  0.5286560000000 1.0
C      1  0.5060910000000  0.5578770000000  0.4694370000000 1.0
C      1  0.5141540000000  0.5152110000000  0.4524010000000 1.0
C      1  0.5217160000000  0.4885850000000  0.4439440000000 1.0
C      1  0.5196690000000  0.4485370000000  0.4575560000000 1.0
C      1  0.5080150000000  0.4379940000000  0.5034720000000 1.0
C      1  0.5103540000000  0.4543930000000  0.5459270000000 1.0
C      1  0.5231800000000  0.5000730000000  0.5656580000000 1.0
C      1  0.5225440000000  0.5358000000000  0.5395670000000 1.0
C      1  0.5221150000000  0.5581810000000  0.5200680000000 1.0
END
