TITL C-3578203-1966-31 1.41160807054786e-06 125000 -954.849257114003 0 0 150 (C1) n - 1
REM
REM in /home/bkarasulu/work/CARBON/AIRSS/Generating-Clusters/EDIP-Nigel-Params/with-SteepDescent/Higher-Symm/SD-CG/HFTN-CG
REM
REM
REM
REM
REM
REM ./C.cell (12c818d87b63d06a65506943cc24bca4)
REM
REM compiler GCC version 9.2.1 20190827 (Red Hat 9.2.1-1)
REM options -cpp -mtune=generic -march=x86-64 -g -O0 -fpre-include=/usr/include/finclude/math-vector-fortran.h
REM seed 1741445714 895304888 796177048 797066507 -2077716055 812512429 451216798 1274390051 -551275668 442209893 -370251830 -722335542 -1610957880 1246237756 361249934 -1438922705 1308132408 -247641093 1231209674 -456458309 1554565468 1522379215 -1016418660 -1857928837 -1208936553 -354807839 -513692257 -878851036 620318859 -993146353 960177369 -1085273930 379351128
REM
CELL 1.54180   50.00000   50.00000   50.00000   90.00000   90.00000   90.00000
LATT -1
SFAC C  
C      1  0.4111300000000  0.4419880000000  0.5047330000000 1.0
C      1  0.5279110000000  0.3975230000000  0.5042570000000 1.0
C      1  0.6059820000000  0.4940910000000  0.5042750000000 1.0
C      1  0.5380020000000  0.5992220000000  0.5048870000000 1.0
C      1  0.4171670000000  0.5669450000000  0.5050900000000 1.0
C      1  0.5467020000000  0.4139480000000  0.4615210000000 1.0
C      1  0.5956300000000  0.5166480000000  0.4617340000000 1.0
C      1  0.5127340000000  0.5954590000000  0.4625680000000 1.0
C      1  0.4131810000000  0.5415910000000  0.4627200000000 1.0
C      1  0.4337210000000  0.4300250000000  0.4624290000000 1.0
C      1  0.5374500000000  0.5189820000000  0.5139390000000 1.0
C      1  0.4940830000000  0.5430850000000  0.5149620000000 1.0
C      1  0.4580580000000  0.5088220000000  0.5139480000000 1.0
C      1  0.4796090000000  0.4640390000000  0.5121990000000 1.0
C      1  0.5286800000000  0.4707900000000  0.5116820000000 1.0
C      1  0.4803050000000  0.5159160000000  0.6033510000000 1.0
C      1  0.4788180000000  0.4863200000000  0.6029390000000 1.0
C      1  0.5064550000000  0.4757490000000  0.6026550000000 1.0
C      1  0.5250690000000  0.4987360000000  0.6030070000000 1.0
C      1  0.5089420000000  0.5236020000000  0.6033640000000 1.0
C      1  0.4315290000000  0.5332290000000  0.5524830000000 1.0
C      1  0.4476380000000  0.4457100000000  0.5515190000000 1.0
C      1  0.5355610000000  0.4337050000000  0.5511040000000 1.0
C      1  0.5742950000000  0.5135140000000  0.5517940000000 1.0
C      1  0.5100640000000  0.5755370000000  0.5526890000000 1.0
C      1  0.3913690000000  0.4589420000000  0.5188060000000 1.0
C      1  0.5056160000000  0.3842660000000  0.5183850000000 1.0
C      1  0.6118800000000  0.4689150000000  0.5186000000000 1.0
C      1  0.5640130000000  0.5970960000000  0.5189590000000 1.0
C      1  0.4270090000000  0.5910750000000  0.5192800000000 1.0
C      1  0.4098560000000  0.4420600000000  0.4759730000000 1.0
C      1  0.5275840000000  0.3954730000000  0.4755370000000 1.0
C      1  0.6078700000000  0.4929210000000  0.4755630000000 1.0
C      1  0.5391230000000  0.5996340000000  0.4760770000000 1.0
C      1  0.4172080000000  0.5679580000000  0.4762720000000 1.0
C      1  0.4861010000000  0.4800360000000  0.4883310000000 1.0
C      1  0.5154470000000  0.4844070000000  0.4889010000000 1.0
C      1  0.5217750000000  0.5132480000000  0.4898680000000 1.0
C      1  0.4962470000000  0.5270330000000  0.4907370000000 1.0
C      1  0.4743210000000  0.5071580000000  0.4897930000000 1.0
C      1  0.4882440000000  0.5535350000000  0.4562640000000 1.0
C      1  0.4450700000000  0.5050270000000  0.4565780000000 1.0
C      1  0.4783770000000  0.4487130000000  0.4562830000000 1.0
C      1  0.5426300000000  0.4618980000000  0.4557680000000 1.0
C      1  0.5480950000000  0.5269000000000  0.4570120000000 1.0
C      1  0.5944110000000  0.5434450000000  0.4716570000000 1.0
C      1  0.4871000000000  0.6033660000000  0.4722470000000 1.0
C      1  0.3976870000000  0.5195350000000  0.4720270000000 1.0
C      1  0.4499920000000  0.4084540000000  0.4716050000000 1.0
C      1  0.5720780000000  0.4229940000000  0.4712240000000 1.0
C      1  0.5263780000000  0.4351830000000  0.4558360000000 1.0
C      1  0.5692610000000  0.5036840000000  0.4564240000000 1.0
C      1  0.5167310000000  0.5663640000000  0.4569770000000 1.0
C      1  0.4420100000000  0.5364040000000  0.4571470000000 1.0
C      1  0.4476760000000  0.4557920000000  0.4570990000000 1.0
C      1  0.5660670000000  0.4938760000000  0.4269620000000 1.0
C      1  0.5261350000000  0.5606200000000  0.4279020000000 1.0
C      1  0.4500120000000  0.5434130000000  0.4278620000000 1.0
C      1  0.4433070000000  0.4656120000000  0.4279020000000 1.0
C      1  0.5148520000000  0.4347180000000  0.4268430000000 1.0
C      1  0.4604000000000  0.4725850000000  0.5845750000000 1.0
C      1  0.5138620000000  0.4541500000000  0.5841120000000 1.0
C      1  0.5482130000000  0.4991880000000  0.5848530000000 1.0
C      1  0.5157160000000  0.5460430000000  0.5855540000000 1.0
C      1  0.4611850000000  0.5293620000000  0.5854420000000 1.0
C      1  0.4482300000000  0.4241600000000  0.5325690000000 1.0
C      1  0.5561470000000  0.4274130000000  0.5322060000000 1.0
C      1  0.5869430000000  0.5311800000000  0.5330080000000 1.0
C      1  0.4969900000000  0.5931650000000  0.5339090000000 1.0
C      1  0.4110500000000  0.5260220000000  0.5335130000000 1.0
C      1  0.4396540000000  0.5832550000000  0.4649760000000 1.0
C      1  0.4022200000000  0.4681750000000  0.4647600000000 1.0
C      1  0.5003490000000  0.3967260000000  0.4643980000000 1.0
C      1  0.5995650000000  0.4668620000000  0.4642620000000 1.0
C      1  0.5603260000000  0.5825820000000  0.4647500000000 1.0
C      1  0.5201290000000  0.4812240000000  0.4592260000000 1.0
C      1  0.5230550000000  0.5111120000000  0.4504480000000 1.0
C      1  0.4948560000000  0.5235660000000  0.4521030000000 1.0
C      1  0.4749180000000  0.5005080000000  0.4513940000000 1.0
C      1  0.4916060000000  0.4746570000000  0.4496530000000 1.0
C      1  0.5008410000000  0.5523530000000  0.4124990000000 1.0
C      1  0.4500980000000  0.5167240000000  0.4125200000000 1.0
C      1  0.4681960000000  0.4570130000000  0.4118720000000 1.0
C      1  0.5302970000000  0.4564090000000  0.4112200000000 1.0
C      1  0.5503170000000  0.5153220000000  0.4120210000000 1.0
C      1  0.5844120000000  0.5758350000000  0.5072730000000 1.0
C      1  0.4532690000000  0.6042400000000  0.5077440000000 1.0
C      1  0.3873530000000  0.4877710000000  0.5076690000000 1.0
C      1  0.4771380000000  0.3896410000000  0.5074300000000 1.0
C      1  0.5982460000000  0.4431100000000  0.5074080000000 1.0
C      1  0.6066650000000  0.5188420000000  0.5173940000000 1.0
C      1  0.5148700000000  0.6079120000000  0.5181300000000 1.0
C      1  0.4017690000000  0.5475680000000  0.5182050000000 1.0
C      1  0.4246110000000  0.4212170000000  0.5178190000000 1.0
C      1  0.5517280000000  0.4040210000000  0.5174620000000 1.0
C      1  0.4852220000000  0.4799550000000  0.4062870000000 1.0
C      1  0.5139690000000  0.4793270000000  0.4036550000000 1.0
C      1  0.5231480000000  0.5066090000000  0.4066170000000 1.0
C      1  0.5003320000000  0.5238220000000  0.4079980000000 1.0
C      1  0.4769820000000  0.5074460000000  0.4075770000000 1.0
C      1  0.4714550000000  0.5590470000000  0.5079550000000 1.0
C      1  0.4363510000000  0.4916930000000  0.5071090000000 1.0
C      1  0.4887230000000  0.4376350000000  0.5059910000000 1.0
C      1  0.5564940000000  0.4696010000000  0.5052170000000 1.0
C      1  0.5463980000000  0.5452020000000  0.5074760000000 1.0
C      1  0.5422430000000  0.5511850000000  0.4769640000000 1.0
C      1  0.4642570000000  0.5566900000000  0.4772120000000 1.0
C      1  0.4351180000000  0.4833130000000  0.4770080000000 1.0
C      1  0.4963690000000  0.4328610000000  0.4762640000000 1.0
C      1  0.5637250000000  0.4738920000000  0.4754250000000 1.0
C      1  0.5387480000000  0.5684000000000  0.5528560000000 1.0
C      1  0.4468960000000  0.5584510000000  0.5531710000000 1.0
C      1  0.4283960000000  0.4680350000000  0.5525660000000 1.0
C      1  0.5083510000000  0.4224750000000  0.5519260000000 1.0
C      1  0.5763060000000  0.4841190000000  0.5519030000000 1.0
C      1  0.5603860000000  0.5858010000000  0.5459020000000 1.0
C      1  0.4366840000000  0.5843010000000  0.5462610000000 1.0
C      1  0.4006740000000  0.4663610000000  0.5456070000000 1.0
C      1  0.5012770000000  0.3956240000000  0.5449890000000 1.0
C      1  0.5995060000000  0.4688850000000  0.5451430000000 1.0
C      1  0.4762430000000  0.5600410000000  0.4290040000000 1.0
C      1  0.4357940000000  0.4957290000000  0.4293730000000 1.0
C      1  0.4837920000000  0.4364890000000  0.4286780000000 1.0
C      1  0.5538210000000  0.4656410000000  0.4281030000000 1.0
C      1  0.5495700000000  0.5402420000000  0.4296600000000 1.0
C      1  0.5579680000000  0.4739970000000  0.5725810000000 1.0
C      1  0.5427700000000  0.5476160000000  0.5734240000000 1.0
C      1  0.4678090000000  0.5558680000000  0.5739020000000 1.0
C      1  0.4372020000000  0.4870640000000  0.5733310000000 1.0
C      1  0.4929460000000  0.4367550000000  0.5725860000000 1.0
C      1  0.4592920000000  0.6003010000000  0.4789510000000 1.0
C      1  0.3921500000000  0.4921360000000  0.4787540000000 1.0
C      1  0.4744230000000  0.3949020000000  0.4784280000000 1.0
C      1  0.5930960000000  0.4415210000000  0.4782240000000 1.0
C      1  0.5824670000000  0.5687840000000  0.4785460000000 1.0
C      1  0.4725090000000  0.5063570000000  0.5405850000000 1.0
C      1  0.4859290000000  0.4764560000000  0.5395390000000 1.0
C      1  0.5185590000000  0.4797900000000  0.5393680000000 1.0
C      1  0.5250050000000  0.5118400000000  0.5405680000000 1.0
C      1  0.4966780000000  0.5282650000000  0.5411790000000 1.0
C      1  0.5693480000000  0.5547640000000  0.5244650000000 1.0
C      1  0.4690780000000  0.5836940000000  0.5250160000000 1.0
C      1  0.4120220000000  0.4967140000000  0.5243270000000 1.0
C      1  0.4763620000000  0.4161880000000  0.5234930000000 1.0
C      1  0.5726460000000  0.4514470000000  0.5232110000000 1.0
C      1  0.5473410000000  0.5196600000000  0.5630370000000 1.0
C      1  0.4959530000000  0.5516910000000  0.5638040000000 1.0
C      1  0.4499160000000  0.5125240000000  0.5633820000000 1.0
C      1  0.4729350000000  0.4567900000000  0.5623910000000 1.0
C      1  0.5328990000000  0.4611620000000  0.5620850000000 1.0
END
