TITL C-3578207-9274-14 2.10547257392652e-07 125000 -302.206120314581 0 0 50 (C1) n - 1
REM
REM in /home/bkarasulu/work/CARBON/AIRSS/Generating-Clusters/EDIP-Nigel-Params/with-SteepDescent/Higher-Symm/SD-CG/HFTN-CG
REM
REM
REM
REM
REM
REM ./C.cell (12c818d87b63d06a65506943cc24bca4)
REM
REM compiler GCC version 9.2.1 20190827 (Red Hat 9.2.1-1)
REM options -cpp -mtune=generic -march=x86-64 -g -O0 -fpre-include=/usr/include/finclude/math-vector-fortran.h
REM seed -1208507554 1676867330 -1706855002 -704329443 -89368521 -1060067412 -1888820895 -812203946 -1127801197 -512140687 -163976754 -491211341 -2058121558 1868245385 -70856482 -197179864 784901464 1463344082 117312680 1094682344 -187853354 -915798947 -1956419395 1142795567 -1931735561 -1955192266 -1815517314 -1496479402 -632388194 759365639 2141656276 -780839876 -1987200835
REM
CELL 1.54180   50.00000   50.00000   50.00000   90.00000   90.00000   90.00000
LATT -1
SFAC C  
C      1  0.4551300000000  0.5583020000000  0.5240450000000 1.0
C      1  0.5062420000000  0.5525970000000  0.5283290000000 1.0
C      1  0.5536150000000  0.5159990000000  0.5314040000000 1.0
C      1  0.5465410000000  0.4668020000000  0.5337220000000 1.0
C      1  0.4920800000000  0.4413350000000  0.5329700000000 1.0
C      1  0.4449460000000  0.4826800000000  0.5279050000000 1.0
C      1  0.4473140000000  0.5506830000000  0.4671300000000 1.0
C      1  0.5036250000000  0.5514280000000  0.4702190000000 1.0
C      1  0.5620720000000  0.5197760000000  0.4684650000000 1.0
C      1  0.5473900000000  0.4677650000000  0.4684520000000 1.0
C      1  0.4928680000000  0.4373910000000  0.4663170000000 1.0
C      1  0.4353990000000  0.4827330000000  0.4694940000000 1.0
C      1  0.4529390000000  0.4613940000000  0.4802810000000 1.0
C      1  0.4566760000000  0.5264580000000  0.4805960000000 1.0
C      1  0.4792100000000  0.5631360000000  0.4852550000000 1.0
C      1  0.5450690000000  0.5343390000000  0.4862710000000 1.0
C      1  0.5364640000000  0.4909860000000  0.4886830000000 1.0
C      1  0.5130670000000  0.4443350000000  0.4881960000000 1.0
C      1  0.4622600000000  0.4674770000000  0.5079330000000 1.0
C      1  0.4582990000000  0.5287190000000  0.5198090000000 1.0
C      1  0.4827730000000  0.5664480000000  0.5158150000000 1.0
C      1  0.5522750000000  0.5403640000000  0.5137900000000 1.0
C      1  0.5531470000000  0.4898630000000  0.5149510000000 1.0
C      1  0.5143840000000  0.4311350000000  0.5159810000000 1.0
C      1  0.4358600000000  0.5716290000000  0.5082410000000 1.0
C      1  0.5321180000000  0.5611520000000  0.5189470000000 1.0
C      1  0.5801390000000  0.4977470000000  0.5091610000000 1.0
C      1  0.5422670000000  0.4407470000000  0.5213330000000 1.0
C      1  0.4679660000000  0.4390870000000  0.5161730000000 1.0
C      1  0.4355390000000  0.5085150000000  0.5150720000000 1.0
C      1  0.4480470000000  0.5742960000000  0.4830670000000 1.0
C      1  0.5292460000000  0.5578800000000  0.4803960000000 1.0
C      1  0.5819510000000  0.5062750000000  0.4827610000000 1.0
C      1  0.5418840000000  0.4426020000000  0.4825590000000 1.0
C      1  0.4667170000000  0.4341000000000  0.4784890000000 1.0
C      1  0.4324280000000  0.5077640000000  0.4845200000000 1.0
C      1  0.5269030000000  0.5097680000000  0.5451580000000 1.0
C      1  0.5232030000000  0.4804610000000  0.5470680000000 1.0
C      1  0.4956140000000  0.4717920000000  0.5377070000000 1.0
C      1  0.4688410000000  0.4887400000000  0.5474850000000 1.0
C      1  0.4757980000000  0.5171160000000  0.5413140000000 1.0
C      1  0.5033750000000  0.5250380000000  0.5369570000000 1.0
C      1  0.5281110000000  0.5086830000000  0.4546130000000 1.0
C      1  0.5252520000000  0.4784050000000  0.4485710000000 1.0
C      1  0.4960940000000  0.4666750000000  0.4536850000000 1.0
C      1  0.4708850000000  0.4848290000000  0.4550290000000 1.0
C      1  0.4768930000000  0.5120250000000  0.4639020000000 1.0
C      1  0.5029140000000  0.5237040000000  0.4615200000000 1.0
C      1  0.5089840000000  0.4747610000000  0.4893250000000 1.0
C      1  0.4893670000000  0.4820140000000  0.5090660000000 1.0
END
