TITL C-3578194-7807-567 -5.32493994203572e-07 125000 -379.165983323887 0 0 64 (C2) n - 1
REM
REM in /home/bkarasulu/work/CARBON/AIRSS/Generating-Clusters/EDIP-Nigel-Params/with-SteepDescent/Higher-Symm/SD-CG/HFTN-CG
REM
REM
REM
REM
REM
REM ./C.cell (12c818d87b63d06a65506943cc24bca4)
REM
REM compiler GCC version 9.2.1 20190827 (Red Hat 9.2.1-1)
REM options -cpp -mtune=generic -march=x86-64 -g -O0 -fpre-include=/usr/include/finclude/math-vector-fortran.h
REM seed -1296779367 210075115 -460923014 -261207563 -1102212501 1391745161 1970305281 -1862089577 1032804354 1667489104 400725440 -1066638279 -643989978 -1356327398 175718296 -1890142764 1011000145 -970777174 -1025201104 1487361573 889904437 -2058480231 1085597485 820636461 1375543096 -2146171588 -1996579874 -431183588 2056329538 -873505688 -1043703212 -260821030 1757662396
REM
CELL 1.54180   50.00000   50.00000   50.00000   90.00000   90.00000   90.00000
LATT -1
SFAC C  
C      1  0.5168030000000  0.5772250000000  0.5179620000000 1.0
C      1  0.4864030000000  0.4240400000000  0.5142720000000 1.0
C      1  0.4863990000000  0.5759600000000  0.4857300000000 1.0
C      1  0.5168010000000  0.4227760000000  0.4820350000000 1.0
C      1  0.5751300000000  0.5167820000000  0.5142050000000 1.0
C      1  0.4234140000000  0.4845960000000  0.5157590000000 1.0
C      1  0.5751280000000  0.4832190000000  0.4857820000000 1.0
C      1  0.4234110000000  0.5154030000000  0.4842550000000 1.0
C      1  0.4878990000000  0.5318910000000  0.4893420000000 1.0
C      1  0.5063210000000  0.4729280000000  0.4870160000000 1.0
C      1  0.5063230000000  0.5270720000000  0.5129830000000 1.0
C      1  0.4879020000000  0.4681090000000  0.5106600000000 1.0
C      1  0.5315670000000  0.4897550000000  0.4875220000000 1.0
C      1  0.4662900000000  0.5098460000000  0.4874030000000 1.0
C      1  0.5315690000000  0.5102460000000  0.5124730000000 1.0
C      1  0.4662920000000  0.4901530000000  0.5126030000000 1.0
C      1  0.5277010000000  0.5749630000000  0.4585180000000 1.0
C      1  0.4690440000000  0.4298580000000  0.4674530000000 1.0
C      1  0.4690490000000  0.5701410000000  0.5325530000000 1.0
C      1  0.5277100000000  0.4250370000000  0.5414770000000 1.0
C      1  0.5741320000000  0.5293410000000  0.4594680000000 1.0
C      1  0.4260540000000  0.4672330000000  0.4623030000000 1.0
C      1  0.5741400000000  0.4706590000000  0.5405190000000 1.0
C      1  0.4260610000000  0.5327660000000  0.5377100000000 1.0
C      1  0.4243670000000  0.4844060000000  0.4843850000000 1.0
C      1  0.5750780000000  0.5140730000000  0.4830510000000 1.0
C      1  0.5750820000000  0.4859270000000  0.5169350000000 1.0
C      1  0.4243700000000  0.5155930000000  0.5156290000000 1.0
C      1  0.4895310000000  0.4318070000000  0.4866780000000 1.0
C      1  0.5141920000000  0.5848420000000  0.4807470000000 1.0
C      1  0.4895330000000  0.5681930000000  0.5133240000000 1.0
C      1  0.5141960000000  0.4151580000000  0.5192500000000 1.0
C      1  0.5569990000000  0.4655010000000  0.4703040000000 1.0
C      1  0.4407760000000  0.5327810000000  0.4672030000000 1.0
C      1  0.4407820000000  0.4672180000000  0.5328080000000 1.0
C      1  0.5570040000000  0.5345000000000  0.5296860000000 1.0
C      1  0.4701480000000  0.5587940000000  0.4672390000000 1.0
C      1  0.5327120000000  0.4361810000000  0.4623950000000 1.0
C      1  0.4701540000000  0.4412060000000  0.5327660000000 1.0
C      1  0.5327180000000  0.5638190000000  0.5375990000000 1.0
C      1  0.5305220000000  0.5031310000000  0.4580210000000 1.0
C      1  0.4695450000000  0.4968270000000  0.4583030000000 1.0
C      1  0.4695520000000  0.5031720000000  0.5417020000000 1.0
C      1  0.5305300000000  0.4968700000000  0.5419740000000 1.0
C      1  0.5032900000000  0.5306130000000  0.4622650000000 1.0
C      1  0.4973440000000  0.4701950000000  0.4580510000000 1.0
C      1  0.5032970000000  0.4693870000000  0.5377350000000 1.0
C      1  0.4973510000000  0.5298050000000  0.5419490000000 1.0
C      1  0.5471270000000  0.4715870000000  0.5480160000000 1.0
C      1  0.4513430000000  0.5270310000000  0.5488430000000 1.0
C      1  0.4513340000000  0.4729690000000  0.4511660000000 1.0
C      1  0.5471170000000  0.5284140000000  0.4519760000000 1.0
C      1  0.4725080000000  0.5468780000000  0.5479670000000 1.0
C      1  0.5280900000000  0.4527140000000  0.5379490000000 1.0
C      1  0.4725000000000  0.4531220000000  0.4520380000000 1.0
C      1  0.5280830000000  0.5472860000000  0.4620460000000 1.0
C      1  0.5430290000000  0.5218250000000  0.5537370000000 1.0
C      1  0.4590600000000  0.4778870000000  0.5547680000000 1.0
C      1  0.4590500000000  0.5221130000000  0.4452390000000 1.0
C      1  0.5430190000000  0.4781760000000  0.4462550000000 1.0
C      1  0.5219480000000  0.5426990000000  0.5551750000000 1.0
C      1  0.4816240000000  0.4582700000000  0.5557890000000 1.0
C      1  0.5219380000000  0.4573010000000  0.4448210000000 1.0
C      1  0.4816130000000  0.5417290000000  0.4442140000000 1.0
END
