TITL C-3577090-796-572 -3.44993188122047e-06 125000 -946.964187833395 0 0 152 (C1) n - 1
REM
REM in /home/bkarasulu/work/CARBON/AIRSS/Generating-Clusters/EDIP-Nigel-Params/with-SteepDescent/Higher-Symm/SD-CG/HFTN-CG
REM
REM
REM
REM
REM
REM ./C.cell (12c818d87b63d06a65506943cc24bca4)
REM
REM compiler GCC version 9.2.1 20190827 (Red Hat 9.2.1-1)
REM options -cpp -mtune=generic -march=x86-64 -g -O0 -fpre-include=/usr/include/finclude/math-vector-fortran.h
REM seed -419422127 2001391372 -1314984370 1459964975 1279977434 -2052939695 1956754814 1393421074 -664779735 1628471704 -46490339 -958941358 1610429241 -1722402498 -55381331 -214818797 -1356608601 946072674 -2046063342 -318076557 2058574167 1415505277 1624285405 1019595318 195392782 1503457873 216449836 1028769226 -43674128 1873774769 -1540443362 1947830285 247870852
REM
CELL 1.54180   50.00000   50.00000   50.00000   90.00000   90.00000   90.00000
LATT -1
SFAC C  
C      1  0.4749660000000  0.5129180000000  0.5683090000000 1.0
C      1  0.4370970000000  0.5002770000000  0.5093100000000 1.0
C      1  0.4629070000000  0.5035330000000  0.4453270000000 1.0
C      1  0.5205450000000  0.4947220000000  0.4349340000000 1.0
C      1  0.5651340000000  0.5038930000000  0.4870950000000 1.0
C      1  0.5174830000000  0.4892080000000  0.5565370000000 1.0
C      1  0.5566120000000  0.5120110000000  0.5762090000000 1.0
C      1  0.4565470000000  0.4847800000000  0.5976030000000 1.0
C      1  0.3966200000000  0.5173630000000  0.5088590000000 1.0
C      1  0.4369420000000  0.4818640000000  0.4167380000000 1.0
C      1  0.5419740000000  0.5161500000000  0.4043150000000 1.0
C      1  0.6034290000000  0.4822050000000  0.4905120000000 1.0
C      1  0.5369280000000  0.5614350000000  0.5694520000000 1.0
C      1  0.4550890000000  0.4348960000000  0.5728970000000 1.0
C      1  0.4218130000000  0.5623840000000  0.4967550000000 1.0
C      1  0.4632750000000  0.4349890000000  0.4289920000000 1.0
C      1  0.5433280000000  0.5628550000000  0.4313180000000 1.0
C      1  0.5807000000000  0.4345990000000  0.5012340000000 1.0
C      1  0.5853570000000  0.4330090000000  0.4723260000000 1.0
C      1  0.5606410000000  0.5637770000000  0.5531350000000 1.0
C      1  0.4789460000000  0.4305340000000  0.5897810000000 1.0
C      1  0.4166240000000  0.5677490000000  0.5253180000000 1.0
C      1  0.4401480000000  0.4323250000000  0.4461580000000 1.0
C      1  0.5196190000000  0.5665570000000  0.4144650000000 1.0
C      1  0.4932620000000  0.5152530000000  0.5228430000000 1.0
C      1  0.4854110000000  0.4867830000000  0.5132910000000 1.0
C      1  0.4715070000000  0.5230030000000  0.4851050000000 1.0
C      1  0.5110670000000  0.4843880000000  0.4775580000000 1.0
C      1  0.5140740000000  0.5129960000000  0.4901930000000 1.0
C      1  0.5265170000000  0.4778900000000  0.5122850000000 1.0
C      1  0.4623320000000  0.4636280000000  0.4176930000000 1.0
C      1  0.5522870000000  0.5340480000000  0.4267810000000 1.0
C      1  0.5874210000000  0.4639850000000  0.5092150000000 1.0
C      1  0.5365480000000  0.5336530000000  0.5819860000000 1.0
C      1  0.4501030000000  0.4663290000000  0.5733260000000 1.0
C      1  0.4139360000000  0.5329670000000  0.4900570000000 1.0
C      1  0.5008090000000  0.4165950000000  0.5739430000000 1.0
C      1  0.4367960000000  0.5854520000000  0.5381400000000 1.0
C      1  0.4411910000000  0.4138080000000  0.4694690000000 1.0
C      1  0.4988110000000  0.5844880000000  0.4258760000000 1.0
C      1  0.5654690000000  0.4163770000000  0.4580320000000 1.0
C      1  0.5565170000000  0.5807980000000  0.5299480000000 1.0
C      1  0.5170140000000  0.5329860000000  0.4686910000000 1.0
C      1  0.5449430000000  0.4603940000000  0.4976350000000 1.0
C      1  0.5175870000000  0.5181760000000  0.5425580000000 1.0
C      1  0.4727260000000  0.4738390000000  0.5405930000000 1.0
C      1  0.4557670000000  0.5429180000000  0.5009210000000 1.0
C      1  0.4876920000000  0.4710050000000  0.4626610000000 1.0
C      1  0.5558990000000  0.5542560000000  0.4827180000000 1.0
C      1  0.5365850000000  0.4443710000000  0.5472930000000 1.0
C      1  0.4846170000000  0.5583300000000  0.5611000000000 1.0
C      1  0.4475720000000  0.4497920000000  0.5146920000000 1.0
C      1  0.4579380000000  0.5521210000000  0.4481950000000 1.0
C      1  0.5167170000000  0.4453220000000  0.4416160000000 1.0
C      1  0.5183350000000  0.5969490000000  0.5029170000000 1.0
C      1  0.5016980000000  0.4069190000000  0.5224150000000 1.0
C      1  0.4853510000000  0.5937880000000  0.5243290000000 1.0
C      1  0.4769840000000  0.4109890000000  0.5037150000000 1.0
C      1  0.4917300000000  0.5856570000000  0.4763360000000 1.0
C      1  0.5215150000000  0.4075590000000  0.4722860000000 1.0
C      1  0.5803460000000  0.4754180000000  0.5355690000000 1.0
C      1  0.5112830000000  0.5234430000000  0.5921730000000 1.0
C      1  0.4308730000000  0.4790770000000  0.5546540000000 1.0
C      1  0.4172400000000  0.5213200000000  0.4632740000000 1.0
C      1  0.4870050000000  0.4745930000000  0.4053800000000 1.0
C      1  0.5747600000000  0.5239540000000  0.4423820000000 1.0
C      1  0.5162420000000  0.4655890000000  0.5372640000000 1.0
C      1  0.4698330000000  0.5226600000000  0.5401580000000 1.0
C      1  0.4627480000000  0.4955960000000  0.4928710000000 1.0
C      1  0.4749560000000  0.5270550000000  0.4557880000000 1.0
C      1  0.5328190000000  0.4825200000000  0.4589230000000 1.0
C      1  0.5423930000000  0.5170930000000  0.5012800000000 1.0
C      1  0.5318990000000  0.4207300000000  0.5226400000000 1.0
C      1  0.4887500000000  0.5885840000000  0.5543920000000 1.0
C      1  0.4517960000000  0.4185740000000  0.5198280000000 1.0
C      1  0.4639170000000  0.5741040000000  0.4705770000000 1.0
C      1  0.5115180000000  0.4156760000000  0.4461560000000 1.0
C      1  0.5454890000000  0.5913620000000  0.4853030000000 1.0
C      1  0.5801140000000  0.4593750000000  0.4600070000000 1.0
C      1  0.5673880000000  0.5374840000000  0.5419600000000 1.0
C      1  0.4933980000000  0.4559130000000  0.5939120000000 1.0
C      1  0.4212560000000  0.5419690000000  0.5386950000000 1.0
C      1  0.4346170000000  0.4592890000000  0.4569600000000 1.0
C      1  0.5043330000000  0.5412580000000  0.4147860000000 1.0
C      1  0.4259070000000  0.4266340000000  0.4919880000000 1.0
C      1  0.4711550000000  0.5734950000000  0.4208170000000 1.0
C      1  0.5516690000000  0.4313210000000  0.4360140000000 1.0
C      1  0.5715090000000  0.5701910000000  0.5051810000000 1.0
C      1  0.5269120000000  0.4321500000000  0.5740460000000 1.0
C      1  0.4486540000000  0.5711630000000  0.5615410000000 1.0
C      1  0.5097430000000  0.4960720000000  0.6040720000000 1.0
C      1  0.4157990000000  0.5030860000000  0.5621200000000 1.0
C      1  0.4053280000000  0.4942450000000  0.4578810000000 1.0
C      1  0.4872250000000  0.5030670000000  0.3955090000000 1.0
C      1  0.5855460000000  0.4976260000000  0.4360740000000 1.0
C      1  0.5930750000000  0.5015640000000  0.5423000000000 1.0
C      1  0.5568870000000  0.4758830000000  0.4747700000000 1.0
C      1  0.5439950000000  0.5215570000000  0.5293670000000 1.0
C      1  0.4888510000000  0.4841390000000  0.5668470000000 1.0
C      1  0.4448820000000  0.5266040000000  0.5245220000000 1.0
C      1  0.4606830000000  0.4811630000000  0.4649050000000 1.0
C      1  0.5043040000000  0.5249000000000  0.4427840000000 1.0
C      1  0.4312370000000  0.4740230000000  0.5258210000000 1.0
C      1  0.4316980000000  0.5346900000000  0.4410610000000 1.0
C      1  0.5133310000000  0.4681190000000  0.4184270000000 1.0
C      1  0.5750600000000  0.5297150000000  0.4717160000000 1.0
C      1  0.5603320000000  0.4640970000000  0.5547930000000 1.0
C      1  0.4857410000000  0.5370210000000  0.5859730000000 1.0
C      1  0.5873390000000  0.5466900000000  0.5218780000000 1.0
C      1  0.5219900000000  0.4502990000000  0.5975320000000 1.0
C      1  0.4296580000000  0.5488770000000  0.5660580000000 1.0
C      1  0.4193910000000  0.4541450000000  0.4811290000000 1.0
C      1  0.4764750000000  0.5475840000000  0.4082920000000 1.0
C      1  0.5712880000000  0.4528130000000  0.4326370000000 1.0
C      1  0.5289780000000  0.5887590000000  0.5298360000000 1.0
C      1  0.4884480000000  0.4080730000000  0.5488090000000 1.0
C      1  0.4536620000000  0.5962300000000  0.5157420000000 1.0
C      1  0.4691850000000  0.4063000000000  0.4746430000000 1.0
C      1  0.5093660000000  0.5885770000000  0.4530030000000 1.0
C      1  0.5494160000000  0.4034750000000  0.4789250000000 1.0
C      1  0.3998340000000  0.4883400000000  0.5079400000000 1.0
C      1  0.4447140000000  0.5109410000000  0.4230500000000 1.0
C      1  0.5449680000000  0.4865980000000  0.4061510000000 1.0
C      1  0.6022650000000  0.5116480000000  0.4928590000000 1.0
C      1  0.5442250000000  0.4849680000000  0.5721760000000 1.0
C      1  0.4545520000000  0.5143320000000  0.5920000000000 1.0
C      1  0.5385150000000  0.5834250000000  0.4553650000000 1.0
C      1  0.5597370000000  0.4111980000000  0.5069460000000 1.0
C      1  0.5170690000000  0.5913390000000  0.5562610000000 1.0
C      1  0.4600230000000  0.4157740000000  0.5491360000000 1.0
C      1  0.4433780000000  0.5829700000000  0.4892090000000 1.0
C      1  0.4812140000000  0.4149780000000  0.4470220000000 1.0
C      1  0.5330480000000  0.4773900000000  0.5982720000000 1.0
C      1  0.4288520000000  0.5226240000000  0.5799710000000 1.0
C      1  0.4001440000000  0.4762820000000  0.4817840000000 1.0
C      1  0.4636100000000  0.5213420000000  0.4019290000000 1.0
C      1  0.5700530000000  0.4788680000000  0.4194380000000 1.0
C      1  0.6020740000000  0.5208870000000  0.5203600000000 1.0
C      1  0.5258910000000  0.4367170000000  0.4965390000000 1.0
C      1  0.5104890000000  0.5507480000000  0.5433570000000 1.0
C      1  0.4835350000000  0.4466460000000  0.5284970000000 1.0
C      1  0.4765320000000  0.5645470000000  0.5113260000000 1.0
C      1  0.4906830000000  0.4441270000000  0.4706790000000 1.0
C      1  0.5181590000000  0.5580800000000  0.4840620000000 1.0
C      1  0.5843300000000  0.5154490000000  0.5670220000000 1.0
C      1  0.4830910000000  0.4788730000000  0.6100480000000 1.0
C      1  0.3980630000000  0.5238130000000  0.5375050000000 1.0
C      1  0.4172020000000  0.4740450000000  0.4376550000000 1.0
C      1  0.5138880000000  0.5215530000000  0.3951200000000 1.0
C      1  0.6034860000000  0.4773160000000  0.4613470000000 1.0
C      1  0.4986550000000  0.4492240000000  0.4997020000000 1.0
C      1  0.5049340000000  0.5561300000000  0.5123810000000 1.0
END
