TITL C-3578206-1180-337 -3.61037220629015e-06 125000 -1004.74579749432 0 0 161 (C1) n - 1
REM
REM in /home/bkarasulu/work/CARBON/AIRSS/Generating-Clusters/EDIP-Nigel-Params/with-SteepDescent/Higher-Symm/SD-CG/HFTN-CG
REM
REM
REM
REM
REM
REM ./C.cell (12c818d87b63d06a65506943cc24bca4)
REM
REM compiler GCC version 9.2.1 20190827 (Red Hat 9.2.1-1)
REM options -cpp -mtune=generic -march=x86-64 -g -O0 -fpre-include=/usr/include/finclude/math-vector-fortran.h
REM seed 1370940881 1125929761 -1348322122 -1152846597 1459200200 -200889991 993748335 -483452805 -1908630347 1419623379 -1976647526 -1506036757 1208794496 -671451194 -1435831044 1151088597 2141049884 1465970194 -2046186748 -28959902 60221839 1257216211 1699447699 858927128 1292864233 1966049809 -746899876 528966051 1418170565 -697919290 -926535771 1440341319 -1103199955
REM
CELL 1.54180   50.00000   50.00000   50.00000   90.00000   90.00000   90.00000
LATT -1
SFAC C  
C      1  0.4092380000000  0.4900060000000  0.5262750000000 1.0
C      1  0.4787550000000  0.4077870000000  0.5271580000000 1.0
C      1  0.5757390000000  0.4502470000000  0.5216820000000 1.0
C      1  0.5685990000000  0.5564500000000  0.5230590000000 1.0
C      1  0.4663530000000  0.5807790000000  0.5192110000000 1.0
C      1  0.5250220000000  0.5613400000000  0.5975310000000 1.0
C      1  0.4495650000000  0.5463640000000  0.5997590000000 1.0
C      1  0.4424780000000  0.4690190000000  0.6022860000000 1.0
C      1  0.5123530000000  0.4354990000000  0.5973880000000 1.0
C      1  0.5583090000000  0.4926180000000  0.5988230000000 1.0
C      1  0.5492620000000  0.5350260000000  0.5245620000000 1.0
C      1  0.4811230000000  0.5560580000000  0.5210510000000 1.0
C      1  0.4365480000000  0.4978870000000  0.5321430000000 1.0
C      1  0.4797980000000  0.4374420000000  0.5295920000000 1.0
C      1  0.5497690000000  0.4625150000000  0.5241340000000 1.0
C      1  0.4420380000000  0.5589260000000  0.5734140000000 1.0
C      1  0.4254680000000  0.4625220000000  0.5785860000000 1.0
C      1  0.5103240000000  0.4197320000000  0.5721280000000 1.0
C      1  0.5690060000000  0.4829520000000  0.5726700000000 1.0
C      1  0.5356410000000  0.5697710000000  0.5708770000000 1.0
C      1  0.5262330000000  0.5846790000000  0.5205660000000 1.0
C      1  0.4276030000000  0.5489320000000  0.5244900000000 1.0
C      1  0.4258640000000  0.4406350000000  0.5280910000000 1.0
C      1  0.5279890000000  0.4143710000000  0.5239820000000 1.0
C      1  0.5898140000000  0.4988820000000  0.5241080000000 1.0
C      1  0.4315300000000  0.4879880000000  0.4186040000000 1.0
C      1  0.4918140000000  0.4334220000000  0.4186590000000 1.0
C      1  0.5668920000000  0.4762040000000  0.4102290000000 1.0
C      1  0.5498860000000  0.5599220000000  0.4118160000000 1.0
C      1  0.4668510000000  0.5613470000000  0.4108030000000 1.0
C      1  0.5630720000000  0.5607850000000  0.5740100000000 1.0
C      1  0.4617600000000  0.5803610000000  0.5716920000000 1.0
C      1  0.4111820000000  0.4889210000000  0.5777880000000 1.0
C      1  0.4799120000000  0.4196530000000  0.5710210000000 1.0
C      1  0.5759480000000  0.4549600000000  0.5720530000000 1.0
C      1  0.5087160000000  0.5382890000000  0.3928650000000 1.0
C      1  0.4670420000000  0.5138080000000  0.3947420000000 1.0
C      1  0.4748510000000  0.4762430000000  0.3959400000000 1.0
C      1  0.5232520000000  0.4644630000000  0.3972900000000 1.0
C      1  0.5373680000000  0.5133550000000  0.3925010000000 1.0
C      1  0.5221460000000  0.5417030000000  0.5167850000000 1.0
C      1  0.4663610000000  0.5313610000000  0.5134330000000 1.0
C      1  0.4529650000000  0.4753400000000  0.5311300000000 1.0
C      1  0.5036130000000  0.4500470000000  0.5154750000000 1.0
C      1  0.5472460000000  0.4914480000000  0.5180450000000 1.0
C      1  0.5707980000000  0.4946500000000  0.4586040000000 1.0
C      1  0.5136470000000  0.5661290000000  0.4572230000000 1.0
C      1  0.4497460000000  0.5301190000000  0.4586560000000 1.0
C      1  0.4592920000000  0.4623100000000  0.4685070000000 1.0
C      1  0.5365230000000  0.4584120000000  0.4652780000000 1.0
C      1  0.4911500000000  0.5584400000000  0.5496340000000 1.0
C      1  0.4365240000000  0.5117900000000  0.5584960000000 1.0
C      1  0.4713570000000  0.4465840000000  0.5575750000000 1.0
C      1  0.5427210000000  0.4542700000000  0.5523970000000 1.0
C      1  0.5532580000000  0.5254430000000  0.5524570000000 1.0
C      1  0.3983810000000  0.4960960000000  0.5529900000000 1.0
C      1  0.4711380000000  0.3975210000000  0.5535320000000 1.0
C      1  0.5780840000000  0.4389090000000  0.5489390000000 1.0
C      1  0.5787230000000  0.5548520000000  0.5511180000000 1.0
C      1  0.4706540000000  0.5913340000000  0.5469000000000 1.0
C      1  0.4788590000000  0.4854350000000  0.5312130000000 1.0
C      1  0.5045480000000  0.4731240000000  0.5365390000000 1.0
C      1  0.5220610000000  0.4959240000000  0.5319260000000 1.0
C      1  0.5081370000000  0.5201550000000  0.5314300000000 1.0
C      1  0.4804420000000  0.5134480000000  0.5321270000000 1.0
C      1  0.5548860000000  0.5821810000000  0.5139600000000 1.0
C      1  0.4375580000000  0.5741280000000  0.5120980000000 1.0
C      1  0.4075710000000  0.4610780000000  0.5159230000000 1.0
C      1  0.5051220000000  0.3976380000000  0.5162460000000 1.0
C      1  0.5959960000000  0.4713120000000  0.5142420000000 1.0
C      1  0.5199020000000  0.4220550000000  0.4228610000000 1.0
C      1  0.5894870000000  0.4925280000000  0.4154410000000 1.0
C      1  0.5333460000000  0.5822270000000  0.4141290000000 1.0
C      1  0.4402620000000  0.5577690000000  0.4183120000000 1.0
C      1  0.4283400000000  0.4632930000000  0.4307160000000 1.0
C      1  0.4551590000000  0.5166520000000  0.5985190000000 1.0
C      1  0.4721390000000  0.4646620000000  0.5982210000000 1.0
C      1  0.5277350000000  0.4611270000000  0.5929670000000 1.0
C      1  0.5393670000000  0.5156110000000  0.5979830000000 1.0
C      1  0.4984430000000  0.5473310000000  0.5972710000000 1.0
C      1  0.4593680000000  0.4076230000000  0.5043110000000 1.0
C      1  0.5698950000000  0.4325120000000  0.4983970000000 1.0
C      1  0.5850450000000  0.5457400000000  0.5006230000000 1.0
C      1  0.4809700000000  0.5919680000000  0.4950990000000 1.0
C      1  0.4054700000000  0.5077020000000  0.5025440000000 1.0
C      1  0.4356190000000  0.4210930000000  0.4587100000000 1.0
C      1  0.5350590000000  0.4224020000000  0.4501480000000 1.0
C      1  0.5989740000000  0.5275190000000  0.4491080000000 1.0
C      1  0.4980970000000  0.6012900000000  0.4552670000000 1.0
C      1  0.4043740000000  0.5346670000000  0.4581400000000 1.0
C      1  0.4689430000000  0.5955360000000  0.4489640000000 1.0
C      1  0.4016400000000  0.5058010000000  0.4549760000000 1.0
C      1  0.4615430000000  0.4076440000000  0.4555350000000 1.0
C      1  0.5634980000000  0.4372310000000  0.4472330000000 1.0
C      1  0.5869370000000  0.5539470000000  0.4511950000000 1.0
C      1  0.4893660000000  0.4551950000000  0.4801670000000 1.0
C      1  0.5282400000000  0.4981050000000  0.4882640000000 1.0
C      1  0.5185250000000  0.5283980000000  0.4873360000000 1.0
C      1  0.4876900000000  0.5300180000000  0.4857330000000 1.0
C      1  0.4774430000000  0.5012320000000  0.4898440000000 1.0
C      1  0.4830420000000  0.5843080000000  0.4232330000000 1.0
C      1  0.4167280000000  0.5129370000000  0.4282850000000 1.0
C      1  0.4632590000000  0.4283650000000  0.4322400000000 1.0
C      1  0.5642170000000  0.4476030000000  0.4180490000000 1.0
C      1  0.5723970000000  0.5601460000000  0.4281380000000 1.0
C      1  0.4715850000000  0.5093470000000  0.5748100000000 1.0
C      1  0.4833540000000  0.4794550000000  0.5746840000000 1.0
C      1  0.5153030000000  0.4808010000000  0.5727290000000 1.0
C      1  0.5244120000000  0.5132410000000  0.5721750000000 1.0
C      1  0.4960270000000  0.5308650000000  0.5723870000000 1.0
C      1  0.5267120000000  0.4945750000000  0.4365390000000 1.0
C      1  0.5200240000000  0.5244760000000  0.4376490000000 1.0
C      1  0.4895480000000  0.5256860000000  0.4364050000000 1.0
C      1  0.4774610000000  0.4973160000000  0.4398290000000 1.0
C      1  0.5012310000000  0.4773230000000  0.4373170000000 1.0
C      1  0.4360670000000  0.5406850000000  0.5515800000000 1.0
C      1  0.4397690000000  0.4488350000000  0.5553430000000 1.0
C      1  0.5250270000000  0.4304830000000  0.5488260000000 1.0
C      1  0.5703930000000  0.5008730000000  0.5484240000000 1.0
C      1  0.5191160000000  0.5685270000000  0.5454800000000 1.0
C      1  0.5746120000000  0.5599180000000  0.4770400000000 1.0
C      1  0.4639250000000  0.5806000000000  0.4733460000000 1.0
C      1  0.4106330000000  0.4912640000000  0.4789060000000 1.0
C      1  0.4764260000000  0.4083330000000  0.4803710000000 1.0
C      1  0.5781160000000  0.4478290000000  0.4745150000000 1.0
C      1  0.5314510000000  0.5954620000000  0.4747920000000 1.0
C      1  0.4278170000000  0.5429780000000  0.4758670000000 1.0
C      1  0.4352530000000  0.4437830000000  0.4794410000000 1.0
C      1  0.5299990000000  0.4079160000000  0.4765130000000 1.0
C      1  0.5950130000000  0.5010630000000  0.4761980000000 1.0
C      1  0.5468260000000  0.4703800000000  0.6123370000000 1.0
C      1  0.5472360000000  0.5427490000000  0.6041180000000 1.0
C      1  0.4745610000000  0.5623650000000  0.6031620000000 1.0
C      1  0.4357800000000  0.4973280000000  0.6069520000000 1.0
C      1  0.4839380000000  0.4392410000000  0.6043340000000 1.0
C      1  0.5315660000000  0.5356140000000  0.4111530000000 1.0
C      1  0.4826070000000  0.5356100000000  0.4075880000000 1.0
C      1  0.4605820000000  0.4935350000000  0.4142770000000 1.0
C      1  0.4968990000000  0.4625310000000  0.4106990000000 1.0
C      1  0.5392880000000  0.4877390000000  0.4080730000000 1.0
C      1  0.4430550000000  0.4319530000000  0.5055810000000 1.0
C      1  0.5429440000000  0.4206390000000  0.4994120000000 1.0
C      1  0.5870550000000  0.5162560000000  0.5004820000000 1.0
C      1  0.5107170000000  0.5882620000000  0.4954280000000 1.0
C      1  0.4255420000000  0.5293230000000  0.5027140000000 1.0
C      1  0.5972070000000  0.4705220000000  0.4845520000000 1.0
C      1  0.5588210000000  0.5846500000000  0.4847230000000 1.0
C      1  0.4364320000000  0.5723220000000  0.4821110000000 1.0
C      1  0.4105470000000  0.4620160000000  0.4858190000000 1.0
C      1  0.5034250000000  0.3970370000000  0.4861770000000 1.0
C      1  0.5105990000000  0.5719520000000  0.4279050000000 1.0
C      1  0.4395480000000  0.5327480000000  0.4311160000000 1.0
C      1  0.4541600000000  0.4561010000000  0.4395390000000 1.0
C      1  0.5378360000000  0.4395980000000  0.4054850000000 1.0
C      1  0.5805770000000  0.5094730000000  0.4358530000000 1.0
C      1  0.5419520000000  0.4875640000000  0.4621140000000 1.0
C      1  0.5278010000000  0.5405570000000  0.4619140000000 1.0
C      1  0.4775660000000  0.5408890000000  0.4598270000000 1.0
C      1  0.4601230000000  0.4937900000000  0.4664730000000 1.0
C      1  0.5077990000000  0.4560460000000  0.4578920000000 1.0
C      1  0.5009330000000  0.4815600000000  0.4935890000000 1.0
END
