TITL C-3577090-796-303 1.43600027280001e-06 125000 -645.587463465241 0 0 103 (C1) n - 1
REM
REM in /home/bkarasulu/work/CARBON/AIRSS/Generating-Clusters/EDIP-Nigel-Params/with-SteepDescent/Higher-Symm/SD-CG/HFTN-CG
REM
REM
REM
REM
REM
REM ./C.cell (12c818d87b63d06a65506943cc24bca4)
REM
REM compiler GCC version 9.2.1 20190827 (Red Hat 9.2.1-1)
REM options -cpp -mtune=generic -march=x86-64 -g -O0 -fpre-include=/usr/include/finclude/math-vector-fortran.h
REM seed 1569857359 -2024473786 -1972784712 -386550843 -1674042392 -273132988 1846771286 1285991201 820485897 -1983318345 291017250 154736187 2079137129 -1212323673 818083047 1922114897 775285129 2045873528 1680432751 559875441 -1246032883 -1276273150 1400744546 454121978 -641201291 -506987580 -1650228599 821848532 -395782742 -382986239 -1123519398 1437763857 1513992358
REM
CELL 1.54180   50.00000   50.00000   50.00000   90.00000   90.00000   90.00000
LATT -1
SFAC C  
C      1  0.4646840000000  0.5047570000000  0.4996890000000 1.0
C      1  0.4842240000000  0.4604990000000  0.4918990000000 1.0
C      1  0.5313850000000  0.4782870000000  0.4937450000000 1.0
C      1  0.5028970000000  0.5398740000000  0.4991520000000 1.0
C      1  0.5273930000000  0.5385030000000  0.5146770000000 1.0
C      1  0.5117220000000  0.4586670000000  0.5058920000000 1.0
C      1  0.4680090000000  0.4776760000000  0.5110730000000 1.0
C      1  0.4809440000000  0.5247020000000  0.5154750000000 1.0
C      1  0.5458980000000  0.5671460000000  0.4631330000000 1.0
C      1  0.4376270000000  0.5454960000000  0.4572180000000 1.0
C      1  0.4528040000000  0.4326520000000  0.4616000000000 1.0
C      1  0.5669330000000  0.4553780000000  0.4560720000000 1.0
C      1  0.4521590000000  0.5678730000000  0.5401280000000 1.0
C      1  0.5716310000000  0.5498220000000  0.5394730000000 1.0
C      1  0.5469290000000  0.4317130000000  0.5428660000000 1.0
C      1  0.4277220000000  0.4510500000000  0.5399960000000 1.0
C      1  0.5531760000000  0.4108510000000  0.4980400000000 1.0
C      1  0.5927530000000  0.5579560000000  0.4937420000000 1.0
C      1  0.4465740000000  0.5916760000000  0.4958520000000 1.0
C      1  0.4072260000000  0.4458220000000  0.4943410000000 1.0
C      1  0.4409980000000  0.4092990000000  0.5031480000000 1.0
C      1  0.4112350000000  0.5578600000000  0.5000890000000 1.0
C      1  0.5587120000000  0.5936770000000  0.5032240000000 1.0
C      1  0.5887920000000  0.4457510000000  0.5015870000000 1.0
C      1  0.4616720000000  0.4232130000000  0.4880230000000 1.0
C      1  0.5770340000000  0.4649160000000  0.4826730000000 1.0
C      1  0.5381330000000  0.5794270000000  0.4881720000000 1.0
C      1  0.4254800000000  0.5382660000000  0.4837050000000 1.0
C      1  0.5348600000000  0.4229800000000  0.5173740000000 1.0
C      1  0.4186210000000  0.4635370000000  0.5146530000000 1.0
C      1  0.4639240000000  0.5786820000000  0.5155140000000 1.0
C      1  0.5812000000000  0.5392670000000  0.5131610000000 1.0
C      1  0.5045670000000  0.5225170000000  0.4721080000000 1.0
C      1  0.4771430000000  0.5039070000000  0.4723680000000 1.0
C      1  0.4891850000000  0.4774070000000  0.4668070000000 1.0
C      1  0.5281720000000  0.4969800000000  0.4696070000000 1.0
C      1  0.4858720000000  0.5120770000000  0.5434560000000 1.0
C      1  0.5304010000000  0.5127740000000  0.5260460000000 1.0
C      1  0.5053420000000  0.4656030000000  0.5356680000000 1.0
C      1  0.4795150000000  0.4812210000000  0.5387470000000 1.0
C      1  0.4675020000000  0.5277690000000  0.5626300000000 1.0
C      1  0.4656140000000  0.4671330000000  0.5619550000000 1.0
C      1  0.5265940000000  0.4763490000000  0.5573850000000 1.0
C      1  0.5333590000000  0.5329640000000  0.5659820000000 1.0
C      1  0.5249660000000  0.5293650000000  0.4395140000000 1.0
C      1  0.5253560000000  0.4716780000000  0.4342110000000 1.0
C      1  0.4754690000000  0.4691020000000  0.4406390000000 1.0
C      1  0.4808390000000  0.5296240000000  0.4365090000000 1.0
C      1  0.5003320000000  0.4299180000000  0.4550660000000 1.0
C      1  0.5563110000000  0.5001550000000  0.4583010000000 1.0
C      1  0.5002050000000  0.5727880000000  0.4534330000000 1.0
C      1  0.4486000000000  0.5021680000000  0.4592950000000 1.0
C      1  0.5005460000000  0.4366980000000  0.5451360000000 1.0
C      1  0.4341390000000  0.4978490000000  0.5407630000000 1.0
C      1  0.4994690000000  0.5610810000000  0.5407080000000 1.0
C      1  0.5593710000000  0.5046650000000  0.5346050000000 1.0
C      1  0.5463910000000  0.4110760000000  0.4712470000000 1.0
C      1  0.5929880000000  0.5494270000000  0.4669270000000 1.0
C      1  0.4547060000000  0.5912940000000  0.4692860000000 1.0
C      1  0.4071650000000  0.4548720000000  0.4677840000000 1.0
C      1  0.4463070000000  0.4048880000000  0.5303660000000 1.0
C      1  0.4060110000000  0.5504710000000  0.5266470000000 1.0
C      1  0.5529120000000  0.5961150000000  0.5306370000000 1.0
C      1  0.5920970000000  0.4534720000000  0.5281750000000 1.0
C      1  0.4345230000000  0.4556210000000  0.4607130000000 1.0
C      1  0.5473730000000  0.4333160000000  0.4541630000000 1.0
C      1  0.5656120000000  0.5464240000000  0.4605900000000 1.0
C      1  0.4543110000000  0.5688710000000  0.4522010000000 1.0
C      1  0.5657470000000  0.4542680000000  0.5386010000000 1.0
C      1  0.4494460000000  0.4309180000000  0.5408130000000 1.0
C      1  0.4316770000000  0.5470540000000  0.5379200000000 1.0
C      1  0.5491060000000  0.5689820000000  0.5386060000000 1.0
C      1  0.5057390000000  0.4181870000000  0.5192030000000 1.0
C      1  0.5794670000000  0.5095700000000  0.5112610000000 1.0
C      1  0.4932140000000  0.5789870000000  0.5173980000000 1.0
C      1  0.4183240000000  0.4934140000000  0.5159200000000 1.0
C      1  0.4916170000000  0.4223350000000  0.4917340000000 1.0
C      1  0.4270710000000  0.5091510000000  0.4909400000000 1.0
C      1  0.5080460000000  0.5775850000000  0.4910430000000 1.0
C      1  0.5800280000000  0.4944050000000  0.4853240000000 1.0
C      1  0.5543860000000  0.5253700000000  0.4441050000000 1.0
C      1  0.4792500000000  0.5592510000000  0.4410650000000 1.0
C      1  0.4467180000000  0.4766560000000  0.4447690000000 1.0
C      1  0.5227900000000  0.4436120000000  0.4439720000000 1.0
C      1  0.4389550000000  0.5238630000000  0.5537220000000 1.0
C      1  0.5260050000000  0.5598390000000  0.5544420000000 1.0
C      1  0.5550380000000  0.4785810000000  0.5487460000000 1.0
C      1  0.4720820000000  0.4382720000000  0.5576840000000 1.0
C      1  0.4518730000000  0.5244580000000  0.4420250000000 1.0
C      1  0.4758340000000  0.4394410000000  0.4445720000000 1.0
C      1  0.5544700000000  0.4772910000000  0.4398530000000 1.0
C      1  0.5227320000000  0.5566620000000  0.4504640000000 1.0
C      1  0.5618540000000  0.5268780000000  0.5557590000000 1.0
C      1  0.5259490000000  0.4375420000000  0.5627120000000 1.0
C      1  0.4371360000000  0.4732900000000  0.5567350000000 1.0
C      1  0.4745200000000  0.5567220000000  0.5565940000000 1.0
C      1  0.5796780000000  0.4193660000000  0.5001130000000 1.0
C      1  0.5848020000000  0.5847190000000  0.4975220000000 1.0
C      1  0.4195790000000  0.5845210000000  0.4977210000000 1.0
C      1  0.4151580000000  0.4189970000000  0.4976170000000 1.0
C      1  0.5162030000000  0.5101910000000  0.5527480000000 1.0
C      1  0.5015570000000  0.4986670000000  0.4352930000000 1.0
C      1  0.5145120000000  0.4980840000000  0.5069430000000 1.0
END
