TITL C-3577077-324-384 3.25178391746221e-06 125000 -1090.48199028119 0 0 173 (C1) n - 1
REM
REM in /home/bkarasulu/work/CARBON/AIRSS/Generating-Clusters/EDIP-Nigel-Params/with-SteepDescent/Higher-Symm/SD-CG/HFTN-CG
REM
REM
REM
REM
REM
REM ./C.cell (12c818d87b63d06a65506943cc24bca4)
REM
REM compiler GCC version 9.2.1 20190827 (Red Hat 9.2.1-1)
REM options -cpp -mtune=generic -march=x86-64 -g -O0 -fpre-include=/usr/include/finclude/math-vector-fortran.h
REM seed -797943552 -127751270 -1926746861 754755186 1128466549 -124356752 -1361470762 -2034918749 -1964458382 -952836575 1636831235 -564257196 -1592849954 1993749044 -2000994638 -861773766 1010454190 -951891247 -1056042907 -1121910904 1773187212 821627979 1943023155 -1039399660 966271922 -274621381 725040504 23972981 -1689609887 2014706520 -1797730452 60381295 71840137
REM
CELL 1.54180   50.00000   50.00000   50.00000   90.00000   90.00000   90.00000
LATT -1
SFAC C  
C      1  0.4359930000000  0.4247850000000  0.5371770000000 1.0
C      1  0.4313540000000  0.4786750000000  0.5873990000000 1.0
C      1  0.4311660000000  0.5504120000000  0.5676920000000 1.0
C      1  0.4368310000000  0.5819460000000  0.5017660000000 1.0
C      1  0.4315470000000  0.5544190000000  0.4349820000000 1.0
C      1  0.4234690000000  0.4833720000000  0.4166580000000 1.0
C      1  0.4377230000000  0.4325820000000  0.4650490000000 1.0
C      1  0.4825620000000  0.4606310000000  0.3963090000000 1.0
C      1  0.4906010000000  0.4057010000000  0.4688220000000 1.0
C      1  0.4959120000000  0.4106070000000  0.5636180000000 1.0
C      1  0.4908430000000  0.4947380000000  0.6058640000000 1.0
C      1  0.4922770000000  0.5746410000000  0.5727310000000 1.0
C      1  0.4896650000000  0.6026740000000  0.4838930000000 1.0
C      1  0.4901620000000  0.5457830000000  0.4146610000000 1.0
C      1  0.5534270000000  0.4927490000000  0.4431550000000 1.0
C      1  0.5533290000000  0.4478800000000  0.4645010000000 1.0
C      1  0.5237040000000  0.4541180000000  0.5196740000000 1.0
C      1  0.5443260000000  0.4898690000000  0.5482880000000 1.0
C      1  0.5389460000000  0.5372840000000  0.5357280000000 1.0
C      1  0.5417180000000  0.5519130000000  0.4942550000000 1.0
C      1  0.5471990000000  0.5392670000000  0.4462270000000 1.0
C      1  0.5004030000000  0.3950630000000  0.4945020000000 1.0
C      1  0.4960580000000  0.4303910000000  0.5862920000000 1.0
C      1  0.4955990000000  0.5238850000000  0.6118400000000 1.0
C      1  0.4961090000000  0.5949250000000  0.5519590000000 1.0
C      1  0.4960150000000  0.6010050000000  0.4532060000000 1.0
C      1  0.4915290000000  0.5255430000000  0.3918340000000 1.0
C      1  0.4865770000000  0.4348660000000  0.4105880000000 1.0
C      1  0.5173670000000  0.4505970000000  0.5888220000000 1.0
C      1  0.5164840000000  0.5342630000000  0.5943410000000 1.0
C      1  0.5152140000000  0.5892110000000  0.5311290000000 1.0
C      1  0.5157210000000  0.5784960000000  0.4462840000000 1.0
C      1  0.5132420000000  0.5060440000000  0.3911360000000 1.0
C      1  0.5102420000000  0.4287600000000  0.4265450000000 1.0
C      1  0.5238920000000  0.4094880000000  0.5058290000000 1.0
C      1  0.5955020000000  0.5206580000000  0.4445520000000 1.0
C      1  0.5972940000000  0.4689650000000  0.4530490000000 1.0
C      1  0.5947670000000  0.4348530000000  0.4929110000000 1.0
C      1  0.5746300000000  0.4425750000000  0.5362570000000 1.0
C      1  0.5871160000000  0.5197410000000  0.5771990000000 1.0
C      1  0.5806900000000  0.5509130000000  0.5410100000000 1.0
C      1  0.5834410000000  0.5559780000000  0.4766640000000 1.0
C      1  0.5146930000000  0.5373880000000  0.4897300000000 1.0
C      1  0.5177960000000  0.5263210000000  0.4579930000000 1.0
C      1  0.5234310000000  0.4954360000000  0.4520720000000 1.0
C      1  0.5242540000000  0.4529220000000  0.4725650000000 1.0
C      1  0.5053940000000  0.4780480000000  0.5186840000000 1.0
C      1  0.5142940000000  0.4968570000000  0.5406100000000 1.0
C      1  0.5137160000000  0.5266110000000  0.5269250000000 1.0
C      1  0.4426880000000  0.5390490000000  0.4943990000000 1.0
C      1  0.4451440000000  0.5270460000000  0.4667500000000 1.0
C      1  0.4459690000000  0.4959480000000  0.4663940000000 1.0
C      1  0.4618160000000  0.4831270000000  0.4869940000000 1.0
C      1  0.4507910000000  0.4759350000000  0.5146280000000 1.0
C      1  0.4447090000000  0.4863510000000  0.5459450000000 1.0
C      1  0.4430330000000  0.5178160000000  0.5410950000000 1.0
C      1  0.4278690000000  0.5757210000000  0.4551040000000 1.0
C      1  0.4276430000000  0.5125650000000  0.4198410000000 1.0
C      1  0.4236700000000  0.4423340000000  0.4407550000000 1.0
C      1  0.4383090000000  0.4232330000000  0.5087200000000 1.0
C      1  0.4343050000000  0.4533790000000  0.5733370000000 1.0
C      1  0.4289810000000  0.5252580000000  0.5822050000000 1.0
C      1  0.4358640000000  0.5725440000000  0.5290140000000 1.0
C      1  0.4586310000000  0.4177690000000  0.5560850000000 1.0
C      1  0.4530650000000  0.4897470000000  0.6039690000000 1.0
C      1  0.4545910000000  0.5689530000000  0.5724690000000 1.0
C      1  0.4590550000000  0.5964920000000  0.4866420000000 1.0
C      1  0.4534130000000  0.5527710000000  0.4140430000000 1.0
C      1  0.4463130000000  0.4665710000000  0.4042480000000 1.0
C      1  0.4598880000000  0.4105020000000  0.4681290000000 1.0
C      1  0.4033670000000  0.4933280000000  0.5371280000000 1.0
C      1  0.3952190000000  0.5375700000000  0.5137120000000 1.0
C      1  0.3998520000000  0.5445850000000  0.4855000000000 1.0
C      1  0.4063130000000  0.5219530000000  0.4654000000000 1.0
C      1  0.4166570000000  0.4853860000000  0.4690990000000 1.0
C      1  0.4174870000000  0.4653090000000  0.4971600000000 1.0
C      1  0.4099330000000  0.4669780000000  0.5276470000000 1.0
C      1  0.5402960000000  0.5818160000000  0.4625840000000 1.0
C      1  0.5384980000000  0.5153450000000  0.4029450000000 1.0
C      1  0.5365260000000  0.4379760000000  0.4189190000000 1.0
C      1  0.5483060000000  0.4079040000000  0.4878370000000 1.0
C      1  0.5434790000000  0.4458900000000  0.5762700000000 1.0
C      1  0.5415980000000  0.5207850000000  0.5957620000000 1.0
C      1  0.5417760000000  0.5811730000000  0.5397940000000 1.0
C      1  0.5926700000000  0.5609580000000  0.5141920000000 1.0
C      1  0.6065350000000  0.5424440000000  0.4622880000000 1.0
C      1  0.6123620000000  0.4957630000000  0.4500970000000 1.0
C      1  0.6106290000000  0.4549110000000  0.4766720000000 1.0
C      1  0.6003090000000  0.4431250000000  0.5221380000000 1.0
C      1  0.5864210000000  0.4899460000000  0.5702320000000 1.0
C      1  0.6011740000000  0.5358360000000  0.5565200000000 1.0
C      1  0.5699030000000  0.4175050000000  0.5475100000000 1.0
C      1  0.5565650000000  0.4783990000000  0.5733750000000 1.0
C      1  0.5619100000000  0.5339560000000  0.5807100000000 1.0
C      1  0.5565760000000  0.5755520000000  0.5138810000000 1.0
C      1  0.5611500000000  0.5633210000000  0.4566180000000 1.0
C      1  0.5530230000000  0.4902420000000  0.4132680000000 1.0
C      1  0.5546540000000  0.4279820000000  0.4414120000000 1.0
C      1  0.5660950000000  0.5329700000000  0.4895250000000 1.0
C      1  0.5668090000000  0.5175270000000  0.4529710000000 1.0
C      1  0.5683910000000  0.4716850000000  0.4568960000000 1.0
C      1  0.5640420000000  0.4348060000000  0.4898160000000 1.0
C      1  0.5559860000000  0.4530030000000  0.5143540000000 1.0
C      1  0.5671510000000  0.4978740000000  0.5301450000000 1.0
C      1  0.5643160000000  0.5280640000000  0.5237080000000 1.0
C      1  0.4710830000000  0.5367150000000  0.6046360000000 1.0
C      1  0.4719520000000  0.6005620000000  0.5387030000000 1.0
C      1  0.4707230000000  0.5947420000000  0.4401310000000 1.0
C      1  0.4671990000000  0.5106350000000  0.3929540000000 1.0
C      1  0.4660110000000  0.4332140000000  0.4307870000000 1.0
C      1  0.4787350000000  0.4015850000000  0.5113700000000 1.0
C      1  0.4721890000000  0.4345620000000  0.6003410000000 1.0
C      1  0.5115120000000  0.4087560000000  0.4482940000000 1.0
C      1  0.5208870000000  0.4136990000000  0.5445400000000 1.0
C      1  0.5156840000000  0.4776740000000  0.6008310000000 1.0
C      1  0.5163980000000  0.5583620000000  0.5776370000000 1.0
C      1  0.5125630000000  0.5968480000000  0.5025420000000 1.0
C      1  0.5158330000000  0.5618400000000  0.4197840000000 1.0
C      1  0.5084640000000  0.4775470000000  0.4025300000000 1.0
C      1  0.6179010000000  0.4771650000000  0.4946300000000 1.0
C      1  0.6114100000000  0.4707410000000  0.5229990000000 1.0
C      1  0.5963930000000  0.4924730000000  0.5402940000000 1.0
C      1  0.6109700000000  0.5187190000000  0.5348160000000 1.0
C      1  0.6059110000000  0.5335460000000  0.5093510000000 1.0
C      1  0.6205950000000  0.5288070000000  0.4847350000000 1.0
C      1  0.6246340000000  0.5004510000000  0.4771130000000 1.0
C      1  0.4690720000000  0.5403940000000  0.4535780000000 1.0
C      1  0.4594690000000  0.4852700000000  0.4416690000000 1.0
C      1  0.4723930000000  0.4577880000000  0.4762490000000 1.0
C      1  0.4784650000000  0.4591340000000  0.5203620000000 1.0
C      1  0.4709690000000  0.4751000000000  0.5611200000000 1.0
C      1  0.4706870000000  0.5261460000000  0.5446770000000 1.0
C      1  0.4701820000000  0.5443200000000  0.5041020000000 1.0
C      1  0.5125940000000  0.4435860000000  0.5458400000000 1.0
C      1  0.4939040000000  0.4934820000000  0.5670480000000 1.0
C      1  0.4941210000000  0.5443630000000  0.5426870000000 1.0
C      1  0.4929410000000  0.5593470000000  0.4905760000000 1.0
C      1  0.4899530000000  0.5279370000000  0.4391890000000 1.0
C      1  0.5024120000000  0.4823700000000  0.4319940000000 1.0
C      1  0.5138110000000  0.4375990000000  0.4971580000000 1.0
C      1  0.5414240000000  0.5570320000000  0.5589170000000 1.0
C      1  0.5395320000000  0.5912900000000  0.4911630000000 1.0
C      1  0.5394220000000  0.5425220000000  0.4178260000000 1.0
C      1  0.5364290000000  0.4655650000000  0.4052100000000 1.0
C      1  0.5404650000000  0.4056990000000  0.4573820000000 1.0
C      1  0.5460140000000  0.4198490000000  0.5612480000000 1.0
C      1  0.5412080000000  0.4915940000000  0.5957550000000 1.0
C      1  0.4800000000000  0.5654650000000  0.4634010000000 1.0
C      1  0.4798580000000  0.5020160000000  0.4275050000000 1.0
C      1  0.4762860000000  0.4595560000000  0.4466750000000 1.0
C      1  0.4830290000000  0.4374250000000  0.4981820000000 1.0
C      1  0.4806190000000  0.4484720000000  0.5488760000000 1.0
C      1  0.4815940000000  0.5205460000000  0.5711330000000 1.0
C      1  0.4791370000000  0.5650200000000  0.5250600000000 1.0
C      1  0.4517990000000  0.4314040000000  0.5814890000000 1.0
C      1  0.4495240000000  0.5184940000000  0.6011940000000 1.0
C      1  0.4501410000000  0.5861510000000  0.5493780000000 1.0
C      1  0.4490910000000  0.5958360000000  0.4586840000000 1.0
C      1  0.4455940000000  0.5268770000000  0.4023440000000 1.0
C      1  0.4411900000000  0.4403030000000  0.4169160000000 1.0
C      1  0.4550650000000  0.4040770000000  0.4965600000000 1.0
C      1  0.4205890000000  0.5494220000000  0.5389150000000 1.0
C      1  0.4191170000000  0.5679810000000  0.4823520000000 1.0
C      1  0.4137000000000  0.5309830000000  0.4375550000000 1.0
C      1  0.4122510000000  0.4700650000000  0.4417440000000 1.0
C      1  0.4228080000000  0.4373100000000  0.4895670000000 1.0
C      1  0.4224670000000  0.4482730000000  0.5469340000000 1.0
C      1  0.4178790000000  0.4999530000000  0.5715370000000 1.0
C      1  0.5619110000000  0.4813200000000  0.5070550000000 1.0
C      1  0.5398120000000  0.4912340000000  0.4942600000000 1.0
C      1  0.4342810000000  0.5167780000000  0.5125310000000 1.0
C      1  0.4058560000000  0.5109000000000  0.5140040000000 1.0
C      1  0.5205190000000  0.4814710000000  0.4772320000000 1.0
END
