TITL C-3577079-311-764 -1.40590049515308e-06 125000 -1110.10608126374 0 0 179 (C1) n - 1
REM
REM in /home/bkarasulu/work/CARBON/AIRSS/Generating-Clusters/EDIP-Nigel-Params/with-SteepDescent/Higher-Symm/SD-CG/HFTN-CG
REM
REM
REM
REM
REM
REM ./C.cell (12c818d87b63d06a65506943cc24bca4)
REM
REM compiler GCC version 9.2.1 20190827 (Red Hat 9.2.1-1)
REM options -cpp -mtune=generic -march=x86-64 -g -O0 -fpre-include=/usr/include/finclude/math-vector-fortran.h
REM seed 820156620 1651078732 -2036225003 1553344939 1654847824 213416484 -498642590 974369778 -1860736983 1930978190 1987511948 679649639 193062682 -1627644665 778015418 549020862 1175237196 2115515043 576196753 -160114788 1898015883 1611734491 -660438710 1801857414 -1585275261 -1812100388 -1050725 -1488993624 1713842137 -1552814459 -1883010146 145568976 422640564
REM
CELL 1.54180   50.00000   50.00000   50.00000   90.00000   90.00000   90.00000
LATT -1
SFAC C  
C      1  0.4088000000000  0.5291990000000  0.4833520000000 1.0
C      1  0.4241800000000  0.5346400000000  0.5640020000000 1.0
C      1  0.5091590000000  0.5334670000000  0.5922580000000 1.0
C      1  0.5798090000000  0.5365220000000  0.5525310000000 1.0
C      1  0.5948760000000  0.5344170000000  0.4706460000000 1.0
C      1  0.5339980000000  0.5244820000000  0.4128490000000 1.0
C      1  0.4546720000000  0.5262530000000  0.4207960000000 1.0
C      1  0.4761360000000  0.4925230000000  0.5175930000000 1.0
C      1  0.5029360000000  0.5017940000000  0.5560990000000 1.0
C      1  0.5194540000000  0.4817800000000  0.5432830000000 1.0
C      1  0.5248810000000  0.4880000000000  0.4918620000000 1.0
C      1  0.5130120000000  0.5022970000000  0.4692380000000 1.0
C      1  0.4819710000000  0.5027780000000  0.4699310000000 1.0
C      1  0.4678840000000  0.4886580000000  0.4906400000000 1.0
C      1  0.4055140000000  0.4659230000000  0.5390960000000 1.0
C      1  0.4726150000000  0.4682390000000  0.5952890000000 1.0
C      1  0.5586450000000  0.4611860000000  0.5829720000000 1.0
C      1  0.5998220000000  0.4683860000000  0.5063670000000 1.0
C      1  0.5661230000000  0.4682150000000  0.4254020000000 1.0
C      1  0.4819160000000  0.4681060000000  0.3997020000000 1.0
C      1  0.4090120000000  0.4670770000000  0.4494210000000 1.0
C      1  0.4729350000000  0.5218000000000  0.5252490000000 1.0
C      1  0.4991760000000  0.5257800000000  0.5402230000000 1.0
C      1  0.5348260000000  0.5400350000000  0.5326540000000 1.0
C      1  0.5465200000000  0.5389890000000  0.4831940000000 1.0
C      1  0.5198060000000  0.5319480000000  0.4707980000000 1.0
C      1  0.4742330000000  0.5315980000000  0.4739840000000 1.0
C      1  0.4604860000000  0.5370500000000  0.5028400000000 1.0
C      1  0.4954690000000  0.5579810000000  0.4210380000000 1.0
C      1  0.4349820000000  0.5573120000000  0.4538280000000 1.0
C      1  0.4219560000000  0.5601900000000  0.5201890000000 1.0
C      1  0.4697880000000  0.5496080000000  0.5711850000000 1.0
C      1  0.5419300000000  0.5661980000000  0.5676080000000 1.0
C      1  0.5816160000000  0.5622940000000  0.5105660000000 1.0
C      1  0.5606410000000  0.5544800000000  0.4411600000000 1.0
C      1  0.4532390000000  0.4914310000000  0.5887040000000 1.0
C      1  0.5504440000000  0.4849310000000  0.5991910000000 1.0
C      1  0.5938960000000  0.4929040000000  0.5230520000000 1.0
C      1  0.5775530000000  0.4922190000000  0.4394520000000 1.0
C      1  0.4986690000000  0.4932730000000  0.3984340000000 1.0
C      1  0.4184360000000  0.4932900000000  0.4378690000000 1.0
C      1  0.4015740000000  0.4897420000000  0.5203990000000 1.0
C      1  0.5800130000000  0.4311200000000  0.5409070000000 1.0
C      1  0.5821140000000  0.4346280000000  0.4618710000000 1.0
C      1  0.5213270000000  0.4359650000000  0.4120620000000 1.0
C      1  0.4451220000000  0.4354210000000  0.4279830000000 1.0
C      1  0.4082070000000  0.4338480000000  0.4999580000000 1.0
C      1  0.4426130000000  0.4330060000000  0.5696420000000 1.0
C      1  0.5192830000000  0.4288440000000  0.5878990000000 1.0
C      1  0.4930790000000  0.4226450000000  0.5778900000000 1.0
C      1  0.5551310000000  0.4215010000000  0.5533150000000 1.0
C      1  0.5794990000000  0.4230590000000  0.4892040000000 1.0
C      1  0.5406050000000  0.4246580000000  0.4312330000000 1.0
C      1  0.4725600000000  0.4251620000000  0.4253360000000 1.0
C      1  0.4229390000000  0.4246400000000  0.4748940000000 1.0
C      1  0.4321790000000  0.4230320000000  0.5440790000000 1.0
C      1  0.4298040000000  0.5332170000000  0.5053930000000 1.0
C      1  0.4532260000000  0.5299490000000  0.5551980000000 1.0
C      1  0.5162190000000  0.5528300000000  0.5703360000000 1.0
C      1  0.5638790000000  0.5326760000000  0.5262180000000 1.0
C      1  0.5656210000000  0.5335320000000  0.4624250000000 1.0
C      1  0.5111570000000  0.5347360000000  0.4330710000000 1.0
C      1  0.4511110000000  0.5318870000000  0.4521250000000 1.0
C      1  0.3682150000000  0.5044200000000  0.4905630000000 1.0
C      1  0.4110440000000  0.5108690000000  0.5906850000000 1.0
C      1  0.5250360000000  0.5088120000000  0.6293970000000 1.0
C      1  0.6043510000000  0.5097000000000  0.5653360000000 1.0
C      1  0.6185200000000  0.5100200000000  0.4536300000000 1.0
C      1  0.5374980000000  0.5094840000000  0.3770560000000 1.0
C      1  0.4298280000000  0.5111670000000  0.3948250000000 1.0
C      1  0.3898480000000  0.5234280000000  0.5286530000000 1.0
C      1  0.4562680000000  0.5177170000000  0.6057460000000 1.0
C      1  0.5546330000000  0.5242520000000  0.5949330000000 1.0
C      1  0.6101430000000  0.5197610000000  0.5184080000000 1.0
C      1  0.5839320000000  0.5166220000000  0.4215680000000 1.0
C      1  0.4919560000000  0.5221630000000  0.3866890000000 1.0
C      1  0.4046400000000  0.5262920000000  0.4336470000000 1.0
C      1  0.5612660000000  0.5364970000000  0.4180740000000 1.0
C      1  0.4767060000000  0.5407350000000  0.4052270000000 1.0
C      1  0.4086030000000  0.5439720000000  0.4574390000000 1.0
C      1  0.4066420000000  0.5445600000000  0.5413540000000 1.0
C      1  0.4780620000000  0.5374830000000  0.5971420000000 1.0
C      1  0.5638310000000  0.5473760000000  0.5763250000000 1.0
C      1  0.5982830000000  0.5404960000000  0.4997030000000 1.0
C      1  0.6107980000000  0.5308840000000  0.5463070000000 1.0
C      1  0.6073900000000  0.5280930000000  0.4345610000000 1.0
C      1  0.5203410000000  0.5315890000000  0.3840750000000 1.0
C      1  0.4237020000000  0.5333280000000  0.4118950000000 1.0
C      1  0.3839370000000  0.5261810000000  0.4994040000000 1.0
C      1  0.4295810000000  0.5294790000000  0.6018280000000 1.0
C      1  0.5310080000000  0.5315780000000  0.6136170000000 1.0
C      1  0.5309290000000  0.4446240000000  0.4844800000000 1.0
C      1  0.5103560000000  0.4543270000000  0.4670510000000 1.0
C      1  0.4819410000000  0.4517240000000  0.4703660000000 1.0
C      1  0.4682670000000  0.4446580000000  0.4952720000000 1.0
C      1  0.4802070000000  0.4466240000000  0.5219240000000 1.0
C      1  0.5067970000000  0.4392800000000  0.5300110000000 1.0
C      1  0.5286810000000  0.4490670000000  0.5128100000000 1.0
C      1  0.4736510000000  0.5748760000000  0.4836790000000 1.0
C      1  0.4699530000000  0.5652280000000  0.5119030000000 1.0
C      1  0.4961030000000  0.5731400000000  0.5294050000000 1.0
C      1  0.5277730000000  0.5663230000000  0.5216870000000 1.0
C      1  0.5400250000000  0.5668490000000  0.4924870000000 1.0
C      1  0.5238880000000  0.5794790000000  0.4690490000000 1.0
C      1  0.4961070000000  0.5683260000000  0.4639100000000 1.0
C      1  0.5648750000000  0.5826750000000  0.4966830000000 1.0
C      1  0.5403510000000  0.5741200000000  0.4454060000000 1.0
C      1  0.4868490000000  0.5800970000000  0.4393800000000 1.0
C      1  0.4444790000000  0.5781730000000  0.4722780000000 1.0
C      1  0.4460510000000  0.5800760000000  0.5229030000000 1.0
C      1  0.4926930000000  0.5645820000000  0.5587210000000 1.0
C      1  0.5448520000000  0.5825470000000  0.5414810000000 1.0
C      1  0.5511630000000  0.4855880000000  0.5412830000000 1.0
C      1  0.5543840000000  0.4881500000000  0.4864040000000 1.0
C      1  0.5233950000000  0.4924180000000  0.4409980000000 1.0
C      1  0.4707560000000  0.4929090000000  0.4431590000000 1.0
C      1  0.4394110000000  0.4859330000000  0.4877960000000 1.0
C      1  0.4546280000000  0.4833410000000  0.5381580000000 1.0
C      1  0.5135530000000  0.5054450000000  0.5814970000000 1.0
C      1  0.5567800000000  0.5035230000000  0.4582750000000 1.0
C      1  0.4974320000000  0.5031990000000  0.4267430000000 1.0
C      1  0.4363300000000  0.5040460000000  0.4598620000000 1.0
C      1  0.4297500000000  0.4997650000000  0.5133580000000 1.0
C      1  0.4591470000000  0.5008240000000  0.5616470000000 1.0
C      1  0.5429410000000  0.5021910000000  0.5758730000000 1.0
C      1  0.5649830000000  0.5015740000000  0.5182710000000 1.0
C      1  0.4299570000000  0.4458320000000  0.4518110000000 1.0
C      1  0.4167120000000  0.4416640000000  0.5269260000000 1.0
C      1  0.4706310000000  0.4441470000000  0.5761230000000 1.0
C      1  0.5390560000000  0.4413120000000  0.5704030000000 1.0
C      1  0.5826550000000  0.4440080000000  0.5127230000000 1.0
C      1  0.5607670000000  0.4445960000000  0.4425690000000 1.0
C      1  0.4932880000000  0.4461270000000  0.4167240000000 1.0
C      1  0.5476860000000  0.3925540000000  0.4679140000000 1.0
C      1  0.5054130000000  0.3934140000000  0.4437480000000 1.0
C      1  0.4594190000000  0.3940020000000  0.4603240000000 1.0
C      1  0.4434040000000  0.3933980000000  0.5060080000000 1.0
C      1  0.4691010000000  0.3921310000000  0.5471960000000 1.0
C      1  0.5175120000000  0.3904320000000  0.5508990000000 1.0
C      1  0.5525600000000  0.3908460000000  0.5162940000000 1.0
C      1  0.3846940000000  0.4821830000000  0.4960380000000 1.0
C      1  0.4232250000000  0.4849810000000  0.5874130000000 1.0
C      1  0.5254380000000  0.4830500000000  0.6172550000000 1.0
C      1  0.5962680000000  0.4859240000000  0.5523730000000 1.0
C      1  0.6029500000000  0.4861460000000  0.4548810000000 1.0
C      1  0.5272850000000  0.4868740000000  0.3907920000000 1.0
C      1  0.4329900000000  0.4887840000000  0.4116390000000 1.0
C      1  0.4862700000000  0.6101930000000  0.4636960000000 1.0
C      1  0.4528000000000  0.6090780000000  0.4744520000000 1.0
C      1  0.4533390000000  0.6074140000000  0.5076770000000 1.0
C      1  0.4997740000000  0.6028990000000  0.5256510000000 1.0
C      1  0.5290600000000  0.6102260000000  0.5266340000000 1.0
C      1  0.5404000000000  0.6108280000000  0.4992890000000 1.0
C      1  0.5199100000000  0.6082190000000  0.4773670000000 1.0
C      1  0.5318440000000  0.4014530000000  0.4467640000000 1.0
C      1  0.4792220000000  0.4027370000000  0.4428650000000 1.0
C      1  0.4402660000000  0.4007780000000  0.4793510000000 1.0
C      1  0.4469710000000  0.4006060000000  0.5326850000000 1.0
C      1  0.4926730000000  0.3992540000000  0.5602810000000 1.0
C      1  0.5424700000000  0.3984400000000  0.5411110000000 1.0
C      1  0.5607050000000  0.4002830000000  0.4913120000000 1.0
C      1  0.5202010000000  0.4619020000000  0.4407030000000 1.0
C      1  0.4657000000000  0.4618220000000  0.4472820000000 1.0
C      1  0.4400870000000  0.4544810000000  0.4933520000000 1.0
C      1  0.4622410000000  0.4544650000000  0.5438150000000 1.0
C      1  0.5147190000000  0.4538660000000  0.5549960000000 1.0
C      1  0.5542750000000  0.4566400000000  0.5272220000000 1.0
C      1  0.5568390000000  0.4577690000000  0.4794280000000 1.0
C      1  0.3953120000000  0.4697730000000  0.4734580000000 1.0
C      1  0.4133950000000  0.4708140000000  0.5654150000000 1.0
C      1  0.5000760000000  0.4766640000000  0.6026290000000 1.0
C      1  0.5810060000000  0.4672000000000  0.5668530000000 1.0
C      1  0.6029900000000  0.4728100000000  0.4792100000000 1.0
C      1  0.5452460000000  0.4732800000000  0.4074970000000 1.0
C      1  0.4554050000000  0.4728320000000  0.4068580000000 1.0
C      1  0.5066500000000  0.4812330000000  0.5163840000000 1.0
C      1  0.4835730000000  0.6120230000000  0.5020800000000 1.0
C      1  0.5039790000000  0.5381870000000  0.4943730000000 1.0
C      1  0.5162350000000  0.5237570000000  0.5161880000000 1.0
END
