TITL C-3577085-527-622 -7.1065737515253e-07 125000 -744.308579801188 0 0 119 (C1) n - 1
REM
REM in /home/bkarasulu/work/CARBON/AIRSS/Generating-Clusters/EDIP-Nigel-Params/with-SteepDescent/Higher-Symm/SD-CG/HFTN-CG
REM
REM
REM
REM
REM
REM ./C.cell (12c818d87b63d06a65506943cc24bca4)
REM
REM compiler GCC version 9.2.1 20190827 (Red Hat 9.2.1-1)
REM options -cpp -mtune=generic -march=x86-64 -g -O0 -fpre-include=/usr/include/finclude/math-vector-fortran.h
REM seed 1365747138 377554355 -1355600063 51424943 172465878 -1244575554 270791556 -1502846163 -1861334558 138600267 -1830742191 -1043006371 -1226488926 -698100124 -1623387019 -715481366 1298933644 2023934777 487365005 1421585787 -747239419 1465219973 1790918003 1755003674 -1501097679 1402558964 995388382 -1680737770 1341493359 -2044294232 455917936 -1106438836 -2068631189
REM
CELL 1.54180   50.00000   50.00000   50.00000   90.00000   90.00000   90.00000
LATT -1
SFAC C  
C      1  0.5825260000000  0.4867460000000  0.5325640000000 1.0
C      1  0.5819900000000  0.4690070000000  0.4722450000000 1.0
C      1  0.5778640000000  0.5310010000000  0.4953770000000 1.0
C      1  0.4485120000000  0.5411610000000  0.5713720000000 1.0
C      1  0.4517620000000  0.4213830000000  0.4959750000000 1.0
C      1  0.4518520000000  0.5379250000000  0.4280550000000 1.0
C      1  0.5322440000000  0.5493530000000  0.5770540000000 1.0
C      1  0.5330120000000  0.4062940000000  0.5018400000000 1.0
C      1  0.5382390000000  0.5434840000000  0.4245630000000 1.0
C      1  0.4913300000000  0.5380430000000  0.4947750000000 1.0
C      1  0.4965580000000  0.4771850000000  0.5455210000000 1.0
C      1  0.4911820000000  0.4984520000000  0.4549120000000 1.0
C      1  0.5261820000000  0.5857880000000  0.5448590000000 1.0
C      1  0.5289360000000  0.4143760000000  0.5499950000000 1.0
C      1  0.5364050000000  0.4991940000000  0.4043690000000 1.0
C      1  0.4815230000000  0.4269280000000  0.5663520000000 1.0
C      1  0.4883610000000  0.4966570000000  0.4053020000000 1.0
C      1  0.4787610000000  0.5946370000000  0.5259430000000 1.0
C      1  0.5411600000000  0.5722320000000  0.4946000000000 1.0
C      1  0.5415300000000  0.4683590000000  0.5623350000000 1.0
C      1  0.5259010000000  0.4632660000000  0.4495400000000 1.0
C      1  0.4532170000000  0.4691720000000  0.5008660000000 1.0
C      1  0.4489100000000  0.5210600000000  0.4736020000000 1.0
C      1  0.4601010000000  0.5151500000000  0.5355820000000 1.0
C      1  0.5151430000000  0.5152490000000  0.5244540000000 1.0
C      1  0.5048890000000  0.4754370000000  0.4963830000000 1.0
C      1  0.5286240000000  0.5272770000000  0.4732510000000 1.0
C      1  0.4248680000000  0.4950130000000  0.5536440000000 1.0
C      1  0.4231590000000  0.4533440000000  0.4721130000000 1.0
C      1  0.4205310000000  0.5446980000000  0.4851280000000 1.0
C      1  0.5796040000000  0.5348890000000  0.4491230000000 1.0
C      1  0.5778730000000  0.5321650000000  0.5591990000000 1.0
C      1  0.5759610000000  0.4256840000000  0.4931930000000 1.0
C      1  0.5598460000000  0.4130530000000  0.5125820000000 1.0
C      1  0.5625100000000  0.5272680000000  0.4290960000000 1.0
C      1  0.5580170000000  0.5524420000000  0.5625660000000 1.0
C      1  0.5625340000000  0.5004330000000  0.4173020000000 1.0
C      1  0.5500670000000  0.5689200000000  0.5392550000000 1.0
C      1  0.5528230000000  0.4277150000000  0.5381390000000 1.0
C      1  0.4204480000000  0.5674300000000  0.5050220000000 1.0
C      1  0.4195940000000  0.4391780000000  0.5615710000000 1.0
C      1  0.4157780000000  0.4735160000000  0.4251950000000 1.0
C      1  0.4916250000000  0.5551670000000  0.5517090000000 1.0
C      1  0.4946830000000  0.4245540000000  0.5198850000000 1.0
C      1  0.4980640000000  0.5212710000000  0.4174120000000 1.0
C      1  0.5151080000000  0.4037700000000  0.5260050000000 1.0
C      1  0.5240890000000  0.5259660000000  0.4069010000000 1.0
C      1  0.5131380000000  0.5696230000000  0.5656650000000 1.0
C      1  0.4804500000000  0.4143720000000  0.4953930000000 1.0
C      1  0.4796280000000  0.5441200000000  0.4197540000000 1.0
C      1  0.4783040000000  0.5437330000000  0.5757420000000 1.0
C      1  0.4326170000000  0.4985750000000  0.4621220000000 1.0
C      1  0.4406480000000  0.5278330000000  0.5152370000000 1.0
C      1  0.4359900000000  0.4685020000000  0.5273410000000 1.0
C      1  0.4913810000000  0.5634750000000  0.4374820000000 1.0
C      1  0.4915090000000  0.5193340000000  0.5834460000000 1.0
C      1  0.4949830000000  0.4236240000000  0.4727350000000 1.0
C      1  0.4770960000000  0.4876170000000  0.5012840000000 1.0
C      1  0.4775200000000  0.5127240000000  0.4815530000000 1.0
C      1  0.4768150000000  0.4932720000000  0.5291910000000 1.0
C      1  0.4426160000000  0.5630730000000  0.5504230000000 1.0
C      1  0.4460990000000  0.4215490000000  0.5258920000000 1.0
C      1  0.4452860000000  0.5095490000000  0.4209130000000 1.0
C      1  0.5124620000000  0.4788830000000  0.4040000000000 1.0
C      1  0.5078460000000  0.5915290000000  0.5209690000000 1.0
C      1  0.5107580000000  0.4324420000000  0.5661220000000 1.0
C      1  0.5069780000000  0.5425320000000  0.5218630000000 1.0
C      1  0.5104860000000  0.4559520000000  0.5230600000000 1.0
C      1  0.5196110000000  0.5116550000000  0.4486480000000 1.0
C      1  0.5401230000000  0.4413740000000  0.4643560000000 1.0
C      1  0.5591250000000  0.5688150000000  0.4734570000000 1.0
C      1  0.5429520000000  0.4978380000000  0.5608870000000 1.0
C      1  0.5112660000000  0.4552390000000  0.4235270000000 1.0
C      1  0.5141680000000  0.5868490000000  0.4913680000000 1.0
C      1  0.5199030000000  0.4575610000000  0.5783340000000 1.0
C      1  0.4829450000000  0.5865710000000  0.4800970000000 1.0
C      1  0.4852820000000  0.4708350000000  0.5750840000000 1.0
C      1  0.4826560000000  0.4450260000000  0.4305480000000 1.0
C      1  0.5091870000000  0.5515750000000  0.4756570000000 1.0
C      1  0.5145590000000  0.5022530000000  0.5502670000000 1.0
C      1  0.5005200000000  0.4703710000000  0.4658270000000 1.0
C      1  0.4189860000000  0.5087310000000  0.5030310000000 1.0
C      1  0.4136340000000  0.4897660000000  0.5264490000000 1.0
C      1  0.4173910000000  0.4805970000000  0.4779660000000 1.0
C      1  0.4256830000000  0.5507440000000  0.5287690000000 1.0
C      1  0.4254320000000  0.4411820000000  0.5342150000000 1.0
C      1  0.4224880000000  0.4990660000000  0.4351310000000 1.0
C      1  0.4721620000000  0.5683930000000  0.4592370000000 1.0
C      1  0.4717360000000  0.4975820000000  0.5804200000000 1.0
C      1  0.4805860000000  0.4470070000000  0.4610080000000 1.0
C      1  0.5388820000000  0.5520740000000  0.5171220000000 1.0
C      1  0.5416130000000  0.4561860000000  0.5346910000000 1.0
C      1  0.5416870000000  0.4900220000000  0.4473590000000 1.0
C      1  0.5217560000000  0.5216310000000  0.5829880000000 1.0
C      1  0.5228450000000  0.4251710000000  0.4807680000000 1.0
C      1  0.5205270000000  0.5614090000000  0.4401960000000 1.0
C      1  0.4645790000000  0.5971080000000  0.5003610000000 1.0
C      1  0.4670780000000  0.4471940000000  0.5813100000000 1.0
C      1  0.4612000000000  0.4613360000000  0.4189990000000 1.0
C      1  0.6037310000000  0.4918340000000  0.5115690000000 1.0
C      1  0.6037870000000  0.4702490000000  0.4915810000000 1.0
C      1  0.5946280000000  0.5086430000000  0.4877610000000 1.0
C      1  0.4342940000000  0.4538200000000  0.4220470000000 1.0
C      1  0.4380460000000  0.5884940000000  0.5009520000000 1.0
C      1  0.4393280000000  0.4464430000000  0.5783570000000 1.0
C      1  0.5621120000000  0.5402940000000  0.4717350000000 1.0
C      1  0.5663660000000  0.5112540000000  0.5430280000000 1.0
C      1  0.5677040000000  0.4435530000000  0.4733530000000 1.0
C      1  0.4492270000000  0.5112390000000  0.5621110000000 1.0
C      1  0.4505010000000  0.4477570000000  0.4808250000000 1.0
C      1  0.4468920000000  0.5489690000000  0.4569130000000 1.0
C      1  0.4726230000000  0.4256210000000  0.5387800000000 1.0
C      1  0.4682140000000  0.4896230000000  0.4251400000000 1.0
C      1  0.4698140000000  0.5713030000000  0.5408150000000 1.0
C      1  0.5601610000000  0.4730150000000  0.5178230000000 1.0
C      1  0.5631670000000  0.4928240000000  0.4713950000000 1.0
C      1  0.5577340000000  0.5238880000000  0.5151970000000 1.0
C      1  0.5217160000000  0.5019240000000  0.4987170000000 1.0
C      1  0.5506300000000  0.4959690000000  0.5000780000000 1.0
END
