TITL C-3578206-1180-518 2.50587904096613e-07 125000 -786.089513114585 0 0 129 (C1) n - 1
REM
REM in /home/bkarasulu/work/CARBON/AIRSS/Generating-Clusters/EDIP-Nigel-Params/with-SteepDescent/Higher-Symm/SD-CG/HFTN-CG
REM
REM
REM
REM
REM
REM ./C.cell (12c818d87b63d06a65506943cc24bca4)
REM
REM compiler GCC version 9.2.1 20190827 (Red Hat 9.2.1-1)
REM options -cpp -mtune=generic -march=x86-64 -g -O0 -fpre-include=/usr/include/finclude/math-vector-fortran.h
REM seed -1665805587 1396423863 1941342418 -1542316922 1310662536 -437770520 -1024959954 -2026698958 -473622457 2138568982 1881943769 -1650338395 -1377117897 -295699767 1439388487 848741158 1234838841 1808503085 451560202 1813429522 -744380787 1194125665 -255738815 -618182088 -1128632803 -1179611813 763690950 915336044 874595755 1741845903 1511526579 1279140511 -1893397269
REM
CELL 1.54180   50.00000   50.00000   50.00000   90.00000   90.00000   90.00000
LATT -1
SFAC C  
C      1  0.4575490000000  0.5150170000000  0.5862290000000 1.0
C      1  0.4859760000000  0.4589360000000  0.5874600000000 1.0
C      1  0.5406270000000  0.4870030000000  0.5856590000000 1.0
C      1  0.5125800000000  0.5425310000000  0.5860060000000 1.0
C      1  0.4597540000000  0.4865650000000  0.5858150000000 1.0
C      1  0.4840220000000  0.5423260000000  0.5861580000000 1.0
C      1  0.5396600000000  0.5156300000000  0.5866500000000 1.0
C      1  0.5146120000000  0.4594620000000  0.5873020000000 1.0
C      1  0.4273040000000  0.4668120000000  0.5485280000000 1.0
C      1  0.5341820000000  0.4253440000000  0.5491200000000 1.0
C      1  0.5746910000000  0.5362030000000  0.5500610000000 1.0
C      1  0.4634700000000  0.5753540000000  0.5486090000000 1.0
C      1  0.4234880000000  0.5350100000000  0.5492890000000 1.0
C      1  0.5332940000000  0.5764070000000  0.5494650000000 1.0
C      1  0.5744500000000  0.4665260000000  0.5502150000000 1.0
C      1  0.4654210000000  0.4250330000000  0.5497170000000 1.0
C      1  0.4667700000000  0.5831280000000  0.4525810000000 1.0
C      1  0.4218620000000  0.4663000000000  0.4509940000000 1.0
C      1  0.5327970000000  0.4219530000000  0.4472240000000 1.0
C      1  0.5839150000000  0.5306490000000  0.4528370000000 1.0
C      1  0.4639320000000  0.4133810000000  0.4530100000000 1.0
C      1  0.4187390000000  0.5331150000000  0.4518320000000 1.0
C      1  0.5337550000000  0.5764820000000  0.4503350000000 1.0
C      1  0.5810250000000  0.4681060000000  0.4498750000000 1.0
C      1  0.4397070000000  0.4184940000000  0.4685220000000 1.0
C      1  0.5803580000000  0.4401090000000  0.4599350000000 1.0
C      1  0.5595540000000  0.5753350000000  0.4649440000000 1.0
C      1  0.4190750000000  0.5606870000000  0.4635380000000 1.0
C      1  0.4403630000000  0.5808930000000  0.4655410000000 1.0
C      1  0.5832280000000  0.5585050000000  0.4629890000000 1.0
C      1  0.5555960000000  0.4263560000000  0.4653090000000 1.0
C      1  0.4197130000000  0.4392570000000  0.4638690000000 1.0
C      1  0.4516580000000  0.4292040000000  0.5226050000000 1.0
C      1  0.5723470000000  0.4511190000000  0.5243560000000 1.0
C      1  0.5484510000000  0.5728380000000  0.5235020000000 1.0
C      1  0.4267920000000  0.5484130000000  0.5226020000000 1.0
C      1  0.4500990000000  0.5700560000000  0.5219030000000 1.0
C      1  0.5699540000000  0.5493730000000  0.5229830000000 1.0
C      1  0.5494590000000  0.4295150000000  0.5228770000000 1.0
C      1  0.4312670000000  0.4534690000000  0.5222470000000 1.0
C      1  0.4071620000000  0.5697180000000  0.5104850000000 1.0
C      1  0.4283700000000  0.4102930000000  0.5130010000000 1.0
C      1  0.5919530000000  0.4305510000000  0.5099100000000 1.0
C      1  0.5695940000000  0.5918770000000  0.5102390000000 1.0
C      1  0.4089160000000  0.4343190000000  0.5116270000000 1.0
C      1  0.4294940000000  0.5910500000000  0.5109270000000 1.0
C      1  0.5909610000000  0.5695750000000  0.5111280000000 1.0
C      1  0.5695110000000  0.4092180000000  0.5104800000000 1.0
C      1  0.5835810000000  0.4830420000000  0.4963710000000 1.0
C      1  0.5163780000000  0.5839980000000  0.4953730000000 1.0
C      1  0.4145940000000  0.5147370000000  0.4967820000000 1.0
C      1  0.4886580000000  0.4088560000000  0.4951050000000 1.0
C      1  0.5865400000000  0.5114960000000  0.4981050000000 1.0
C      1  0.5171740000000  0.4109280000000  0.4916280000000 1.0
C      1  0.4187990000000  0.4864130000000  0.4960850000000 1.0
C      1  0.4879360000000  0.5870150000000  0.4968290000000 1.0
C      1  0.4712190000000  0.4502160000000  0.5634530000000 1.0
C      1  0.5483650000000  0.4718320000000  0.5615520000000 1.0
C      1  0.5284240000000  0.5510450000000  0.5626190000000 1.0
C      1  0.4489880000000  0.5298620000000  0.5622130000000 1.0
C      1  0.4688050000000  0.5504950000000  0.5624770000000 1.0
C      1  0.5496930000000  0.5319790000000  0.5644850000000 1.0
C      1  0.5297150000000  0.4501540000000  0.5637910000000 1.0
C      1  0.4523640000000  0.4716170000000  0.5617770000000 1.0
C      1  0.6006700000000  0.5157810000000  0.4719030000000 1.0
C      1  0.4833650000000  0.5995950000000  0.4701140000000 1.0
C      1  0.4049640000000  0.4806710000000  0.4701060000000 1.0
C      1  0.5189790000000  0.4016300000000  0.4633920000000 1.0
C      1  0.5986570000000  0.4790210000000  0.4705500000000 1.0
C      1  0.4819030000000  0.3966340000000  0.4688930000000 1.0
C      1  0.4016390000000  0.5178620000000  0.4699320000000 1.0
C      1  0.5204310000000  0.5958440000000  0.4679720000000 1.0
C      1  0.5132450000000  0.4071790000000  0.5502720000000 1.0
C      1  0.5924000000000  0.5148580000000  0.5517610000000 1.0
C      1  0.4846190000000  0.5933220000000  0.5496020000000 1.0
C      1  0.4085320000000  0.4870410000000  0.5503620000000 1.0
C      1  0.5114570000000  0.5935170000000  0.5498850000000 1.0
C      1  0.5918760000000  0.4880430000000  0.5515620000000 1.0
C      1  0.4864150000000  0.4068150000000  0.5509650000000 1.0
C      1  0.4059540000000  0.5136630000000  0.5508630000000 1.0
C      1  0.5549910000000  0.4849130000000  0.4487140000000 1.0
C      1  0.5145720000000  0.5522810000000  0.4496170000000 1.0
C      1  0.4449980000000  0.5170570000000  0.4494730000000 1.0
C      1  0.4782120000000  0.4380810000000  0.4464040000000 1.0
C      1  0.5567250000000  0.5171490000000  0.4491040000000 1.0
C      1  0.5131810000000  0.4451590000000  0.4433030000000 1.0
C      1  0.4483010000000  0.4821060000000  0.4488930000000 1.0
C      1  0.4810510000000  0.5569150000000  0.4478560000000 1.0
C      1  0.5152930000000  0.4670000000000  0.4224020000000 1.0
C      1  0.5332820000000  0.5145370000000  0.4188570000000 1.0
C      1  0.4841240000000  0.5323390000000  0.4181040000000 1.0
C      1  0.4649810000000  0.4859670000000  0.4212810000000 1.0
C      1  0.5115870000000  0.5316690000000  0.4277500000000 1.0
C      1  0.5380270000000  0.4857560000000  0.4239120000000 1.0
C      1  0.4907500000000  0.4775130000000  0.4144010000000 1.0
C      1  0.4607810000000  0.5155660000000  0.4224680000000 1.0
C      1  0.5331990000000  0.4848480000000  0.5226090000000 1.0
C      1  0.5160720000000  0.5354910000000  0.5236340000000 1.0
C      1  0.4627850000000  0.5150520000000  0.5232760000000 1.0
C      1  0.4877520000000  0.4551830000000  0.5189230000000 1.0
C      1  0.5396440000000  0.5148010000000  0.5219380000000 1.0
C      1  0.5149280000000  0.4601200000000  0.5144130000000 1.0
C      1  0.4724600000000  0.4807510000000  0.5235870000000 1.0
C      1  0.4843500000000  0.5386180000000  0.5231930000000 1.0
C      1  0.5375540000000  0.4803860000000  0.4734100000000 1.0
C      1  0.5179440000000  0.5370600000000  0.4756950000000 1.0
C      1  0.4604670000000  0.5212570000000  0.4742640000000 1.0
C      1  0.4812050000000  0.4530400000000  0.4730340000000 1.0
C      1  0.5421030000000  0.5195580000000  0.4757370000000 1.0
C      1  0.5147130000000  0.4591940000000  0.4707010000000 1.0
C      1  0.4642870000000  0.4769050000000  0.4735010000000 1.0
C      1  0.4791140000000  0.5430250000000  0.4750090000000 1.0
C      1  0.5301080000000  0.4379290000000  0.4994970000000 1.0
C      1  0.5600800000000  0.5255790000000  0.5017610000000 1.0
C      1  0.4740900000000  0.5603250000000  0.5014660000000 1.0
C      1  0.4499340000000  0.4797330000000  0.4997720000000 1.0
C      1  0.5240030000000  0.5543200000000  0.4995690000000 1.0
C      1  0.5536300000000  0.4742590000000  0.4987790000000 1.0
C      1  0.4749270000000  0.4353260000000  0.5000190000000 1.0
C      1  0.4443390000000  0.5224550000000  0.4991870000000 1.0
C      1  0.5606340000000  0.4056310000000  0.4838380000000 1.0
C      1  0.6002580000000  0.5636970000000  0.4849510000000 1.0
C      1  0.4347290000000  0.6005750000000  0.4848500000000 1.0
C      1  0.4007460000000  0.4390090000000  0.4848340000000 1.0
C      1  0.5637110000000  0.5967330000000  0.4829900000000 1.0
C      1  0.5973620000000  0.4365330000000  0.4825200000000 1.0
C      1  0.4323010000000  0.3990580000000  0.4874140000000 1.0
C      1  0.3995290000000  0.5649290000000  0.4835880000000 1.0
C      1  0.4985950000000  0.5015040000000  0.5162040000000 1.0
END
