TITL C-3578201-9217-599 -1.97937495494443e-06 125000 -271.632673708156 0 0 48 (S8) n - 1
REM
REM in /home/bkarasulu/work/CARBON/AIRSS/Generating-Clusters/EDIP-Nigel-Params/with-SteepDescent/Higher-Symm/SD-CG/HFTN-CG
REM
REM
REM
REM
REM
REM ./C.cell (12c818d87b63d06a65506943cc24bca4)
REM
REM compiler GCC version 9.2.1 20190827 (Red Hat 9.2.1-1)
REM options -cpp -mtune=generic -march=x86-64 -g -O0 -fpre-include=/usr/include/finclude/math-vector-fortran.h
REM seed 1004318395 -684083255 2113482198 2036165724 -1068094447 779131539 -1346897405 187273310 -1849950382 -271576809 1771403270 1136433859 -1684469733 171056085 862493468 1032418274 1076713951 1936749031 18916176 585412363 -1295723804 46765737 -448562091 1290430094 -1098415578 -2069648863 800118093 -529343307 -872640071 1570073388 -1200110682 -1193441369 -1969078752
REM
CELL 1.54180   50.00000   50.00000   50.00000   90.00000   90.00000   90.00000
LATT -1
SFAC C  
C      1  0.5133250000000  0.4757580000000  0.5188230000000 1.0
C      1  0.5265640000000  0.4922800000000  0.4811780000000 1.0
C      1  0.5242420000000  0.5133250000000  0.5188220000000 1.0
C      1  0.5077190000000  0.5265630000000  0.4811770000000 1.0
C      1  0.4866750000000  0.5242420000000  0.5188220000000 1.0
C      1  0.4734360000000  0.5077190000000  0.4811780000000 1.0
C      1  0.4757580000000  0.4866750000000  0.5188220000000 1.0
C      1  0.4922810000000  0.4734360000000  0.4811780000000 1.0
C      1  0.5163980000000  0.5220680000000  0.4514990000000 1.0
C      1  0.4959900000000  0.5272010000000  0.5485000000000 1.0
C      1  0.4779310000000  0.5163970000000  0.4514990000000 1.0
C      1  0.4728000000000  0.4959910000000  0.5485010000000 1.0
C      1  0.4836020000000  0.4779300000000  0.4515000000000 1.0
C      1  0.5040100000000  0.4728000000000  0.5485010000000 1.0
C      1  0.5220690000000  0.4836010000000  0.4514990000000 1.0
C      1  0.5272010000000  0.5040110000000  0.5485010000000 1.0
C      1  0.4313190000000  0.4870210000000  0.5265150000000 1.0
C      1  0.4606130000000  0.4422570000000  0.4734870000000 1.0
C      1  0.5129800000000  0.4313190000000  0.5265160000000 1.0
C      1  0.5577430000000  0.4606130000000  0.4734860000000 1.0
C      1  0.5686810000000  0.5129800000000  0.5265140000000 1.0
C      1  0.5393870000000  0.5577420000000  0.4734840000000 1.0
C      1  0.4870210000000  0.5686820000000  0.5265130000000 1.0
C      1  0.4422570000000  0.5393860000000  0.4734850000000 1.0
C      1  0.4871820000000  0.4332370000000  0.5139690000000 1.0
C      1  0.5381450000000  0.4437270000000  0.4860340000000 1.0
C      1  0.5667630000000  0.4871820000000  0.5139680000000 1.0
C      1  0.5562720000000  0.5381450000000  0.4860320000000 1.0
C      1  0.5128180000000  0.5667630000000  0.5139660000000 1.0
C      1  0.4618550000000  0.5562720000000  0.4860320000000 1.0
C      1  0.4332370000000  0.5128180000000  0.5139670000000 1.0
C      1  0.4437270000000  0.4618550000000  0.4860330000000 1.0
C      1  0.5397370000000  0.5396970000000  0.4508600000000 1.0
C      1  0.5000280000000  0.5561700000000  0.5491380000000 1.0
C      1  0.4603020000000  0.5397360000000  0.4508600000000 1.0
C      1  0.4438310000000  0.5000290000000  0.5491400000000 1.0
C      1  0.4602630000000  0.4603020000000  0.4508610000000 1.0
C      1  0.4999720000000  0.4438320000000  0.5491400000000 1.0
C      1  0.5396970000000  0.4602620000000  0.4508610000000 1.0
C      1  0.5561690000000  0.4999730000000  0.5491390000000 1.0
C      1  0.4509400000000  0.4696110000000  0.5130380000000 1.0
C      1  0.4867980000000  0.4438210000000  0.4869640000000 1.0
C      1  0.5303890000000  0.4509410000000  0.5130380000000 1.0
C      1  0.5561790000000  0.4867980000000  0.4869630000000 1.0
C      1  0.5490600000000  0.5303900000000  0.5130360000000 1.0
C      1  0.5132020000000  0.5561790000000  0.4869620000000 1.0
C      1  0.4696110000000  0.5490600000000  0.5130360000000 1.0
C      1  0.4438210000000  0.5132020000000  0.4869630000000 1.0
END
