TITL C-3577082-504-773 -5.45925250096505e-06 125000 -362.36091429849 0 0 59 (C1) n - 1
REM
REM in /home/bkarasulu/work/CARBON/AIRSS/Generating-Clusters/EDIP-Nigel-Params/with-SteepDescent/Higher-Symm/SD-CG/HFTN-CG
REM
REM
REM
REM
REM
REM ./C.cell (12c818d87b63d06a65506943cc24bca4)
REM
REM compiler GCC version 9.2.1 20190827 (Red Hat 9.2.1-1)
REM options -cpp -mtune=generic -march=x86-64 -g -O0 -fpre-include=/usr/include/finclude/math-vector-fortran.h
REM seed -546025395 -547371633 421035939 1246588257 -129423081 1224940419 1685832789 1937548279 -20132158 599309177 -312804679 285706759 608497622 -566641901 -643680704 -1459572270 -2130347271 -446424888 -986943885 -1088620215 -1311291825 1990484754 -1189144786 726334592 -1706128145 1734795916 1530518514 620238152 594364838 621014654 -1232162589 -527970778 726833270
REM
CELL 1.54180   50.00000   50.00000   50.00000   90.00000   90.00000   90.00000
LATT -1
SFAC C  
C      1  0.5158850000000  0.4829160000000  0.4381440000000 1.0
C      1  0.5117160000000  0.5500360000000  0.4677410000000 1.0
C      1  0.5150650000000  0.5495190000000  0.5386550000000 1.0
C      1  0.5194610000000  0.4766260000000  0.5576300000000 1.0
C      1  0.5131070000000  0.4343230000000  0.4970280000000 1.0
C      1  0.4485750000000  0.4929460000000  0.5414000000000 1.0
C      1  0.4422940000000  0.4551940000000  0.5075740000000 1.0
C      1  0.4408420000000  0.4777010000000  0.4607250000000 1.0
C      1  0.4399190000000  0.5289680000000  0.4680110000000 1.0
C      1  0.4424490000000  0.5378100000000  0.5189330000000 1.0
C      1  0.4695320000000  0.4458230000000  0.5104180000000 1.0
C      1  0.4691600000000  0.4746740000000  0.4527890000000 1.0
C      1  0.4688720000000  0.5314140000000  0.4642950000000 1.0
C      1  0.4693310000000  0.5482990000000  0.5239880000000 1.0
C      1  0.4710550000000  0.4907510000000  0.5602080000000 1.0
C      1  0.5617500000000  0.5279050000000  0.5421570000000 1.0
C      1  0.5739770000000  0.4891180000000  0.5241280000000 1.0
C      1  0.5565150000000  0.4578800000000  0.4891280000000 1.0
C      1  0.5749110000000  0.5006250000000  0.4756660000000 1.0
C      1  0.5592560000000  0.5441460000000  0.4780000000000 1.0
C      1  0.4334510000000  0.4726770000000  0.5278800000000 1.0
C      1  0.4325800000000  0.4612310000000  0.4819360000000 1.0
C      1  0.4279800000000  0.5033440000000  0.4628300000000 1.0
C      1  0.4310980000000  0.5382460000000  0.4931750000000 1.0
C      1  0.4345340000000  0.5166150000000  0.5351730000000 1.0
C      1  0.4846190000000  0.5527920000000  0.4767630000000 1.0
C      1  0.4871100000000  0.5437260000000  0.5477550000000 1.0
C      1  0.4899590000000  0.4670550000000  0.5580430000000 1.0
C      1  0.4847970000000  0.4356860000000  0.4877310000000 1.0
C      1  0.4864190000000  0.4918290000000  0.4356580000000 1.0
C      1  0.4939060000000  0.4785600000000  0.4876660000000 1.0
C      1  0.5192830000000  0.4956780000000  0.4803030000000 1.0
C      1  0.5060460000000  0.5244500000000  0.5033290000000 1.0
C      1  0.4863880000000  0.5078590000000  0.5231230000000 1.0
C      1  0.4962300000000  0.4782830000000  0.5206090000000 1.0
C      1  0.5145990000000  0.4386100000000  0.5264100000000 1.0
C      1  0.5152330000000  0.4572930000000  0.4546530000000 1.0
C      1  0.5126830000000  0.5307100000000  0.4460470000000 1.0
C      1  0.5131480000000  0.5615740000000  0.5110040000000 1.0
C      1  0.5187540000000  0.5068500000000  0.5616280000000 1.0
C      1  0.5322740000000  0.5260890000000  0.5435910000000 1.0
C      1  0.5330220000000  0.4607440000000  0.5347770000000 1.0
C      1  0.5290000000000  0.4528100000000  0.4808200000000 1.0
C      1  0.5299430000000  0.5074030000000  0.4530600000000 1.0
C      1  0.5355410000000  0.5597640000000  0.4809600000000 1.0
C      1  0.4896280000000  0.5154150000000  0.5613260000000 1.0
C      1  0.4861180000000  0.4435790000000  0.5360960000000 1.0
C      1  0.4861880000000  0.4508640000000  0.4608930000000 1.0
C      1  0.4847820000000  0.5212060000000  0.4412310000000 1.0
C      1  0.4842480000000  0.5630990000000  0.5039060000000 1.0
C      1  0.5716110000000  0.4733230000000  0.4710320000000 1.0
C      1  0.5589780000000  0.5199080000000  0.4601680000000 1.0
C      1  0.5702960000000  0.5353850000000  0.5133300000000 1.0
C      1  0.5729980000000  0.5024380000000  0.5492440000000 1.0
C      1  0.5589360000000  0.4638040000000  0.5191200000000 1.0
C      1  0.4404770000000  0.4983170000000  0.4992780000000 1.0
C      1  0.5635800000000  0.5074530000000  0.5028980000000 1.0
C      1  0.5329970000000  0.5070390000000  0.5036350000000 1.0
C      1  0.4720040000000  0.5020870000000  0.4954350000000 1.0
END
