TITL C-3578207-9274-353 -1.1448182117504e-06 125000 -1073.2665630072 0 0 175 (C1) n - 1
REM
REM in /home/bkarasulu/work/CARBON/AIRSS/Generating-Clusters/EDIP-Nigel-Params/with-SteepDescent/Higher-Symm/SD-CG/HFTN-CG
REM
REM
REM
REM
REM
REM ./C.cell (12c818d87b63d06a65506943cc24bca4)
REM
REM compiler GCC version 9.2.1 20190827 (Red Hat 9.2.1-1)
REM options -cpp -mtune=generic -march=x86-64 -g -O0 -fpre-include=/usr/include/finclude/math-vector-fortran.h
REM seed 1167398955 761085689 1583239648 -1479784244 1059408838 1020996599 -86651823 -31313022 -1894086544 -1455060504 219856769 -359140272 300201719 509229011 1289744743 -1585597308 -14528984 1184874710 1813423939 -1770564873 1868600883 2078773031 671395603 1099543363 -295946125 -824102273 1137803569 1264446648 -200945003 -1150869958 1182694880 -1279450689 1092216594
REM
CELL 1.54180   50.00000   50.00000   50.00000   90.00000   90.00000   90.00000
LATT -1
SFAC C  
C      1  0.4430540000000  0.4428280000000  0.5801530000000 1.0
C      1  0.5538220000000  0.4414880000000  0.4213530000000 1.0
C      1  0.5553770000000  0.4469010000000  0.5762400000000 1.0
C      1  0.4437990000000  0.4415460000000  0.4195340000000 1.0
C      1  0.5883400000000  0.4736270000000  0.4334580000000 1.0
C      1  0.4126320000000  0.4760410000000  0.5641990000000 1.0
C      1  0.4133470000000  0.4765740000000  0.4352250000000 1.0
C      1  0.5929030000000  0.4742240000000  0.5674440000000 1.0
C      1  0.5701220000000  0.4961890000000  0.5790650000000 1.0
C      1  0.4258290000000  0.4978750000000  0.4183260000000 1.0
C      1  0.4274480000000  0.4969180000000  0.5801590000000 1.0
C      1  0.5666910000000  0.4941800000000  0.4210450000000 1.0
C      1  0.5948550000000  0.4832410000000  0.4616180000000 1.0
C      1  0.4062970000000  0.4837490000000  0.5360400000000 1.0
C      1  0.4019990000000  0.4840410000000  0.4624340000000 1.0
C      1  0.5989870000000  0.4835950000000  0.5389790000000 1.0
C      1  0.4341300000000  0.5124950000000  0.4871680000000 1.0
C      1  0.5646330000000  0.5129230000000  0.5153690000000 1.0
C      1  0.5605650000000  0.5118660000000  0.4869570000000 1.0
C      1  0.4429660000000  0.5097570000000  0.5144320000000 1.0
C      1  0.4457250000000  0.5313060000000  0.5349460000000 1.0
C      1  0.5556000000000  0.5335960000000  0.4662610000000 1.0
C      1  0.5579150000000  0.5358210000000  0.5344720000000 1.0
C      1  0.4436830000000  0.5305510000000  0.4653320000000 1.0
C      1  0.4699400000000  0.5562750000000  0.5910980000000 1.0
C      1  0.5272500000000  0.5534810000000  0.3973590000000 1.0
C      1  0.5301770000000  0.5534630000000  0.6079370000000 1.0
C      1  0.4691970000000  0.5567750000000  0.4075870000000 1.0
C      1  0.5738730000000  0.4474130000000  0.4406990000000 1.0
C      1  0.4252530000000  0.4485250000000  0.5591970000000 1.0
C      1  0.4261810000000  0.4497640000000  0.4400780000000 1.0
C      1  0.5786420000000  0.4477770000000  0.5607590000000 1.0
C      1  0.5502510000000  0.5721230000000  0.4221890000000 1.0
C      1  0.4470820000000  0.5761710000000  0.5627100000000 1.0
C      1  0.4467240000000  0.5765550000000  0.4360580000000 1.0
C      1  0.5509500000000  0.5735480000000  0.5820980000000 1.0
C      1  0.4711100000000  0.4730780000000  0.4719520000000 1.0
C      1  0.5281130000000  0.4622230000000  0.5267390000000 1.0
C      1  0.5249890000000  0.4606390000000  0.4822990000000 1.0
C      1  0.4781110000000  0.4629100000000  0.5244210000000 1.0
C      1  0.4105180000000  0.5335230000000  0.5509480000000 1.0
C      1  0.5878420000000  0.5346480000000  0.4440930000000 1.0
C      1  0.5897310000000  0.5384380000000  0.5574940000000 1.0
C      1  0.4091420000000  0.5349700000000  0.4483300000000 1.0
C      1  0.5143060000000  0.5211870000000  0.4348940000000 1.0
C      1  0.4910010000000  0.5167130000000  0.5508440000000 1.0
C      1  0.4891500000000  0.5169350000000  0.4483520000000 1.0
C      1  0.5157010000000  0.5227520000000  0.5658930000000 1.0
C      1  0.4402870000000  0.4877990000000  0.6034710000000 1.0
C      1  0.5547210000000  0.4884610000000  0.3955630000000 1.0
C      1  0.5550010000000  0.4893660000000  0.6024820000000 1.0
C      1  0.4396810000000  0.4883090000000  0.3957700000000 1.0
C      1  0.4662950000000  0.5456160000000  0.4820500000000 1.0
C      1  0.5307850000000  0.5545540000000  0.5322130000000 1.0
C      1  0.5296710000000  0.5532610000000  0.4666740000000 1.0
C      1  0.4668360000000  0.5471380000000  0.5161480000000 1.0
C      1  0.4141970000000  0.5581750000000  0.5390320000000 1.0
C      1  0.5884520000000  0.5573110000000  0.4603570000000 1.0
C      1  0.5892490000000  0.5611820000000  0.5415080000000 1.0
C      1  0.4140660000000  0.5592610000000  0.4607840000000 1.0
C      1  0.5695770000000  0.4866710000000  0.5294970000000 1.0
C      1  0.4295760000000  0.4873080000000  0.4747130000000 1.0
C      1  0.4370120000000  0.4848050000000  0.5280000000000 1.0
C      1  0.5662900000000  0.4860090000000  0.4736530000000 1.0
C      1  0.4044310000000  0.4417310000000  0.5133990000000 1.0
C      1  0.5982000000000  0.4421190000000  0.4855890000000 1.0
C      1  0.6001220000000  0.4422860000000  0.5148410000000 1.0
C      1  0.4036470000000  0.4415840000000  0.4841820000000 1.0
C      1  0.4302640000000  0.4401840000000  0.4707590000000 1.0
C      1  0.5743010000000  0.4387930000000  0.5291620000000 1.0
C      1  0.5707480000000  0.4386180000000  0.4736040000000 1.0
C      1  0.4307350000000  0.4370180000000  0.5270280000000 1.0
C      1  0.4503920000000  0.5881940000000  0.5155100000000 1.0
C      1  0.5579430000000  0.5906590000000  0.4838560000000 1.0
C      1  0.5586300000000  0.5926210000000  0.5153520000000 1.0
C      1  0.4501460000000  0.5881220000000  0.4846850000000 1.0
C      1  0.4246990000000  0.5277780000000  0.4256610000000 1.0
C      1  0.5711530000000  0.5269290000000  0.5756380000000 1.0
C      1  0.5689090000000  0.5246060000000  0.4253300000000 1.0
C      1  0.4258200000000  0.5267510000000  0.5738700000000 1.0
C      1  0.5257020000000  0.5863590000000  0.4264260000000 1.0
C      1  0.4710890000000  0.5928940000000  0.5668820000000 1.0
C      1  0.4713150000000  0.5929050000000  0.4326400000000 1.0
C      1  0.5243510000000  0.5794090000000  0.5726640000000 1.0
C      1  0.5134580000000  0.4353560000000  0.5587440000000 1.0
C      1  0.4862250000000  0.4359660000000  0.4390710000000 1.0
C      1  0.4841300000000  0.4368230000000  0.5593610000000 1.0
C      1  0.5144090000000  0.4396200000000  0.4449940000000 1.0
C      1  0.4829910000000  0.4670030000000  0.5954480000000 1.0
C      1  0.5132880000000  0.4667790000000  0.4043420000000 1.0
C      1  0.5132530000000  0.4678670000000  0.5935670000000 1.0
C      1  0.4827640000000  0.4665420000000  0.4029500000000 1.0
C      1  0.4483280000000  0.4600310000000  0.5150890000000 1.0
C      1  0.5549780000000  0.4613120000000  0.4868540000000 1.0
C      1  0.5570820000000  0.4615760000000  0.5174800000000 1.0
C      1  0.4456250000000  0.4629380000000  0.4849630000000 1.0
C      1  0.5122920000000  0.5393270000000  0.4851670000000 1.0
C      1  0.4898440000000  0.5285080000000  0.5235820000000 1.0
C      1  0.4884540000000  0.5248640000000  0.4764090000000 1.0
C      1  0.5136970000000  0.5405190000000  0.5132700000000 1.0
C      1  0.4891830000000  0.6020080000000  0.5453360000000 1.0
C      1  0.5184810000000  0.5986810000000  0.4521160000000 1.0
C      1  0.5196070000000  0.5986560000000  0.5495500000000 1.0
C      1  0.4883130000000  0.6017460000000  0.4553310000000 1.0
C      1  0.5271540000000  0.4894450000000  0.6061230000000 1.0
C      1  0.4670860000000  0.4879060000000  0.3900990000000 1.0
C      1  0.4677150000000  0.4879880000000  0.6091010000000 1.0
C      1  0.5268010000000  0.4889290000000  0.3924340000000 1.0
C      1  0.4557150000000  0.4817080000000  0.4461120000000 1.0
C      1  0.5519010000000  0.4862860000000  0.5567820000000 1.0
C      1  0.5461540000000  0.4833490000000  0.4408000000000 1.0
C      1  0.4586910000000  0.4825780000000  0.5526060000000 1.0
C      1  0.4455420000000  0.5497620000000  0.4235060000000 1.0
C      1  0.5525630000000  0.5454450000000  0.5896800000000 1.0
C      1  0.5499500000000  0.5443500000000  0.4140310000000 1.0
C      1  0.4460350000000  0.5495330000000  0.5755630000000 1.0
C      1  0.4427030000000  0.4139110000000  0.4798700000000 1.0
C      1  0.5633830000000  0.4125830000000  0.5174890000000 1.0
C      1  0.5591310000000  0.4136370000000  0.4877960000000 1.0
C      1  0.4391700000000  0.4092950000000  0.5117430000000 1.0
C      1  0.5306800000000  0.4578880000000  0.4281090000000 1.0
C      1  0.4670830000000  0.4573100000000  0.5720490000000 1.0
C      1  0.4678630000000  0.4563020000000  0.4266680000000 1.0
C      1  0.5293420000000  0.4574060000000  0.5703030000000 1.0
C      1  0.5164430000000  0.4875310000000  0.4753740000000 1.0
C      1  0.4900640000000  0.4904450000000  0.5162950000000 1.0
C      1  0.4895040000000  0.4932280000000  0.4858750000000 1.0
C      1  0.5181850000000  0.4898150000000  0.5277980000000 1.0
C      1  0.5340480000000  0.5077880000000  0.5468000000000 1.0
C      1  0.4629200000000  0.5115260000000  0.4376840000000 1.0
C      1  0.4650300000000  0.5119500000000  0.5623190000000 1.0
C      1  0.5314450000000  0.5049060000000  0.4547160000000 1.0
C      1  0.6124090000000  0.4638430000000  0.4743060000000 1.0
C      1  0.3908370000000  0.4634790000000  0.5239880000000 1.0
C      1  0.3878050000000  0.4623930000000  0.4738420000000 1.0
C      1  0.6152620000000  0.4640110000000  0.5248430000000 1.0
C      1  0.3892240000000  0.5048450000000  0.5261880000000 1.0
C      1  0.6148410000000  0.5026370000000  0.4721030000000 1.0
C      1  0.6177700000000  0.5028330000000  0.5261550000000 1.0
C      1  0.3835710000000  0.5032070000000  0.4734420000000 1.0
C      1  0.5237900000000  0.4126660000000  0.4436570000000 1.0
C      1  0.4715450000000  0.4119850000000  0.5548070000000 1.0
C      1  0.4819830000000  0.4079780000000  0.4388180000000 1.0
C      1  0.5256340000000  0.4098070000000  0.5578340000000 1.0
C      1  0.4783390000000  0.5834820000000  0.5241380000000 1.0
C      1  0.5309730000000  0.5828260000000  0.4746310000000 1.0
C      1  0.5319890000000  0.5843420000000  0.5256400000000 1.0
C      1  0.4774630000000  0.5822380000000  0.4753190000000 1.0
C      1  0.5111070000000  0.5123260000000  0.5948000000000 1.0
C      1  0.4772740000000  0.5105970000000  0.4058070000000 1.0
C      1  0.4781000000000  0.5112040000000  0.5941580000000 1.0
C      1  0.5107730000000  0.5112260000000  0.4054520000000 1.0
C      1  0.5793900000000  0.5698260000000  0.5162430000000 1.0
C      1  0.4276990000000  0.5672060000000  0.4842260000000 1.0
C      1  0.4275630000000  0.5671000000000  0.5160080000000 1.0
C      1  0.5775140000000  0.5672710000000  0.4846240000000 1.0
C      1  0.5312020000000  0.4041290000000  0.4886020000000 1.0
C      1  0.4681540000000  0.3955210000000  0.5106770000000 1.0
C      1  0.4722310000000  0.4060660000000  0.4831200000000 1.0
C      1  0.5319050000000  0.3913790000000  0.5145190000000 1.0
C      1  0.5138320000000  0.3972730000000  0.5358500000000 1.0
C      1  0.4879510000000  0.3936140000000  0.4623730000000 1.0
C      1  0.4852480000000  0.4018080000000  0.5326260000000 1.0
C      1  0.5177420000000  0.3949210000000  0.4645760000000 1.0
C      1  0.4834650000000  0.5595150000000  0.5544590000000 1.0
C      1  0.5148070000000  0.5528490000000  0.4396270000000 1.0
C      1  0.5146210000000  0.5541860000000  0.5586960000000 1.0
C      1  0.4833540000000  0.5598400000000  0.4439350000000 1.0
C      1  0.4787380000000  0.5378550000000  0.6110540000000 1.0
C      1  0.5091840000000  0.5345520000000  0.3862480000000 1.0
C      1  0.5097930000000  0.5346310000000  0.6149730000000 1.0
C      1  0.4784610000000  0.5369510000000  0.3893690000000 1.0
C      1  0.6186720000000  0.5075530000000  0.4989890000000 1.0
C      1  0.3810430000000  0.5079530000000  0.5002730000000 1.0
C      1  0.5098650000000  0.4515370000000  0.5065550000000 1.0
END
