TITL C-3578196-9646-243 1.86226300319791e-06 125000 -856.489557157037 0 0 136 (C1) n - 1
REM
REM in /home/bkarasulu/work/CARBON/AIRSS/Generating-Clusters/EDIP-Nigel-Params/with-SteepDescent/Higher-Symm/SD-CG/HFTN-CG
REM
REM
REM
REM
REM
REM ./C.cell (12c818d87b63d06a65506943cc24bca4)
REM
REM compiler GCC version 9.2.1 20190827 (Red Hat 9.2.1-1)
REM options -cpp -mtune=generic -march=x86-64 -g -O0 -fpre-include=/usr/include/finclude/math-vector-fortran.h
REM seed -72865119 40421324 -2142090893 -296803528 -246354459 -287226623 1641924520 1725514810 -2139219033 1723144408 -131997197 -1430118925 1019542411 1703351450 1789222333 1197603006 -1797993051 299039940 -1468868624 -787055051 954724586 315578609 -1561509555 730056529 -81435057 -1319572641 -1381532944 366268730 -511070710 -549393763 -1236602636 332082041 294771585
REM
CELL 1.54180   50.00000   50.00000   50.00000   90.00000   90.00000   90.00000
LATT -1
SFAC C  
C      1  0.4890740000000  0.5429790000000  0.4715470000000 1.0
C      1  0.4769220000000  0.5366000000000  0.5190280000000 1.0
C      1  0.5255730000000  0.5393610000000  0.5069480000000 1.0
C      1  0.5170960000000  0.5370080000000  0.4784580000000 1.0
C      1  0.5043270000000  0.5391580000000  0.5263290000000 1.0
C      1  0.4703970000000  0.5347790000000  0.4913820000000 1.0
C      1  0.5102380000000  0.5193980000000  0.5841480000000 1.0
C      1  0.5671730000000  0.5198950000000  0.4492290000000 1.0
C      1  0.4231070000000  0.5168690000000  0.4657300000000 1.0
C      1  0.4830070000000  0.5263470000000  0.5950970000000 1.0
C      1  0.4299160000000  0.5240450000000  0.4360860000000 1.0
C      1  0.5903030000000  0.5268680000000  0.4671570000000 1.0
C      1  0.4319520000000  0.5693040000000  0.5216230000000 1.0
C      1  0.5529970000000  0.5705260000000  0.5471680000000 1.0
C      1  0.5157400000000  0.5734360000000  0.4285860000000 1.0
C      1  0.5716120000000  0.5750310000000  0.5238660000000 1.0
C      1  0.4430360000000  0.5740600000000  0.5494800000000 1.0
C      1  0.4861300000000  0.5771980000000  0.4255200000000 1.0
C      1  0.5153520000000  0.5971480000000  0.4745480000000 1.0
C      1  0.4704640000000  0.5957660000000  0.4994660000000 1.0
C      1  0.5142400000000  0.5964200000000  0.5255730000000 1.0
C      1  0.4857470000000  0.5964250000000  0.4740950000000 1.0
C      1  0.5296940000000  0.5962670000000  0.5003500000000 1.0
C      1  0.4845970000000  0.5954230000000  0.5253040000000 1.0
C      1  0.4768520000000  0.4929340000000  0.5486650000000 1.0
C      1  0.5525600000000  0.4932580000000  0.4959750000000 1.0
C      1  0.4716810000000  0.4904380000000  0.4565870000000 1.0
C      1  0.5050280000000  0.5018240000000  0.5591530000000 1.0
C      1  0.4450030000000  0.4945310000000  0.4752250000000 1.0
C      1  0.5474400000000  0.5029930000000  0.4662990000000 1.0
C      1  0.5549540000000  0.4285630000000  0.4502360000000 1.0
C      1  0.4287570000000  0.4312270000000  0.4772240000000 1.0
C      1  0.5161780000000  0.4281300000000  0.5726900000000 1.0
C      1  0.4417950000000  0.4274060000000  0.4502370000000 1.0
C      1  0.5700660000000  0.4209600000000  0.4743720000000 1.0
C      1  0.4853750000000  0.4250490000000  0.5738390000000 1.0
C      1  0.4304560000000  0.5034920000000  0.5682420000000 1.0
C      1  0.5911250000000  0.5035380000000  0.5262700000000 1.0
C      1  0.4778620000000  0.5035960000000  0.4083410000000 1.0
C      1  0.5754910000000  0.5047390000000  0.5510450000000 1.0
C      1  0.4150980000000  0.5049990000000  0.5433380000000 1.0
C      1  0.5071170000000  0.5050850000000  0.4105750000000 1.0
C      1  0.5643400000000  0.4567940000000  0.4489270000000 1.0
C      1  0.4244560000000  0.4615320000000  0.4721970000000 1.0
C      1  0.5144130000000  0.4569880000000  0.5832490000000 1.0
C      1  0.4347630000000  0.4531710000000  0.4357200000000 1.0
C      1  0.5849800000000  0.4552840000000  0.4699210000000 1.0
C      1  0.4840610000000  0.4557580000000  0.5858950000000 1.0
C      1  0.5544200000000  0.5713160000000  0.4531800000000 1.0
C      1  0.4352390000000  0.5679000000000  0.4756320000000 1.0
C      1  0.5127620000000  0.5697410000000  0.5688680000000 1.0
C      1  0.4473640000000  0.5717030000000  0.4500910000000 1.0
C      1  0.5685330000000  0.5720030000000  0.4777650000000 1.0
C      1  0.4845290000000  0.5719430000000  0.5707490000000 1.0
C      1  0.4313330000000  0.5199510000000  0.5229360000000 1.0
C      1  0.5519850000000  0.5224400000000  0.5464370000000 1.0
C      1  0.5125320000000  0.5245580000000  0.4321840000000 1.0
C      1  0.5731530000000  0.5159030000000  0.5052400000000 1.0
C      1  0.4576580000000  0.5154320000000  0.5616070000000 1.0
C      1  0.4674940000000  0.5128740000000  0.4354420000000 1.0
C      1  0.5569910000000  0.4368890000000  0.5461550000000 1.0
C      1  0.5125170000000  0.4366400000000  0.4271220000000 1.0
C      1  0.4308170000000  0.4398420000000  0.5249520000000 1.0
C      1  0.4465010000000  0.4373390000000  0.5499090000000 1.0
C      1  0.4824950000000  0.4351050000000  0.4281330000000 1.0
C      1  0.5703610000000  0.4355600000000  0.5194450000000 1.0
C      1  0.4764630000000  0.4920980000000  0.5177240000000 1.0
C      1  0.5264660000000  0.4918260000000  0.5131120000000 1.0
C      1  0.4985020000000  0.4927030000000  0.4715440000000 1.0
C      1  0.5246230000000  0.5085160000000  0.5383910000000 1.0
C      1  0.4519830000000  0.5031590000000  0.5038620000000 1.0
C      1  0.5200400000000  0.5121490000000  0.4613140000000 1.0
C      1  0.4085770000000  0.4830170000000  0.5127800000000 1.0
C      1  0.5581140000000  0.4791440000000  0.5726710000000 1.0
C      1  0.5345050000000  0.4795870000000  0.4152990000000 1.0
C      1  0.5960750000000  0.4766120000000  0.5152340000000 1.0
C      1  0.4377490000000  0.4763590000000  0.5773570000000 1.0
C      1  0.4674900000000  0.4763160000000  0.4072650000000 1.0
C      1  0.4315430000000  0.4692940000000  0.5233480000000 1.0
C      1  0.5546400000000  0.4660970000000  0.5471710000000 1.0
C      1  0.5139450000000  0.4659380000000  0.4298150000000 1.0
C      1  0.5681940000000  0.4667550000000  0.5158960000000 1.0
C      1  0.4512570000000  0.4678840000000  0.5520100000000 1.0
C      1  0.4801730000000  0.4661560000000  0.4320680000000 1.0
C      1  0.5890950000000  0.5520690000000  0.5136990000000 1.0
C      1  0.4695150000000  0.5562150000000  0.4133490000000 1.0
C      1  0.4429950000000  0.5516970000000  0.5704200000000 1.0
C      1  0.4183450000000  0.5438710000000  0.5114850000000 1.0
C      1  0.5296730000000  0.5471960000000  0.4226480000000 1.0
C      1  0.5514280000000  0.5457800000000  0.5644390000000 1.0
C      1  0.5554970000000  0.5467320000000  0.4369420000000 1.0
C      1  0.4205640000000  0.5434700000000  0.4821280000000 1.0
C      1  0.5261030000000  0.5459420000000  0.5791960000000 1.0
C      1  0.4455480000000  0.5508220000000  0.4296260000000 1.0
C      1  0.5879310000000  0.5514610000000  0.4842730000000 1.0
C      1  0.4692440000000  0.5510390000000  0.5842390000000 1.0
C      1  0.4293570000000  0.5009110000000  0.4188140000000 1.0
C      1  0.4684490000000  0.5031740000000  0.6014510000000 1.0
C      1  0.6029460000000  0.5037760000000  0.4768370000000 1.0
C      1  0.5755420000000  0.5012310000000  0.4286850000000 1.0
C      1  0.5252830000000  0.5017880000000  0.6016390000000 1.0
C      1  0.3981810000000  0.5022950000000  0.4686560000000 1.0
C      1  0.5992720000000  0.4770110000000  0.4855750000000 1.0
C      1  0.4394130000000  0.4746140000000  0.4157130000000 1.0
C      1  0.4625340000000  0.4763960000000  0.5940800000000 1.0
C      1  0.4042290000000  0.4796990000000  0.4843860000000 1.0
C      1  0.5611870000000  0.4769150000000  0.4269620000000 1.0
C      1  0.5348340000000  0.4775860000000  0.5903900000000 1.0
C      1  0.5532570000000  0.3928540000000  0.5152530000000 1.0
C      1  0.4853510000000  0.3935130000000  0.4458150000000 1.0
C      1  0.4585080000000  0.3945630000000  0.5384110000000 1.0
C      1  0.4438200000000  0.3962850000000  0.5148810000000 1.0
C      1  0.5131790000000  0.3938530000000  0.4447730000000 1.0
C      1  0.5404110000000  0.3937850000000  0.5398350000000 1.0
C      1  0.4848200000000  0.4299110000000  0.4754020000000 1.0
C      1  0.4863260000000  0.4299260000000  0.5245530000000 1.0
C      1  0.5280740000000  0.4289820000000  0.4987810000000 1.0
C      1  0.5130630000000  0.4293490000000  0.4747340000000 1.0
C      1  0.5147160000000  0.4293820000000  0.5236810000000 1.0
C      1  0.4715680000000  0.4309300000000  0.5004540000000 1.0
C      1  0.4717320000000  0.5881480000000  0.4489650000000 1.0
C      1  0.4700790000000  0.5865290000000  0.5498800000000 1.0
C      1  0.5583310000000  0.5875460000000  0.5002950000000 1.0
C      1  0.5298770000000  0.5871870000000  0.4504300000000 1.0
C      1  0.5278820000000  0.5854700000000  0.5494950000000 1.0
C      1  0.4431420000000  0.5841040000000  0.4986500000000 1.0
C      1  0.5556210000000  0.4184300000000  0.5008690000000 1.0
C      1  0.4722580000000  0.4196260000000  0.4505970000000 1.0
C      1  0.4700840000000  0.4202070000000  0.5473300000000 1.0
C      1  0.4431870000000  0.4234870000000  0.5033980000000 1.0
C      1  0.5246500000000  0.4208370000000  0.4489890000000 1.0
C      1  0.5316540000000  0.4211230000000  0.5465310000000 1.0
C      1  0.4532860000000  0.5339110000000  0.5374930000000 1.0
C      1  0.4855800000000  0.5365050000000  0.4414500000000 1.0
C      1  0.5542760000000  0.5359510000000  0.5194030000000 1.0
C      1  0.5002190000000  0.4877920000000  0.5006140000000 1.0
END
