TITL C-3577086-586-55 -9.41810672525752e-07 125000 -415.432424195717 0 0 68 (C1) n - 1
REM
REM in /home/bkarasulu/work/CARBON/AIRSS/Generating-Clusters/EDIP-Nigel-Params/with-SteepDescent/Higher-Symm/SD-CG/HFTN-CG
REM
REM
REM
REM
REM
REM ./C.cell (12c818d87b63d06a65506943cc24bca4)
REM
REM compiler GCC version 9.2.1 20190827 (Red Hat 9.2.1-1)
REM options -cpp -mtune=generic -march=x86-64 -g -O0 -fpre-include=/usr/include/finclude/math-vector-fortran.h
REM seed -1529040405 -483423581 585685571 -836410255 -391932257 536184948 1300791329 171673239 2073392239 -437960671 2042524600 -1710789561 -948192832 277492360 663470035 439521941 -1261163075 -1285446606 1265587269 1762541778 -1619029814 1375988726 -1398772460 106134442 950005086 1188335167 1873260111 1389346285 564346498 -1958104174 -544692839 -2073780251 1734791577
REM
CELL 1.54180   50.00000   50.00000   50.00000   90.00000   90.00000   90.00000
LATT -1
SFAC C  
C      1  0.4475220000000  0.4866780000000  0.4696380000000 1.0
C      1  0.4429020000000  0.5293330000000  0.4778790000000 1.0
C      1  0.5170040000000  0.4684940000000  0.5529260000000 1.0
C      1  0.5408290000000  0.5430540000000  0.4720560000000 1.0
C      1  0.4550620000000  0.4356620000000  0.4941410000000 1.0
C      1  0.4679040000000  0.4982340000000  0.5527130000000 1.0
C      1  0.4782940000000  0.4983750000000  0.5253430000000 1.0
C      1  0.5937130000000  0.5099840000000  0.5082530000000 1.0
C      1  0.5190230000000  0.5057700000000  0.4371470000000 1.0
C      1  0.4587620000000  0.5267310000000  0.5565420000000 1.0
C      1  0.4437210000000  0.4573730000000  0.5379610000000 1.0
C      1  0.5863370000000  0.5331730000000  0.5205400000000 1.0
C      1  0.5089950000000  0.4748240000000  0.5800840000000 1.0
C      1  0.5157010000000  0.5530610000000  0.4598500000000 1.0
C      1  0.5813990000000  0.4883050000000  0.4949190000000 1.0
C      1  0.5601470000000  0.4709530000000  0.4843500000000 1.0
C      1  0.4783950000000  0.5261670000000  0.4297970000000 1.0
C      1  0.4909560000000  0.5613830000000  0.5415360000000 1.0
C      1  0.4743060000000  0.4500300000000  0.4545410000000 1.0
C      1  0.5042010000000  0.5689660000000  0.4836170000000 1.0
C      1  0.4828750000000  0.4723060000000  0.5136040000000 1.0
C      1  0.5031880000000  0.5298000000000  0.4446460000000 1.0
C      1  0.4576610000000  0.5535980000000  0.4733540000000 1.0
C      1  0.5252960000000  0.5717470000000  0.5057830000000 1.0
C      1  0.4972510000000  0.4809390000000  0.4870870000000 1.0
C      1  0.4350590000000  0.5231480000000  0.4494960000000 1.0
C      1  0.4769850000000  0.5621060000000  0.4928340000000 1.0
C      1  0.4960650000000  0.5203470000000  0.5154980000000 1.0
C      1  0.4481350000000  0.4775420000000  0.5553270000000 1.0
C      1  0.5492170000000  0.5358260000000  0.5670190000000 1.0
C      1  0.5046500000000  0.4565100000000  0.4371950000000 1.0
C      1  0.4843360000000  0.5429300000000  0.5649270000000 1.0
C      1  0.5508110000000  0.4713590000000  0.4566850000000 1.0
C      1  0.5462450000000  0.4601980000000  0.5524290000000 1.0
C      1  0.4804340000000  0.4339380000000  0.4794180000000 1.0
C      1  0.5019680000000  0.4841530000000  0.4265290000000 1.0
C      1  0.5376990000000  0.5409870000000  0.5407250000000 1.0
C      1  0.5477260000000  0.4451880000000  0.5284170000000 1.0
C      1  0.5347920000000  0.4956120000000  0.5292720000000 1.0
C      1  0.5554070000000  0.4895850000000  0.5515470000000 1.0
C      1  0.5170780000000  0.5018760000000  0.5819220000000 1.0
C      1  0.4761600000000  0.4970540000000  0.4284900000000 1.0
C      1  0.5232020000000  0.4619010000000  0.4883420000000 1.0
C      1  0.4524810000000  0.5345870000000  0.5273670000000 1.0
C      1  0.5458480000000  0.5081460000000  0.5739710000000 1.0
C      1  0.4900790000000  0.4093130000000  0.4761480000000 1.0
C      1  0.4765370000000  0.4792590000000  0.4622700000000 1.0
C      1  0.5203360000000  0.5656790000000  0.5355150000000 1.0
C      1  0.5176140000000  0.5188800000000  0.5369630000000 1.0
C      1  0.4431850000000  0.5145530000000  0.5038100000000 1.0
C      1  0.5289800000000  0.4514130000000  0.4526490000000 1.0
C      1  0.4267040000000  0.4719990000000  0.4516000000000 1.0
C      1  0.5234610000000  0.4453610000000  0.5135860000000 1.0
C      1  0.5403430000000  0.4989490000000  0.4556160000000 1.0
C      1  0.4546130000000  0.5411320000000  0.4368570000000 1.0
C      1  0.4540170000000  0.4612360000000  0.5112920000000 1.0
C      1  0.5505190000000  0.5083150000000  0.5055600000000 1.0
C      1  0.5344450000000  0.5146870000000  0.4806960000000 1.0
C      1  0.4362450000000  0.4315150000000  0.4733390000000 1.0
C      1  0.4788690000000  0.5463620000000  0.5183030000000 1.0
C      1  0.5577800000000  0.5362840000000  0.5165420000000 1.0
C      1  0.5495600000000  0.5573260000000  0.4962910000000 1.0
C      1  0.4392740000000  0.4846030000000  0.4984960000000 1.0
C      1  0.4305280000000  0.4969080000000  0.4364720000000 1.0
C      1  0.5014480000000  0.4550910000000  0.5305860000000 1.0
C      1  0.4429800000000  0.4469590000000  0.4505850000000 1.0
C      1  0.5058860000000  0.5097870000000  0.4892750000000 1.0
C      1  0.5008540000000  0.5164590000000  0.5618310000000 1.0
END
