TITL C-3578195-8548-289 -1.73319947486127e-07 125000 -666.647240858172 0 0 103 (C1) n - 1
REM
REM in /home/bkarasulu/work/CARBON/AIRSS/Generating-Clusters/EDIP-Nigel-Params/with-SteepDescent/Higher-Symm/SD-CG/HFTN-CG
REM
REM
REM
REM
REM
REM ./C.cell (12c818d87b63d06a65506943cc24bca4)
REM
REM compiler GCC version 9.2.1 20190827 (Red Hat 9.2.1-1)
REM options -cpp -mtune=generic -march=x86-64 -g -O0 -fpre-include=/usr/include/finclude/math-vector-fortran.h
REM seed 30728561 -1922247058 455361030 768362902 2024239848 325381185 -237691946 -1789415835 672458065 -2076921974 1529481710 628763979 1377580157 750485925 -21455347 -616543189 1116179021 765731838 -207597782 598115170 -1464722871 712182361 -219373023 1052919807 -880628968 -1854104822 1541335838 -866578852 238512940 -103728838 638359738 -1724658304 804220392
REM
CELL 1.54180   50.00000   50.00000   50.00000   90.00000   90.00000   90.00000
LATT -1
SFAC C  
C      1  0.4181790000000  0.4831220000000  0.4815140000000 1.0
C      1  0.4191680000000  0.5127930000000  0.4785130000000 1.0
C      1  0.4195660000000  0.5249400000000  0.5056520000000 1.0
C      1  0.4186400000000  0.5026930000000  0.5255900000000 1.0
C      1  0.4186210000000  0.4766290000000  0.5106190000000 1.0
C      1  0.4634890000000  0.4107860000000  0.5015960000000 1.0
C      1  0.4603370000000  0.4669380000000  0.4174020000000 1.0
C      1  0.4639950000000  0.5671820000000  0.4451320000000 1.0
C      1  0.4655570000000  0.5723980000000  0.5492980000000 1.0
C      1  0.4647900000000  0.4752680000000  0.5836810000000 1.0
C      1  0.4896490000000  0.4708900000000  0.4671140000000 1.0
C      1  0.4921580000000  0.5209470000000  0.4613260000000 1.0
C      1  0.4938840000000  0.5425260000000  0.5101330000000 1.0
C      1  0.4891000000000  0.5055320000000  0.5448280000000 1.0
C      1  0.4928990000000  0.4630840000000  0.5166020000000 1.0
C      1  0.4873750000000  0.4470660000000  0.4465980000000 1.0
C      1  0.4870120000000  0.5315570000000  0.4320750000000 1.0
C      1  0.4883150000000  0.5753080000000  0.5113670000000 1.0
C      1  0.4880490000000  0.5123410000000  0.5767430000000 1.0
C      1  0.4859370000000  0.4292450000000  0.5344870000000 1.0
C      1  0.5322610000000  0.5372480000000  0.5696840000000 1.0
C      1  0.5292900000000  0.4437920000000  0.5553510000000 1.0
C      1  0.5295450000000  0.4255300000000  0.4614980000000 1.0
C      1  0.5278930000000  0.5085230000000  0.4144380000000 1.0
C      1  0.5316960000000  0.5770580000000  0.4836190000000 1.0
C      1  0.4407680000000  0.4701570000000  0.4660100000000 1.0
C      1  0.4421730000000  0.5228880000000  0.4611630000000 1.0
C      1  0.4431300000000  0.5440430000000  0.5099320000000 1.0
C      1  0.4416950000000  0.5041320000000  0.5452140000000 1.0
C      1  0.4422160000000  0.4582060000000  0.5176140000000 1.0
C      1  0.4425040000000  0.5540000000000  0.4608740000000 1.0
C      1  0.4448310000000  0.5534520000000  0.5395810000000 1.0
C      1  0.4435310000000  0.4787160000000  0.5630910000000 1.0
C      1  0.4433900000000  0.4330230000000  0.4992190000000 1.0
C      1  0.4395970000000  0.4787000000000  0.4360390000000 1.0
C      1  0.5287170000000  0.4211290000000  0.5090880000000 1.0
C      1  0.5286890000000  0.4608800000000  0.4231510000000 1.0
C      1  0.5286800000000  0.5558020000000  0.4398030000000 1.0
C      1  0.5283950000000  0.5734570000000  0.5358520000000 1.0
C      1  0.5295900000000  0.4847090000000  0.5818500000000 1.0
C      1  0.5519840000000  0.5024810000000  0.4298240000000 1.0
C      1  0.5604520000000  0.5601560000000  0.4792950000000 1.0
C      1  0.5600450000000  0.5420430000000  0.5539460000000 1.0
C      1  0.5552050000000  0.4567960000000  0.5488000000000 1.0
C      1  0.5537580000000  0.4390720000000  0.4725770000000 1.0
C      1  0.4458010000000  0.5314900000000  0.5590050000000 1.0
C      1  0.4450160000000  0.4537040000000  0.5476820000000 1.0
C      1  0.4434620000000  0.4401030000000  0.4709340000000 1.0
C      1  0.4437610000000  0.5083290000000  0.4338160000000 1.0
C      1  0.4454760000000  0.5654920000000  0.4881740000000 1.0
C      1  0.5770840000000  0.4829190000000  0.4779550000000 1.0
C      1  0.5769950000000  0.5109510000000  0.4692990000000 1.0
C      1  0.5826440000000  0.5295360000000  0.4914590000000 1.0
C      1  0.5768800000000  0.5174310000000  0.5414770000000 1.0
C      1  0.5767200000000  0.4813270000000  0.5071160000000 1.0
C      1  0.5059220000000  0.5299020000000  0.5336980000000 1.0
C      1  0.5059980000000  0.4810800000000  0.5386460000000 1.0
C      1  0.5075960000000  0.4696750000000  0.4905600000000 1.0
C      1  0.5209430000000  0.5165230000000  0.4739990000000 1.0
C      1  0.5202930000000  0.5404160000000  0.4927870000000 1.0
C      1  0.4707860000000  0.5364350000000  0.5756940000000 1.0
C      1  0.4698350000000  0.4396900000000  0.5568790000000 1.0
C      1  0.4671280000000  0.4255190000000  0.4584760000000 1.0
C      1  0.4700410000000  0.5110860000000  0.4195560000000 1.0
C      1  0.4714330000000  0.5805420000000  0.4878180000000 1.0
C      1  0.5502220000000  0.5048230000000  0.5483390000000 1.0
C      1  0.5608640000000  0.4592870000000  0.5193490000000 1.0
C      1  0.5601800000000  0.4654170000000  0.4622320000000 1.0
C      1  0.5515590000000  0.5182340000000  0.4554480000000 1.0
C      1  0.5499070000000  0.5434730000000  0.5050660000000 1.0
C      1  0.4745520000000  0.4041120000000  0.5262890000000 1.0
C      1  0.4688870000000  0.4406940000000  0.4230140000000 1.0
C      1  0.4732860000000  0.5553900000000  0.4221740000000 1.0
C      1  0.4759670000000  0.5913280000000  0.5321660000000 1.0
C      1  0.4751810000000  0.4968200000000  0.5974460000000 1.0
C      1  0.4673160000000  0.5135560000000  0.4765420000000 1.0
C      1  0.4675510000000  0.5260120000000  0.5051710000000 1.0
C      1  0.4653820000000  0.5028640000000  0.5262110000000 1.0
C      1  0.4661320000000  0.4761330000000  0.5102330000000 1.0
C      1  0.4656380000000  0.4826960000000  0.4795500000000 1.0
C      1  0.5551620000000  0.4817480000000  0.5662370000000 1.0
C      1  0.5536300000000  0.4359680000000  0.5023460000000 1.0
C      1  0.5532750000000  0.4729880000000  0.4348320000000 1.0
C      1  0.5545260000000  0.5474550000000  0.4514410000000 1.0
C      1  0.5531320000000  0.5593340000000  0.5304390000000 1.0
C      1  0.4847780000000  0.5776340000000  0.4623840000000 1.0
C      1  0.4855460000000  0.5600240000000  0.5667890000000 1.0
C      1  0.4848210000000  0.4554210000000  0.5763040000000 1.0
C      1  0.4828270000000  0.4111920000000  0.4796460000000 1.0
C      1  0.4824400000000  0.4856910000000  0.4166360000000 1.0
C      1  0.5135040000000  0.5699910000000  0.4612360000000 1.0
C      1  0.5124510000000  0.5523040000000  0.5529190000000 1.0
C      1  0.5118790000000  0.4657620000000  0.5653320000000 1.0
C      1  0.5122520000000  0.4173430000000  0.4841390000000 1.0
C      1  0.5116530000000  0.4834320000000  0.4124710000000 1.0
C      1  0.5156370000000  0.4292540000000  0.5340710000000 1.0
C      1  0.5152580000000  0.4387520000000  0.4388280000000 1.0
C      1  0.5149110000000  0.5345040000000  0.4225250000000 1.0
C      1  0.5170070000000  0.5834200000000  0.5100710000000 1.0
C      1  0.5184980000000  0.5130790000000  0.5819980000000 1.0
C      1  0.5282170000000  0.4989730000000  0.5252280000000 1.0
C      1  0.5774890000000  0.5101570000000  0.5136640000000 1.0
C      1  0.5229610000000  0.4942640000000  0.4948040000000 1.0
END
