TITL C-3577088-510-207 -4.44157863506934e-06 125000 -1095.02253643088 0 0 173 (C1) n - 1
REM
REM in /home/bkarasulu/work/CARBON/AIRSS/Generating-Clusters/EDIP-Nigel-Params/with-SteepDescent/Higher-Symm/SD-CG/HFTN-CG
REM
REM
REM
REM
REM
REM ./C.cell (12c818d87b63d06a65506943cc24bca4)
REM
REM compiler GCC version 9.2.1 20190827 (Red Hat 9.2.1-1)
REM options -cpp -mtune=generic -march=x86-64 -g -O0 -fpre-include=/usr/include/finclude/math-vector-fortran.h
REM seed -499586485 -1105938609 -582955226 50748668 -12646983 -1696244756 429094764 1839761720 -202249929 189745749 -2131930 -1351733078 2105619837 -2037110689 199183558 679855359 -767857954 1517868873 1775035813 -355514016 -1560318165 -1603372893 298287384 -496212780 -444409362 1842823342 -554355275 -1866421032 875955717 -1952987359 1380325711 -1457056710 -1101259222
REM
CELL 1.54180   50.00000   50.00000   50.00000   90.00000   90.00000   90.00000
LATT -1
SFAC C  
C      1  0.4913980000000  0.4778900000000  0.4493200000000 1.0
C      1  0.4949310000000  0.4635010000000  0.5433670000000 1.0
C      1  0.4938850000000  0.5561440000000  0.5088540000000 1.0
C      1  0.5020580000000  0.5120420000000  0.5291540000000 1.0
C      1  0.5004800000000  0.5183750000000  0.4759920000000 1.0
C      1  0.5025880000000  0.4686620000000  0.4973960000000 1.0
C      1  0.5310700000000  0.4957860000000  0.6050950000000 1.0
C      1  0.5315860000000  0.5922740000000  0.4511400000000 1.0
C      1  0.5312210000000  0.4111940000000  0.4447330000000 1.0
C      1  0.4058610000000  0.4487890000000  0.4903570000000 1.0
C      1  0.4018580000000  0.5153900000000  0.5489530000000 1.0
C      1  0.4052460000000  0.5355550000000  0.4612850000000 1.0
C      1  0.5110340000000  0.6077320000000  0.4396230000000 1.0
C      1  0.5105920000000  0.3940670000000  0.4359980000000 1.0
C      1  0.5100860000000  0.4988200000000  0.6237500000000 1.0
C      1  0.5405120000000  0.5023860000000  0.5585730000000 1.0
C      1  0.5398920000000  0.5487160000000  0.4691300000000 1.0
C      1  0.5406410000000  0.4480940000000  0.4723850000000 1.0
C      1  0.4794630000000  0.4720860000000  0.5968160000000 1.0
C      1  0.4793700000000  0.5993570000000  0.4763610000000 1.0
C      1  0.4783860000000  0.4302360000000  0.4250260000000 1.0
C      1  0.4653900000000  0.5368240000000  0.4059060000000 1.0
C      1  0.4681510000000  0.3995920000000  0.5160230000000 1.0
C      1  0.4642270000000  0.5655660000000  0.5814240000000 1.0
C      1  0.5860520000000  0.4854370000000  0.5266220000000 1.0
C      1  0.5862940000000  0.5288190000000  0.4981620000000 1.0
C      1  0.5867100000000  0.4825290000000  0.4748110000000 1.0
C      1  0.4566390000000  0.4801820000000  0.4761480000000 1.0
C      1  0.4628330000000  0.4926390000000  0.5111490000000 1.0
C      1  0.4593490000000  0.5155680000000  0.4929880000000 1.0
C      1  0.4467110000000  0.4692180000000  0.5207240000000 1.0
C      1  0.4475930000000  0.5343220000000  0.5146330000000 1.0
C      1  0.4515800000000  0.4980290000000  0.4495220000000 1.0
C      1  0.4306640000000  0.5672570000000  0.5519970000000 1.0
C      1  0.4288180000000  0.5133640000000  0.4134860000000 1.0
C      1  0.4333280000000  0.4231130000000  0.5304150000000 1.0
C      1  0.4918750000000  0.3850480000000  0.5042430000000 1.0
C      1  0.4895460000000  0.5594180000000  0.5971620000000 1.0
C      1  0.4893440000000  0.5537850000000  0.4012670000000 1.0
C      1  0.5453830000000  0.4732070000000  0.5139960000000 1.0
C      1  0.5426060000000  0.5246120000000  0.5151810000000 1.0
C      1  0.5419810000000  0.4997170000000  0.4712820000000 1.0
C      1  0.5450790000000  0.4696500000000  0.5444870000000 1.0
C      1  0.5435900000000  0.5524110000000  0.5025780000000 1.0
C      1  0.5427370000000  0.4751220000000  0.4533150000000 1.0
C      1  0.5752680000000  0.5271840000000  0.4476890000000 1.0
C      1  0.5770930000000  0.4391560000000  0.5012040000000 1.0
C      1  0.5759480000000  0.5307630000000  0.5505660000000 1.0
C      1  0.5354500000000  0.4732160000000  0.4039000000000 1.0
C      1  0.5382090000000  0.4284250000000  0.5720440000000 1.0
C      1  0.5373550000000  0.5965690000000  0.5259920000000 1.0
C      1  0.5822420000000  0.4747570000000  0.4247450000000 1.0
C      1  0.5850630000000  0.4464750000000  0.5592360000000 1.0
C      1  0.5838200000000  0.5763760000000  0.5162170000000 1.0
C      1  0.5146020000000  0.5525970000000  0.5535440000000 1.0
C      1  0.5135500000000  0.5196350000000  0.4294490000000 1.0
C      1  0.5170990000000  0.4257780000000  0.5187580000000 1.0
C      1  0.5242310000000  0.5203350000000  0.3918970000000 1.0
C      1  0.5271870000000  0.3930940000000  0.5375970000000 1.0
C      1  0.5260200000000  0.5840810000000  0.5736150000000 1.0
C      1  0.5512970000000  0.5179110000000  0.5990530000000 1.0
C      1  0.5514670000000  0.5756550000000  0.4348400000000 1.0
C      1  0.5523660000000  0.4043880000000  0.4660900000000 1.0
C      1  0.4575070000000  0.5291770000000  0.5443390000000 1.0
C      1  0.4530560000000  0.5273110000000  0.4568420000000 1.0
C      1  0.4528720000000  0.4529400000000  0.4945230000000 1.0
C      1  0.4451520000000  0.5678910000000  0.4422960000000 1.0
C      1  0.4466810000000  0.4173030000000  0.4702990000000 1.0
C      1  0.4450840000000  0.5178280000000  0.5857870000000 1.0
C      1  0.5582280000000  0.4410770000000  0.5500800000000 1.0
C      1  0.5567300000000  0.5713860000000  0.5249770000000 1.0
C      1  0.5552580000000  0.4849610000000  0.4255290000000 1.0
C      1  0.4922350000000  0.4101200000000  0.5631350000000 1.0
C      1  0.4895530000000  0.5912940000000  0.5445550000000 1.0
C      1  0.4900100000000  0.4900180000000  0.3906410000000 1.0
C      1  0.5362430000000  0.5602430000000  0.4146870000000 1.0
C      1  0.5388440000000  0.3932320000000  0.4900940000000 1.0
C      1  0.5366070000000  0.5434350000000  0.5958830000000 1.0
C      1  0.5190800000000  0.4916680000000  0.3888620000000 1.0
C      1  0.5212140000000  0.4067940000000  0.5630760000000 1.0
C      1  0.5187960000000  0.5963060000000  0.5480370000000 1.0
C      1  0.5847010000000  0.5156340000000  0.5251750000000 1.0
C      1  0.5842810000000  0.5124690000000  0.4730230000000 1.0
C      1  0.5871370000000  0.4684530000000  0.5014310000000 1.0
C      1  0.4771460000000  0.6078580000000  0.5226440000000 1.0
C      1  0.4767170000000  0.4643460000000  0.3929590000000 1.0
C      1  0.4782890000000  0.4286980000000  0.5807150000000 1.0
C      1  0.4772000000000  0.5934130000000  0.5723320000000 1.0
C      1  0.4762390000000  0.5155080000000  0.3839900000000 1.0
C      1  0.4783920000000  0.3909860000000  0.5455410000000 1.0
C      1  0.4393990000000  0.4924550000000  0.5708220000000 1.0
C      1  0.4397820000000  0.5667990000000  0.4717910000000 1.0
C      1  0.4387110000000  0.4419030000000  0.4547600000000 1.0
C      1  0.5167390000000  0.4656210000000  0.5632620000000 1.0
C      1  0.5151010000000  0.5726830000000  0.4968340000000 1.0
C      1  0.5132350000000  0.4598010000000  0.4393850000000 1.0
C      1  0.4729050000000  0.5183780000000  0.5995760000000 1.0
C      1  0.4732580000000  0.5779510000000  0.4348560000000 1.0
C      1  0.4741690000000  0.4057300000000  0.4647300000000 1.0
C      1  0.4512500000000  0.4658660000000  0.4084010000000 1.0
C      1  0.4543720000000  0.4432640000000  0.5702090000000 1.0
C      1  0.4519150000000  0.5945110000000  0.5141240000000 1.0
C      1  0.4843080000000  0.6024520000000  0.4478790000000 1.0
C      1  0.4839680000000  0.4043330000000  0.4369290000000 1.0
C      1  0.4834610000000  0.4946540000000  0.6145250000000 1.0
C      1  0.4019040000000  0.4547970000000  0.5171490000000 1.0
C      1  0.4011730000000  0.5368440000000  0.5312230000000 1.0
C      1  0.4086960000000  0.5095000000000  0.4526750000000 1.0
C      1  0.5510670000000  0.3991080000000  0.5177630000000 1.0
C      1  0.5491800000000  0.5638510000000  0.5772110000000 1.0
C      1  0.5479350000000  0.5334890000000  0.4063250000000 1.0
C      1  0.5112460000000  0.4055470000000  0.4958990000000 1.0
C      1  0.5088670000000  0.5424130000000  0.5822390000000 1.0
C      1  0.5084930000000  0.5496280000000  0.4232640000000 1.0
C      1  0.4539310000000  0.4695840000000  0.5826560000000 1.0
C      1  0.4531580000000  0.5898160000000  0.4851460000000 1.0
C      1  0.4530420000000  0.4442810000000  0.4288750000000 1.0
C      1  0.5025000000000  0.3761070000000  0.5308480000000 1.0
C      1  0.5014790000000  0.5869100000000  0.5918270000000 1.0
C      1  0.5008230000000  0.5357000000000  0.3797520000000 1.0
C      1  0.5663550000000  0.4309510000000  0.4737970000000 1.0
C      1  0.5660550000000  0.5119120000000  0.5723590000000 1.0
C      1  0.5656000000000  0.5554280000000  0.4535980000000 1.0
C      1  0.4449860000000  0.5444530000000  0.5676580000000 1.0
C      1  0.4425250000000  0.5393020000000  0.4275490000000 1.0
C      1  0.4447300000000  0.4155920000000  0.5030400000000 1.0
C      1  0.5239070000000  0.6092270000000  0.5029360000000 1.0
C      1  0.5228630000000  0.4469430000000  0.4046330000000 1.0
C      1  0.5243230000000  0.4433780000000  0.5934360000000 1.0
C      1  0.4180830000000  0.4600650000000  0.4680550000000 1.0
C      1  0.4158860000000  0.4914800000000  0.5517530000000 1.0
C      1  0.4165650000000  0.5500620000000  0.4819760000000 1.0
C      1  0.4151460000000  0.4901200000000  0.4729140000000 1.0
C      1  0.4180610000000  0.4792650000000  0.5233500000000 1.0
C      1  0.4180210000000  0.5307340000000  0.5070710000000 1.0
C      1  0.4943850000000  0.5589400000000  0.4478460000000 1.0
C      1  0.4955950000000  0.4236900000000  0.4774290000000 1.0
C      1  0.4949390000000  0.5164340000000  0.5773540000000 1.0
C      1  0.4828270000000  0.4453320000000  0.4976210000000 1.0
C      1  0.4833070000000  0.5184340000000  0.5501140000000 1.0
C      1  0.4816590000000  0.5346650000000  0.4601450000000 1.0
C      1  0.5870100000000  0.5579490000000  0.4953330000000 1.0
C      1  0.5862070000000  0.4657090000000  0.4509360000000 1.0
C      1  0.5882890000000  0.4736740000000  0.5534310000000 1.0
C      1  0.4538600000000  0.4951960000000  0.4160950000000 1.0
C      1  0.4539550000000  0.4424580000000  0.5400660000000 1.0
C      1  0.4510180000000  0.5699560000000  0.5300560000000 1.0
C      1  0.4873130000000  0.4375000000000  0.5288900000000 1.0
C      1  0.4870230000000  0.5606950000000  0.5374500000000 1.0
C      1  0.4859120000000  0.5014250000000  0.4322210000000 1.0
C      1  0.5854810000000  0.4383250000000  0.4539040000000 1.0
C      1  0.5845850000000  0.4904660000000  0.5749810000000 1.0
C      1  0.5848630000000  0.5685700000000  0.4700200000000 1.0
C      1  0.4050600000000  0.5615860000000  0.5429980000000 1.0
C      1  0.4061500000000  0.5032850000000  0.4257560000000 1.0
C      1  0.4072100000000  0.4325700000000  0.5327280000000 1.0
C      1  0.5583970000000  0.5544370000000  0.5505190000000 1.0
C      1  0.5572150000000  0.5154110000000  0.4277290000000 1.0
C      1  0.5607590000000  0.4269890000000  0.5226570000000 1.0
C      1  0.4996610000000  0.5284660000000  0.5041970000000 1.0
C      1  0.4993020000000  0.4880570000000  0.4746430000000 1.0
C      1  0.5035180000000  0.4824280000000  0.5239900000000 1.0
C      1  0.5290660000000  0.4527060000000  0.5003010000000 1.0
C      1  0.5277390000000  0.5237850000000  0.5404350000000 1.0
C      1  0.5266180000000  0.5222570000000  0.4602940000000 1.0
C      1  0.5181260000000  0.4945240000000  0.5782720000000 1.0
C      1  0.5180560000000  0.5699760000000  0.4654970000000 1.0
C      1  0.5179730000000  0.4344740000000  0.4575770000000 1.0
C      1  0.4938320000000  0.4424700000000  0.4034910000000 1.0
C      1  0.4950030000000  0.4467790000000  0.5967970000000 1.0
C      1  0.4944950000000  0.6116910000000  0.4987100000000 1.0
C      1  0.4132900000000  0.5002360000000  0.5009760000000 1.0
C      1  0.5377060000000  0.4989270000000  0.5006790000000 1.0
END
