TITL C-3577082-504-67 1.3646215895465e-07 125000 -110.693417744015 0 0 19 (C1) n - 1
REM
REM in /home/bkarasulu/work/CARBON/AIRSS/Generating-Clusters/EDIP-Nigel-Params/with-SteepDescent/Higher-Symm/SD-CG/HFTN-CG
REM
REM
REM
REM
REM
REM ./C.cell (12c818d87b63d06a65506943cc24bca4)
REM
REM compiler GCC version 9.2.1 20190827 (Red Hat 9.2.1-1)
REM options -cpp -mtune=generic -march=x86-64 -g -O0 -fpre-include=/usr/include/finclude/math-vector-fortran.h
REM seed -1885608477 -1954923391 1177435854 -1233962302 -1076446504 -734591374 1642443154 13917874 -602781831 -347584642 2136325139 -390403669 1796718957 1057217201 -101338620 -1986806814 -2069849820 797942032 2137967474 -515576353 -1705743070 1981205035 136347258 1167906116 131040279 1880854966 -1262334087 1615431991 407902381 600313423 -731115323 1510468890 -1383987724
REM
CELL 1.54180   50.00000   50.00000   50.00000   90.00000   90.00000   90.00000
LATT -1
SFAC C  
C      1  0.4765750000000  0.5433870000000  0.5102180000000 1.0
C      1  0.4592680000000  0.4776740000000  0.4949490000000 1.0
C      1  0.5219460000000  0.5155440000000  0.4587190000000 1.0
C      1  0.4774280000000  0.5157340000000  0.5379420000000 1.0
C      1  0.5219710000000  0.4628150000000  0.5165360000000 1.0
C      1  0.5437310000000  0.4752100000000  0.5032140000000 1.0
C      1  0.5425190000000  0.5218370000000  0.4794760000000 1.0
C      1  0.4567780000000  0.5240090000000  0.5195850000000 1.0
C      1  0.4804850000000  0.4633920000000  0.4834620000000 1.0
C      1  0.5235980000000  0.5450900000000  0.4834800000000 1.0
C      1  0.5112030000000  0.4771890000000  0.5388180000000 1.0
C      1  0.4908970000000  0.4768120000000  0.4613690000000 1.0
C      1  0.4998150000000  0.5014460000000  0.4713340000000 1.0
C      1  0.5008890000000  0.4537360000000  0.5002180000000 1.0
C      1  0.4507070000000  0.5021520000000  0.5028680000000 1.0
C      1  0.4937320000000  0.4954710000000  0.5259070000000 1.0
C      1  0.5035960000000  0.5361300000000  0.5032360000000 1.0
C      1  0.5366420000000  0.5025020000000  0.5026720000000 1.0
C      1  0.5065260000000  0.5067550000000  0.5013180000000 1.0
END
