TITL C-3577089-586-589 1.18573438011679e-06 125000 -1195.17325060185 0 0 193 (C1) n - 1
REM
REM in /home/bkarasulu/work/CARBON/AIRSS/Generating-Clusters/EDIP-Nigel-Params/with-SteepDescent/Higher-Symm/SD-CG/HFTN-CG
REM
REM
REM
REM
REM
REM ./C.cell (12c818d87b63d06a65506943cc24bca4)
REM
REM compiler GCC version 9.2.1 20190827 (Red Hat 9.2.1-1)
REM options -cpp -mtune=generic -march=x86-64 -g -O0 -fpre-include=/usr/include/finclude/math-vector-fortran.h
REM seed -654576728 2121694760 -735747118 -2005572487 -17548704 -939179628 227517534 -896470778 -1582406673 -356793982 -1049740103 -1904615314 1059408439 -943345024 -34473554 720502956 1705635329 -1794592559 -756014304 -2113949579 -1635100188 1976256888 309081807 -645643077 -1261146089 207009832 -1746357519 877783472 -1082083521 396856465 -2127616403 78626737 -505437873
REM
CELL 1.54180   50.00000   50.00000   50.00000   90.00000   90.00000   90.00000
LATT -1
SFAC C  
C      1  0.4654750000000  0.5049400000000  0.5694320000000 1.0
C      1  0.4944500000000  0.5709820000000  0.4851440000000 1.0
C      1  0.5552410000000  0.4888720000000  0.5026380000000 1.0
C      1  0.5145380000000  0.5079940000000  0.4295530000000 1.0
C      1  0.4970790000000  0.5044420000000  0.5715720000000 1.0
C      1  0.4773620000000  0.5020960000000  0.4253390000000 1.0
C      1  0.4780120000000  0.5954640000000  0.5230150000000 1.0
C      1  0.4756640000000  0.4038750000000  0.4792210000000 1.0
C      1  0.4915620000000  0.4321060000000  0.5115610000000 1.0
C      1  0.4540490000000  0.4863780000000  0.5031500000000 1.0
C      1  0.4637730000000  0.5092000000000  0.4876010000000 1.0
C      1  0.5449360000000  0.5123640000000  0.5155910000000 1.0
C      1  0.4382030000000  0.6006190000000  0.4942460000000 1.0
C      1  0.6004540000000  0.4966600000000  0.4385460000000 1.0
C      1  0.4941860000000  0.4352950000000  0.6121860000000 1.0
C      1  0.5570780000000  0.6033530000000  0.4978700000000 1.0
C      1  0.5622600000000  0.3977070000000  0.4998750000000 1.0
C      1  0.4384150000000  0.3991420000000  0.5111060000000 1.0
C      1  0.3974580000000  0.4905120000000  0.5559370000000 1.0
C      1  0.4020360000000  0.5027050000000  0.4413480000000 1.0
C      1  0.5989550000000  0.5074450000000  0.5627550000000 1.0
C      1  0.5016610000000  0.4455870000000  0.3888720000000 1.0
C      1  0.5219340000000  0.5557110000000  0.6024440000000 1.0
C      1  0.4976970000000  0.5683730000000  0.3883060000000 1.0
C      1  0.5339260000000  0.5264340000000  0.6051600000000 1.0
C      1  0.5307820000000  0.5998340000000  0.5109520000000 1.0
C      1  0.6002820000000  0.5184820000000  0.5339270000000 1.0
C      1  0.4795680000000  0.5457610000000  0.3936460000000 1.0
C      1  0.4832270000000  0.4634780000000  0.6103720000000 1.0
C      1  0.5140750000000  0.4727840000000  0.3914320000000 1.0
C      1  0.4627230000000  0.6055910000000  0.4782000000000 1.0
C      1  0.4644510000000  0.3974950000000  0.5257750000000 1.0
C      1  0.5344260000000  0.3968180000000  0.4876570000000 1.0
C      1  0.4114150000000  0.5162480000000  0.4654310000000 1.0
C      1  0.4140230000000  0.4776220000000  0.5353410000000 1.0
C      1  0.5922540000000  0.4811000000000  0.4619490000000 1.0
C      1  0.5694570000000  0.4593450000000  0.4490020000000 1.0
C      1  0.4645670000000  0.4563040000000  0.5860900000000 1.0
C      1  0.4681210000000  0.5760710000000  0.4698830000000 1.0
C      1  0.4353660000000  0.4606620000000  0.5487650000000 1.0
C      1  0.4330840000000  0.5365860000000  0.4563530000000 1.0
C      1  0.5763090000000  0.5364660000000  0.5373130000000 1.0
C      1  0.5182470000000  0.4744540000000  0.4227700000000 1.0
C      1  0.5353990000000  0.5407840000000  0.5635150000000 1.0
C      1  0.4618380000000  0.5527550000000  0.4194670000000 1.0
C      1  0.5397160000000  0.5746510000000  0.5261700000000 1.0
C      1  0.5445160000000  0.4153260000000  0.4631350000000 1.0
C      1  0.4696510000000  0.4275910000000  0.5313320000000 1.0
C      1  0.4927010000000  0.4932500000000  0.3844540000000 1.0
C      1  0.4849660000000  0.3897220000000  0.5040400000000 1.0
C      1  0.4100300000000  0.4956010000000  0.4875430000000 1.0
C      1  0.5067580000000  0.4823130000000  0.6084560000000 1.0
C      1  0.4992150000000  0.5216170000000  0.3921120000000 1.0
C      1  0.5081260000000  0.5115550000000  0.6080830000000 1.0
C      1  0.5127060000000  0.3995700000000  0.5110710000000 1.0
C      1  0.5101520000000  0.5989290000000  0.4891870000000 1.0
C      1  0.4845240000000  0.6122020000000  0.4986300000000 1.0
C      1  0.5973160000000  0.4966240000000  0.5145720000000 1.0
C      1  0.5935810000000  0.5023710000000  0.4846900000000 1.0
C      1  0.4252500000000  0.4967260000000  0.5136350000000 1.0
C      1  0.5011270000000  0.4793760000000  0.5281130000000 1.0
C      1  0.4868690000000  0.5473240000000  0.5083260000000 1.0
C      1  0.5361130000000  0.4842190000000  0.4813710000000 1.0
C      1  0.5314660000000  0.4558790000000  0.4827620000000 1.0
C      1  0.5088100000000  0.5238060000000  0.5476370000000 1.0
C      1  0.4904590000000  0.5336610000000  0.4567560000000 1.0
C      1  0.5245780000000  0.5382250000000  0.4852830000000 1.0
C      1  0.5346020000000  0.4468260000000  0.5121450000000 1.0
C      1  0.4825600000000  0.4466640000000  0.4868350000000 1.0
C      1  0.4709250000000  0.4838790000000  0.5280450000000 1.0
C      1  0.4859710000000  0.5062450000000  0.4694070000000 1.0
C      1  0.5152420000000  0.5086670000000  0.5213230000000 1.0
C      1  0.5610500000000  0.5199360000000  0.4623060000000 1.0
C      1  0.5093700000000  0.4501390000000  0.5673090000000 1.0
C      1  0.4526080000000  0.5821650000000  0.5141820000000 1.0
C      1  0.4419900000000  0.5251170000000  0.5255320000000 1.0
C      1  0.4485350000000  0.4734540000000  0.4550550000000 1.0
C      1  0.5468780000000  0.4816380000000  0.5500520000000 1.0
C      1  0.4963550000000  0.4619510000000  0.4425750000000 1.0
C      1  0.4995930000000  0.5449920000000  0.5852680000000 1.0
C      1  0.5027620000000  0.5381890000000  0.4299820000000 1.0
C      1  0.5469780000000  0.5754850000000  0.4787100000000 1.0
C      1  0.5542580000000  0.4149730000000  0.5226260000000 1.0
C      1  0.4500580000000  0.4170810000000  0.4889760000000 1.0
C      1  0.4251860000000  0.5176760000000  0.5941560000000 1.0
C      1  0.5194250000000  0.5935450000000  0.4334760000000 1.0
C      1  0.5800800000000  0.4508840000000  0.5207250000000 1.0
C      1  0.5528750000000  0.5202850000000  0.4116710000000 1.0
C      1  0.5554030000000  0.4821610000000  0.5936200000000 1.0
C      1  0.4403580000000  0.4841940000000  0.4041630000000 1.0
C      1  0.4866370000000  0.5922460000000  0.5733720000000 1.0
C      1  0.4798610000000  0.4083990000000  0.4282180000000 1.0
C      1  0.5110420000000  0.4022250000000  0.5672460000000 1.0
C      1  0.4131670000000  0.4415320000000  0.4839550000000 1.0
C      1  0.4134500000000  0.5585910000000  0.5228070000000 1.0
C      1  0.5940860000000  0.5610890000000  0.4785240000000 1.0
C      1  0.5283330000000  0.4257460000000  0.5736260000000 1.0
C      1  0.4375500000000  0.5677660000000  0.5361860000000 1.0
C      1  0.5660120000000  0.5356440000000  0.4344800000000 1.0
C      1  0.4724380000000  0.4365400000000  0.4278580000000 1.0
C      1  0.4786610000000  0.5641700000000  0.5758230000000 1.0
C      1  0.5274670000000  0.5663270000000  0.4272450000000 1.0
C      1  0.5718940000000  0.5710160000000  0.4601300000000 1.0
C      1  0.5766320000000  0.4259060000000  0.5373670000000 1.0
C      1  0.4316290000000  0.4254090000000  0.4666970000000 1.0
C      1  0.4028200000000  0.5303900000000  0.5817510000000 1.0
C      1  0.4341990000000  0.4656350000000  0.4276120000000 1.0
C      1  0.5666970000000  0.4690690000000  0.5696250000000 1.0
C      1  0.5249680000000  0.5597630000000  0.3986350000000 1.0
C      1  0.5493100000000  0.3989560000000  0.5452230000000 1.0
C      1  0.3976920000000  0.5198190000000  0.5558920000000 1.0
C      1  0.4622110000000  0.5508210000000  0.5945600000000 1.0
C      1  0.4771380000000  0.4520830000000  0.4042460000000 1.0
C      1  0.5235040000000  0.4383670000000  0.6016190000000 1.0
C      1  0.4394760000000  0.4007040000000  0.4537040000000 1.0
C      1  0.4431910000000  0.5925330000000  0.5507120000000 1.0
C      1  0.5623450000000  0.5999630000000  0.4545840000000 1.0
C      1  0.5953770000000  0.5254300000000  0.4442430000000 1.0
C      1  0.5946760000000  0.4775410000000  0.5601860000000 1.0
C      1  0.4100900000000  0.4741780000000  0.4446910000000 1.0
C      1  0.4352020000000  0.5667050000000  0.4177070000000 1.0
C      1  0.5747170000000  0.4081470000000  0.4527430000000 1.0
C      1  0.4273710000000  0.4363040000000  0.5668210000000 1.0
C      1  0.5604800000000  0.5726590000000  0.5647290000000 1.0
C      1  0.5472450000000  0.4307110000000  0.4195120000000 1.0
C      1  0.4445280000000  0.4342530000000  0.5911880000000 1.0
C      1  0.4197500000000  0.4128420000000  0.5536480000000 1.0
C      1  0.4227890000000  0.5847220000000  0.4501720000000 1.0
C      1  0.5669690000000  0.5941100000000  0.5447490000000 1.0
C      1  0.5739330000000  0.4327680000000  0.4327500000000 1.0
C      1  0.5789100000000  0.5500090000000  0.5634900000000 1.0
C      1  0.4196110000000  0.5583990000000  0.4401610000000 1.0
C      1  0.5120810000000  0.5551240000000  0.4657800000000 1.0
C      1  0.5539960000000  0.4672750000000  0.5225360000000 1.0
C      1  0.4625390000000  0.5085680000000  0.5411130000000 1.0
C      1  0.4948760000000  0.5499830000000  0.5373220000000 1.0
C      1  0.5051960000000  0.4495750000000  0.4683390000000 1.0
C      1  0.5093470000000  0.4504360000000  0.5239270000000 1.0
C      1  0.4536560000000  0.4591810000000  0.4852430000000 1.0
C      1  0.4589410000000  0.5347890000000  0.5011860000000 1.0
C      1  0.5520100000000  0.5336730000000  0.4924430000000 1.0
C      1  0.5406860000000  0.4982880000000  0.4557590000000 1.0
C      1  0.5149020000000  0.4791550000000  0.5572120000000 1.0
C      1  0.4770250000000  0.4848840000000  0.4490830000000 1.0
C      1  0.5486250000000  0.4777710000000  0.4337900000000 1.0
C      1  0.4811040000000  0.4405650000000  0.5633280000000 1.0
C      1  0.4448620000000  0.5528730000000  0.4808890000000 1.0
C      1  0.4487450000000  0.4792890000000  0.5740090000000 1.0
C      1  0.4534850000000  0.5243710000000  0.4302650000000 1.0
C      1  0.5531370000000  0.5181720000000  0.5456990000000 1.0
C      1  0.5273900000000  0.4233710000000  0.4400010000000 1.0
C      1  0.5199220000000  0.5666360000000  0.5475460000000 1.0
C      1  0.4762860000000  0.5720120000000  0.4402360000000 1.0
C      1  0.5630540000000  0.5537730000000  0.5144990000000 1.0
C      1  0.5562980000000  0.4439960000000  0.4721210000000 1.0
C      1  0.4475540000000  0.4470330000000  0.5219510000000 1.0
C      1  0.4181190000000  0.4390370000000  0.5138360000000 1.0
C      1  0.4330600000000  0.5122560000000  0.4109740000000 1.0
C      1  0.5096830000000  0.4068230000000  0.4227230000000 1.0
C      1  0.5809900000000  0.4409980000000  0.4911750000000 1.0
C      1  0.5881640000000  0.5675150000000  0.5075520000000 1.0
C      1  0.4170980000000  0.5611610000000  0.4926410000000 1.0
C      1  0.5544740000000  0.5116670000000  0.5895490000000 1.0
C      1  0.5622720000000  0.4918660000000  0.4112480000000 1.0
C      1  0.4249060000000  0.4881240000000  0.5907310000000 1.0
C      1  0.4824120000000  0.4110070000000  0.5704920000000 1.0
C      1  0.4903500000000  0.5950510000000  0.4281530000000 1.0
C      1  0.5160990000000  0.5899660000000  0.5674800000000 1.0
C      1  0.4510110000000  0.5267250000000  0.5846300000000 1.0
C      1  0.5318840000000  0.6044960000000  0.4577060000000 1.0
C      1  0.5993770000000  0.4712570000000  0.5304210000000 1.0
C      1  0.5288240000000  0.5306830000000  0.3947870000000 1.0
C      1  0.5304440000000  0.4678970000000  0.6021270000000 1.0
C      1  0.4705450000000  0.4820420000000  0.4021200000000 1.0
C      1  0.4701790000000  0.6045240000000  0.5505790000000 1.0
C      1  0.4677290000000  0.3933510000000  0.4522190000000 1.0
C      1  0.5214970000000  0.3914460000000  0.5405600000000 1.0
C      1  0.4091120000000  0.4692360000000  0.4741900000000 1.0
C      1  0.4044930000000  0.5321660000000  0.5307390000000 1.0
C      1  0.6016810000000  0.5308130000000  0.4736630000000 1.0
C      1  0.4160170000000  0.4117940000000  0.5257520000000 1.0
C      1  0.4058780000000  0.5154430000000  0.4167060000000 1.0
C      1  0.5171290000000  0.4217710000000  0.3973300000000 1.0
C      1  0.5840460000000  0.4112440000000  0.4831800000000 1.0
C      1  0.5788810000000  0.5953480000000  0.5167870000000 1.0
C      1  0.4166520000000  0.5876210000000  0.4788160000000 1.0
C      1  0.5798050000000  0.5246990000000  0.5807420000000 1.0
C      1  0.5898720000000  0.4887180000000  0.4140820000000 1.0
C      1  0.3996270000000  0.4789240000000  0.5817860000000 1.0
C      1  0.4753570000000  0.4151790000000  0.5991210000000 1.0
C      1  0.4878960000000  0.5921980000000  0.4002250000000 1.0
C      1  0.5332740000000  0.5797570000000  0.5899070000000 1.0
C      1  0.5036260000000  0.5243490000000  0.4991190000000 1.0
END
