TITL C-3578207-9274-311 -2.87038528083129e-06 125000 -1114.5406838296 0 0 175 (C1) n - 1
REM
REM in /home/bkarasulu/work/CARBON/AIRSS/Generating-Clusters/EDIP-Nigel-Params/with-SteepDescent/Higher-Symm/SD-CG/HFTN-CG
REM
REM
REM
REM
REM
REM ./C.cell (12c818d87b63d06a65506943cc24bca4)
REM
REM compiler GCC version 9.2.1 20190827 (Red Hat 9.2.1-1)
REM options -cpp -mtune=generic -march=x86-64 -g -O0 -fpre-include=/usr/include/finclude/math-vector-fortran.h
REM seed 1564849929 460452630 641247485 1564609991 -641151888 -366188764 1422589842 -1714657708 -10411097 1141012690 -1625167140 -310359520 -961000458 1579126636 -1844893732 10062633 265728338 -933953421 -480709007 -1039031945 -51463578 -1754583927 709556033 539866569 -1124144863 -1262350385 1375330932 -804628533 -306123390 -1093925590 1021453304 -890415075 -1115465548
REM
CELL 1.54180   50.00000   50.00000   50.00000   90.00000   90.00000   90.00000
LATT -1
SFAC C  
C      1  0.5270410000000  0.4608550000000  0.5494680000000 1.0
C      1  0.5555190000000  0.4628980000000  0.5095680000000 1.0
C      1  0.5419460000000  0.4635290000000  0.4631880000000 1.0
C      1  0.4972410000000  0.4625750000000  0.4441280000000 1.0
C      1  0.4544710000000  0.4623180000000  0.4671190000000 1.0
C      1  0.4457780000000  0.4614590000000  0.5150150000000 1.0
C      1  0.4779200000000  0.4624520000000  0.5513950000000 1.0
C      1  0.4076240000000  0.4925800000000  0.4289530000000 1.0
C      1  0.3871050000000  0.4923840000000  0.5281740000000 1.0
C      1  0.4523020000000  0.4921690000000  0.6052880000000 1.0
C      1  0.5528550000000  0.4890730000000  0.6046410000000 1.0
C      1  0.6139730000000  0.4907490000000  0.5239420000000 1.0
C      1  0.5897680000000  0.4931680000000  0.4270330000000 1.0
C      1  0.4984850000000  0.4925520000000  0.3834330000000 1.0
C      1  0.5122410000000  0.5263180000000  0.5285100000000 1.0
C      1  0.5318670000000  0.5323320000000  0.5081480000000 1.0
C      1  0.5224350000000  0.5310520000000  0.4796470000000 1.0
C      1  0.4961250000000  0.5293280000000  0.4673570000000 1.0
C      1  0.4698970000000  0.5302520000000  0.4792220000000 1.0
C      1  0.4651910000000  0.5284050000000  0.5073670000000 1.0
C      1  0.4840120000000  0.5316810000000  0.5297910000000 1.0
C      1  0.4247440000000  0.4710050000000  0.4266200000000 1.0
C      1  0.3958410000000  0.4709740000000  0.5130510000000 1.0
C      1  0.4455070000000  0.4704620000000  0.5895530000000 1.0
C      1  0.5360530000000  0.4680830000000  0.5988940000000 1.0
C      1  0.6004110000000  0.4684010000000  0.5332350000000 1.0
C      1  0.5882260000000  0.4708620000000  0.4431880000000 1.0
C      1  0.5106210000000  0.4709860000000  0.3955640000000 1.0
C      1  0.4452480000000  0.5289070000000  0.4150030000000 1.0
C      1  0.3997280000000  0.5298810000000  0.4899450000000 1.0
C      1  0.4307680000000  0.5291760000000  0.5719820000000 1.0
C      1  0.5132970000000  0.5287990000000  0.5980720000000 1.0
C      1  0.5864560000000  0.5249240000000  0.5519060000000 1.0
C      1  0.5917810000000  0.5297150000000  0.4681560000000 1.0
C      1  0.5315230000000  0.5296150000000  0.4071470000000 1.0
C      1  0.4165700000000  0.4246670000000  0.5122350000000 1.0
C      1  0.4578750000000  0.4246320000000  0.5718870000000 1.0
C      1  0.5299910000000  0.4228310000000  0.5773510000000 1.0
C      1  0.5792520000000  0.4237300000000  0.5236040000000 1.0
C      1  0.5684920000000  0.4253590000000  0.4525370000000 1.0
C      1  0.5061040000000  0.4252380000000  0.4163770000000 1.0
C      1  0.4383450000000  0.4251230000000  0.4428460000000 1.0
C      1  0.4174830000000  0.5517210000000  0.5582740000000 1.0
C      1  0.4952430000000  0.5519650000000  0.6009760000000 1.0
C      1  0.5787820000000  0.5471590000000  0.5693450000000 1.0
C      1  0.6004360000000  0.5522670000000  0.4851470000000 1.0
C      1  0.5498430000000  0.5524140000000  0.4122340000000 1.0
C      1  0.4611630000000  0.5515910000000  0.4039160000000 1.0
C      1  0.4020080000000  0.5523710000000  0.4706690000000 1.0
C      1  0.5155130000000  0.5710810000000  0.5353240000000 1.0
C      1  0.5375640000000  0.5601500000000  0.5153940000000 1.0
C      1  0.5349800000000  0.5727440000000  0.4874850000000 1.0
C      1  0.5089830000000  0.5710230000000  0.4672020000000 1.0
C      1  0.4793310000000  0.5729320000000  0.4770370000000 1.0
C      1  0.4699930000000  0.5720930000000  0.5068780000000 1.0
C      1  0.4836900000000  0.5604460000000  0.5323090000000 1.0
C      1  0.5464210000000  0.5913900000000  0.4484170000000 1.0
C      1  0.4896570000000  0.5885810000000  0.4279560000000 1.0
C      1  0.4402700000000  0.5876940000000  0.4627630000000 1.0
C      1  0.4348800000000  0.5899380000000  0.5257530000000 1.0
C      1  0.4802230000000  0.5893130000000  0.5660040000000 1.0
C      1  0.5477030000000  0.5836640000000  0.5693000000000 1.0
C      1  0.5700200000000  0.5904380000000  0.5082740000000 1.0
C      1  0.4085420000000  0.5388220000000  0.4450560000000 1.0
C      1  0.4006960000000  0.5384240000000  0.5377450000000 1.0
C      1  0.4689930000000  0.5379320000000  0.6005330000000 1.0
C      1  0.5596930000000  0.5342560000000  0.5877030000000 1.0
C      1  0.6057650000000  0.5369740000000  0.5100100000000 1.0
C      1  0.5724980000000  0.5392830000000  0.4258330000000 1.0
C      1  0.4861620000000  0.5384710000000  0.3953110000000 1.0
C      1  0.5390430000000  0.4880390000000  0.5075490000000 1.0
C      1  0.5292440000000  0.4880250000000  0.4750910000000 1.0
C      1  0.4979730000000  0.4863780000000  0.4618940000000 1.0
C      1  0.4680710000000  0.4867830000000  0.4769640000000 1.0
C      1  0.4620990000000  0.4854620000000  0.5101410000000 1.0
C      1  0.4832530000000  0.4875410000000  0.5360480000000 1.0
C      1  0.5176810000000  0.4839190000000  0.5333050000000 1.0
C      1  0.5811370000000  0.4238110000000  0.4782370000000 1.0
C      1  0.5341170000000  0.4246550000000  0.4229660000000 1.0
C      1  0.4610120000000  0.4244740000000  0.4250610000000 1.0
C      1  0.4169600000000  0.4244340000000  0.4834080000000 1.0
C      1  0.4352710000000  0.4239470000000  0.5541490000000 1.0
C      1  0.5018370000000  0.4230870000000  0.5834730000000 1.0
C      1  0.5670100000000  0.4219810000000  0.5495520000000 1.0
C      1  0.5588520000000  0.5692790000000  0.4671680000000 1.0
C      1  0.5093320000000  0.5667720000000  0.4341350000000 1.0
C      1  0.4535360000000  0.5645350000000  0.4491150000000 1.0
C      1  0.4316020000000  0.5657450000000  0.5065310000000 1.0
C      1  0.4649940000000  0.5648780000000  0.5570240000000 1.0
C      1  0.5248080000000  0.5666740000000  0.5650900000000 1.0
C      1  0.5663050000000  0.5644540000000  0.5258560000000 1.0
C      1  0.5357960000000  0.5760370000000  0.4254540000000 1.0
C      1  0.4636830000000  0.5745730000000  0.4235730000000 1.0
C      1  0.4202030000000  0.5748260000000  0.4808030000000 1.0
C      1  0.4373260000000  0.5731590000000  0.5500270000000 1.0
C      1  0.5019870000000  0.5756850000000  0.5821180000000 1.0
C      1  0.5679470000000  0.5705410000000  0.5552120000000 1.0
C      1  0.5818770000000  0.5773930000000  0.4841430000000 1.0
C      1  0.5793020000000  0.5342130000000  0.5241650000000 1.0
C      1  0.5658180000000  0.5382310000000  0.4555510000000 1.0
C      1  0.5050950000000  0.5372350000000  0.4193350000000 1.0
C      1  0.4387460000000  0.5365180000000  0.4434180000000 1.0
C      1  0.4179310000000  0.5368760000000  0.5128910000000 1.0
C      1  0.4602040000000  0.5358440000000  0.5717440000000 1.0
C      1  0.5313520000000  0.5353780000000  0.5751030000000 1.0
C      1  0.5429200000000  0.5184550000000  0.4630510000000 1.0
C      1  0.4968600000000  0.5175030000000  0.4409370000000 1.0
C      1  0.4505380000000  0.5163420000000  0.4631110000000 1.0
C      1  0.4401860000000  0.5162680000000  0.5142770000000 1.0
C      1  0.4748330000000  0.5152600000000  0.5533290000000 1.0
C      1  0.5250130000000  0.5158610000000  0.5524010000000 1.0
C      1  0.5563780000000  0.5151590000000  0.5121610000000 1.0
C      1  0.4647170000000  0.4391490000000  0.5110970000000 1.0
C      1  0.4867520000000  0.4396450000000  0.5341800000000 1.0
C      1  0.5187670000000  0.4391740000000  0.5311710000000 1.0
C      1  0.5367500000000  0.4400590000000  0.5047020000000 1.0
C      1  0.5268360000000  0.4403790000000  0.4744130000000 1.0
C      1  0.4968250000000  0.4398890000000  0.4631370000000 1.0
C      1  0.4691800000000  0.4396110000000  0.4793590000000 1.0
C      1  0.5371000000000  0.4756280000000  0.4054370000000 1.0
C      1  0.4487310000000  0.4752000000000  0.4115010000000 1.0
C      1  0.3991550000000  0.4755740000000  0.4849900000000 1.0
C      1  0.4255170000000  0.4750060000000  0.5695300000000 1.0
C      1  0.5080960000000  0.4738610000000  0.6010510000000 1.0
C      1  0.5854300000000  0.4717790000000  0.5575170000000 1.0
C      1  0.5970390000000  0.4749000000000  0.4700780000000 1.0
C      1  0.4869380000000  0.6052600000000  0.5378680000000 1.0
C      1  0.5158400000000  0.6002550000000  0.5266590000000 1.0
C      1  0.5371180000000  0.6019620000000  0.4994140000000 1.0
C      1  0.5225790000000  0.6075270000000  0.4633840000000 1.0
C      1  0.4915640000000  0.6076020000000  0.4528310000000 1.0
C      1  0.4666770000000  0.6022810000000  0.4748840000000 1.0
C      1  0.4639110000000  0.6014240000000  0.5149600000000 1.0
C      1  0.4782090000000  0.5107140000000  0.3879030000000 1.0
C      1  0.3978870000000  0.5109970000000  0.4471930000000 1.0
C      1  0.3956480000000  0.5106140000000  0.5471760000000 1.0
C      1  0.4727320000000  0.5101490000000  0.6104270000000 1.0
C      1  0.5691320000000  0.5065600000000  0.5909640000000 1.0
C      1  0.6143500000000  0.5093700000000  0.5033730000000 1.0
C      1  0.5731760000000  0.5115410000000  0.4148490000000 1.0
C      1  0.5378830000000  0.4110790000000  0.5502690000000 1.0
C      1  0.5633950000000  0.4119330000000  0.5007900000000 1.0
C      1  0.5408920000000  0.4128360000000  0.4507370000000 1.0
C      1  0.4872350000000  0.4127500000000  0.4368250000000 1.0
C      1  0.4425580000000  0.4125920000000  0.4702460000000 1.0
C      1  0.4408290000000  0.4121300000000  0.5258320000000 1.0
C      1  0.4833700000000  0.4119110000000  0.5613020000000 1.0
C      1  0.5840740000000  0.4522160000000  0.5142640000000 1.0
C      1  0.5635960000000  0.4538360000000  0.4434710000000 1.0
C      1  0.4954290000000  0.4535380000000  0.4146670000000 1.0
C      1  0.4303160000000  0.4534500000000  0.4502240000000 1.0
C      1  0.4174500000000  0.4529420000000  0.5233360000000 1.0
C      1  0.4669430000000  0.4528470000000  0.5784010000000 1.0
C      1  0.5412570000000  0.4508660000000  0.5749050000000 1.0
C      1  0.4924990000000  0.3969580000000  0.4649270000000 1.0
C      1  0.4680530000000  0.3966790000000  0.4833150000000 1.0
C      1  0.4671090000000  0.3961730000000  0.5138560000000 1.0
C      1  0.4906220000000  0.3965990000000  0.5332430000000 1.0
C      1  0.5205060000000  0.3961200000000  0.5271740000000 1.0
C      1  0.5343540000000  0.3970720000000  0.5000990000000 1.0
C      1  0.5219520000000  0.3973970000000  0.4724760000000 1.0
C      1  0.4191050000000  0.4502770000000  0.5532380000000 1.0
C      1  0.4912290000000  0.4495030000000  0.5955780000000 1.0
C      1  0.5699830000000  0.4473980000000  0.5664120000000 1.0
C      1  0.5955330000000  0.4497210000000  0.4867620000000 1.0
C      1  0.5493250000000  0.4509260000000  0.4173800000000 1.0
C      1  0.4659920000000  0.4506240000000  0.4095230000000 1.0
C      1  0.4079360000000  0.4508310000000  0.4700740000000 1.0
C      1  0.5989910000000  0.5031870000000  0.4798840000000 1.0
C      1  0.5457120000000  0.5038240000000  0.4104150000000 1.0
C      1  0.4574470000000  0.5032690000000  0.4065980000000 1.0
C      1  0.3998070000000  0.5039280000000  0.4752550000000 1.0
C      1  0.4188810000000  0.5034130000000  0.5628230000000 1.0
C      1  0.4992440000000  0.5026710000000  0.6018840000000 1.0
C      1  0.5785450000000  0.4995240000000  0.5648200000000 1.0
END
