TITL C-3578203-1966-595 6.7687099045898e-07 125000 -685.6103387177 0 0 110 (C1) n - 1
REM
REM in /home/bkarasulu/work/CARBON/AIRSS/Generating-Clusters/EDIP-Nigel-Params/with-SteepDescent/Higher-Symm/SD-CG/HFTN-CG
REM
REM
REM
REM
REM
REM ./C.cell (12c818d87b63d06a65506943cc24bca4)
REM
REM compiler GCC version 9.2.1 20190827 (Red Hat 9.2.1-1)
REM options -cpp -mtune=generic -march=x86-64 -g -O0 -fpre-include=/usr/include/finclude/math-vector-fortran.h
REM seed 1210297237 -1701342005 1815513957 -718766327 902300939 -1161461518 424200058 1453645806 -1108305740 -741652603 -1590040335 1586683465 1336123935 1701600046 97151168 779165069 -1243588448 1536197752 -974243164 754487510 1701671227 1984387374 518742360 -2031086526 317884199 -1638217383 -1545191596 1003254364 1501870892 1705273217 -66228656 -1283433445 -1659510105
REM
CELL 1.54180   50.00000   50.00000   50.00000   90.00000   90.00000   90.00000
LATT -1
SFAC C  
C      1  0.5195050000000  0.5809780000000  0.5141340000000 1.0
C      1  0.5718720000000  0.4470740000000  0.4823350000000 1.0
C      1  0.4299600000000  0.4466380000000  0.4662040000000 1.0
C      1  0.4345900000000  0.5659070000000  0.5224390000000 1.0
C      1  0.5227230000000  0.4777340000000  0.4281630000000 1.0
C      1  0.4586870000000  0.4904420000000  0.5663260000000 1.0
C      1  0.5264060000000  0.5328410000000  0.5127820000000 1.0
C      1  0.4674660000000  0.4503180000000  0.4291570000000 1.0
C      1  0.4294200000000  0.4271270000000  0.4885570000000 1.0
C      1  0.4510510000000  0.5555160000000  0.4580350000000 1.0
C      1  0.5264230000000  0.4664010000000  0.4958910000000 1.0
C      1  0.5262500000000  0.4978210000000  0.5896070000000 1.0
C      1  0.5333740000000  0.4184560000000  0.4780480000000 1.0
C      1  0.5270430000000  0.5411520000000  0.4046850000000 1.0
C      1  0.5549120000000  0.4263390000000  0.4977340000000 1.0
C      1  0.5290140000000  0.5319660000000  0.4824070000000 1.0
C      1  0.4252230000000  0.5729370000000  0.4954650000000 1.0
C      1  0.4302560000000  0.5133350000000  0.5370940000000 1.0
C      1  0.5801170000000  0.5414420000000  0.5111070000000 1.0
C      1  0.4729550000000  0.5009460000000  0.4134070000000 1.0
C      1  0.4768270000000  0.5514100000000  0.5650930000000 1.0
C      1  0.5618920000000  0.4863120000000  0.4473330000000 1.0
C      1  0.5230570000000  0.4934990000000  0.4036150000000 1.0
C      1  0.4494500000000  0.5318920000000  0.5825260000000 1.0
C      1  0.4490040000000  0.4328970000000  0.4485250000000 1.0
C      1  0.5031570000000  0.5784920000000  0.4898560000000 1.0
C      1  0.4853660000000  0.5583640000000  0.5379070000000 1.0
C      1  0.4838800000000  0.4060850000000  0.4765810000000 1.0
C      1  0.4388070000000  0.4875090000000  0.4430110000000 1.0
C      1  0.5450780000000  0.4372200000000  0.5466200000000 1.0
C      1  0.5139950000000  0.5453350000000  0.4297180000000 1.0
C      1  0.4625540000000  0.4245630000000  0.5091020000000 1.0
C      1  0.5441190000000  0.5595940000000  0.5494590000000 1.0
C      1  0.4575750000000  0.4776340000000  0.4234880000000 1.0
C      1  0.5221180000000  0.5251970000000  0.5800780000000 1.0
C      1  0.4163830000000  0.5203740000000  0.4821220000000 1.0
C      1  0.5704070000000  0.4532120000000  0.5504150000000 1.0
C      1  0.4824320000000  0.4262940000000  0.5331680000000 1.0
C      1  0.5016040000000  0.5242980000000  0.4462700000000 1.0
C      1  0.4740360000000  0.5200170000000  0.5959510000000 1.0
C      1  0.5614330000000  0.5610170000000  0.4990440000000 1.0
C      1  0.4960020000000  0.4993930000000  0.3972440000000 1.0
C      1  0.5515310000000  0.4912340000000  0.5761340000000 1.0
C      1  0.5058770000000  0.5799700000000  0.5401570000000 1.0
C      1  0.5187120000000  0.4746580000000  0.5385990000000 1.0
C      1  0.6025620000000  0.5017700000000  0.5055250000000 1.0
C      1  0.4316380000000  0.4753020000000  0.4689060000000 1.0
C      1  0.5145570000000  0.4968810000000  0.4518120000000 1.0
C      1  0.5699980000000  0.5222500000000  0.5328180000000 1.0
C      1  0.5049860000000  0.4444050000000  0.4515100000000 1.0
C      1  0.4638430000000  0.5703200000000  0.5215100000000 1.0
C      1  0.4777540000000  0.4463150000000  0.4939690000000 1.0
C      1  0.4796330000000  0.4724870000000  0.5082250000000 1.0
C      1  0.5053910000000  0.5706690000000  0.4402360000000 1.0
C      1  0.5891200000000  0.4987470000000  0.5317350000000 1.0
C      1  0.4832600000000  0.5290620000000  0.4939390000000 1.0
C      1  0.5744990000000  0.4732060000000  0.5286740000000 1.0
C      1  0.5899440000000  0.5306450000000  0.4657960000000 1.0
C      1  0.5343550000000  0.4385950000000  0.5182700000000 1.0
C      1  0.5669820000000  0.5376920000000  0.4512770000000 1.0
C      1  0.4629700000000  0.5266570000000  0.4248990000000 1.0
C      1  0.5813430000000  0.4699620000000  0.4991710000000 1.0
C      1  0.5080780000000  0.4233080000000  0.5171480000000 1.0
C      1  0.4817760000000  0.4565310000000  0.4644800000000 1.0
C      1  0.4406410000000  0.5159110000000  0.4408190000000 1.0
C      1  0.4180880000000  0.4915360000000  0.4914460000000 1.0
C      1  0.4569440000000  0.5109810000000  0.5246590000000 1.0
C      1  0.4560160000000  0.4922690000000  0.5017670000000 1.0
C      1  0.5474020000000  0.5542520000000  0.4717130000000 1.0
C      1  0.5575750000000  0.5135030000000  0.4347080000000 1.0
C      1  0.5081670000000  0.4086780000000  0.4916010000000 1.0
C      1  0.5279120000000  0.4582430000000  0.5612240000000 1.0
C      1  0.5015100000000  0.4516710000000  0.5757150000000 1.0
C      1  0.4798230000000  0.4505820000000  0.5527860000000 1.0
C      1  0.5629030000000  0.4652580000000  0.5761280000000 1.0
C      1  0.5203170000000  0.5765440000000  0.4649570000000 1.0
C      1  0.4896520000000  0.4751110000000  0.5362970000000 1.0
C      1  0.5295280000000  0.4481510000000  0.4685670000000 1.0
C      1  0.4932110000000  0.5301910000000  0.5762920000000 1.0
C      1  0.4372130000000  0.4637360000000  0.5301910000000 1.0
C      1  0.5395070000000  0.5594240000000  0.5195260000000 1.0
C      1  0.4730040000000  0.5808210000000  0.4956880000000 1.0
C      1  0.5471540000000  0.4885390000000  0.4977240000000 1.0
C      1  0.5010780000000  0.4783520000000  0.5906140000000 1.0
C      1  0.4348250000000  0.4369220000000  0.5178510000000 1.0
C      1  0.5247040000000  0.5764580000000  0.5610210000000 1.0
C      1  0.5308290000000  0.4993590000000  0.5457490000000 1.0
C      1  0.4577520000000  0.4117080000000  0.4677730000000 1.0
C      1  0.5021570000000  0.4832460000000  0.4937400000000 1.0
C      1  0.5058850000000  0.4542770000000  0.4250270000000 1.0
C      1  0.4660820000000  0.5099880000000  0.4796420000000 1.0
C      1  0.5439850000000  0.5099840000000  0.5218150000000 1.0
C      1  0.4789240000000  0.5033950000000  0.5443160000000 1.0
C      1  0.5407620000000  0.5165820000000  0.4094900000000 1.0
C      1  0.4357880000000  0.5105180000000  0.5671280000000 1.0
C      1  0.4515570000000  0.4628660000000  0.5560930000000 1.0
C      1  0.4487790000000  0.5775670000000  0.4777600000000 1.0
C      1  0.5383190000000  0.5040530000000  0.4726790000000 1.0
C      1  0.4901110000000  0.4865870000000  0.4669890000000 1.0
C      1  0.4734800000000  0.4903410000000  0.5930660000000 1.0
C      1  0.5569290000000  0.4580670000000  0.4570320000000 1.0
C      1  0.5968420000000  0.5268910000000  0.4925800000000 1.0
C      1  0.4420400000000  0.5273200000000  0.4670440000000 1.0
C      1  0.4953420000000  0.5311650000000  0.5228660000000 1.0
C      1  0.5458520000000  0.5327170000000  0.5615840000000 1.0
C      1  0.4178990000000  0.5404560000000  0.5276730000000 1.0
C      1  0.5017620000000  0.5375640000000  0.4730820000000 1.0
C      1  0.4710170000000  0.5542330000000  0.4361870000000 1.0
C      1  0.4062250000000  0.5402340000000  0.5004190000000 1.0
C      1  0.4192830000000  0.4871060000000  0.5234790000000 1.0
END
