TITL C-3578199-7832-624 -1.0299723057739e-06 125000 -794.282633693277 0 0 127 (C1) n - 1
REM
REM in /home/bkarasulu/work/CARBON/AIRSS/Generating-Clusters/EDIP-Nigel-Params/with-SteepDescent/Higher-Symm/SD-CG/HFTN-CG
REM
REM
REM
REM
REM
REM ./C.cell (12c818d87b63d06a65506943cc24bca4)
REM
REM compiler GCC version 9.2.1 20190827 (Red Hat 9.2.1-1)
REM options -cpp -mtune=generic -march=x86-64 -g -O0 -fpre-include=/usr/include/finclude/math-vector-fortran.h
REM seed -1255297352 1767433742 1517249910 524395484 -1788214722 1303535658 -1346428494 -350428601 -1687173327 -1876086115 -19355212 -1044442441 638153828 -607357702 1271075356 -1484911101 -254837449 -756942312 -805272034 1415828388 -1892970617 1486581241 -2102996010 -2089867592 -829266697 190537251 -1277274391 -1810346547 1681895881 -38547710 1414003777 1648470990 -557454197
REM
CELL 1.54180   50.00000   50.00000   50.00000   90.00000   90.00000   90.00000
LATT -1
SFAC C  
C      1  0.5001660000000  0.4879090000000  0.4785830000000 1.0
C      1  0.5269130000000  0.4772180000000  0.4776430000000 1.0
C      1  0.5424940000000  0.4738420000000  0.5036600000000 1.0
C      1  0.5279700000000  0.4559350000000  0.5236070000000 1.0
C      1  0.5188090000000  0.4755910000000  0.5456070000000 1.0
C      1  0.4892500000000  0.4772140000000  0.5470610000000 1.0
C      1  0.4752480000000  0.4688630000000  0.5193530000000 1.0
C      1  0.4538870000000  0.4916490000000  0.4812080000000 1.0
C      1  0.4774230000000  0.4740540000000  0.4887010000000 1.0
C      1  0.4518180000000  0.4352520000000  0.4925620000000 1.0
C      1  0.4724200000000  0.4492430000000  0.4714630000000 1.0
C      1  0.4989100000000  0.4391590000000  0.4545130000000 1.0
C      1  0.5268940000000  0.4484610000000  0.4650200000000 1.0
C      1  0.5368120000000  0.4310350000000  0.4880040000000 1.0
C      1  0.5458040000000  0.4368510000000  0.5390640000000 1.0
C      1  0.5253540000000  0.4328280000000  0.5617750000000 1.0
C      1  0.4966180000000  0.4284100000000  0.5542420000000 1.0
C      1  0.4598350000000  0.4432400000000  0.5207260000000 1.0
C      1  0.5972590000000  0.5111530000000  0.4708920000000 1.0
C      1  0.5940470000000  0.5175100000000  0.5424960000000 1.0
C      1  0.5435240000000  0.5179450000000  0.5942100000000 1.0
C      1  0.4720860000000  0.5170000000000  0.6017760000000 1.0
C      1  0.4168070000000  0.5130180000000  0.5597640000000 1.0
C      1  0.3939110000000  0.5186640000000  0.4909580000000 1.0
C      1  0.4260950000000  0.5163510000000  0.4272510000000 1.0
C      1  0.4910290000000  0.5177810000000  0.3949950000000 1.0
C      1  0.5639710000000  0.5273180000000  0.4097880000000 1.0
C      1  0.5977840000000  0.4883270000000  0.5183250000000 1.0
C      1  0.5687470000000  0.4930950000000  0.5805270000000 1.0
C      1  0.4990990000000  0.4909140000000  0.6017120000000 1.0
C      1  0.4390650000000  0.4871110000000  0.5762440000000 1.0
C      1  0.4008800000000  0.4901170000000  0.5155470000000 1.0
C      1  0.4143150000000  0.4922300000000  0.4525600000000 1.0
C      1  0.4681140000000  0.4913390000000  0.4092630000000 1.0
C      1  0.5312340000000  0.4895730000000  0.4067180000000 1.0
C      1  0.5847870000000  0.4916480000000  0.4499360000000 1.0
C      1  0.5151950000000  0.3914080000000  0.5275250000000 1.0
C      1  0.4921370000000  0.4041870000000  0.5368060000000 1.0
C      1  0.4708870000000  0.4007910000000  0.5183400000000 1.0
C      1  0.4599520000000  0.4062270000000  0.4927910000000 1.0
C      1  0.4756790000000  0.4003970000000  0.4705580000000 1.0
C      1  0.4967750000000  0.4091970000000  0.4545760000000 1.0
C      1  0.5209870000000  0.3969020000000  0.4601640000000 1.0
C      1  0.5370580000000  0.4019020000000  0.4822760000000 1.0
C      1  0.5305920000000  0.3881640000000  0.5056260000000 1.0
C      1  0.4352200000000  0.5714500000000  0.5304150000000 1.0
C      1  0.4323440000000  0.5713250000000  0.4828920000000 1.0
C      1  0.4573440000000  0.5735070000000  0.4413460000000 1.0
C      1  0.5039100000000  0.5743710000000  0.4240390000000 1.0
C      1  0.5468440000000  0.5679820000000  0.4463450000000 1.0
C      1  0.5664170000000  0.5662190000000  0.4894970000000 1.0
C      1  0.5527690000000  0.5647730000000  0.5341360000000 1.0
C      1  0.5170280000000  0.5675610000000  0.5644060000000 1.0
C      1  0.4697240000000  0.5709320000000  0.5646040000000 1.0
C      1  0.5101080000000  0.5848290000000  0.5409960000000 1.0
C      1  0.4797110000000  0.5891410000000  0.5421750000000 1.0
C      1  0.4574890000000  0.5893390000000  0.5196410000000 1.0
C      1  0.4572730000000  0.5870560000000  0.4888220000000 1.0
C      1  0.4732500000000  0.5891980000000  0.4619080000000 1.0
C      1  0.5028260000000  0.5897250000000  0.4507610000000 1.0
C      1  0.5292000000000  0.5833430000000  0.4647220000000 1.0
C      1  0.5422380000000  0.5837250000000  0.4918860000000 1.0
C      1  0.5326240000000  0.5816570000000  0.5205980000000 1.0
C      1  0.4123740000000  0.5161250000000  0.4691960000000 1.0
C      1  0.4540510000000  0.5151490000000  0.4189160000000 1.0
C      1  0.5202680000000  0.5152940000000  0.3979440000000 1.0
C      1  0.5735490000000  0.5161500000000  0.4338920000000 1.0
C      1  0.5889970000000  0.5087920000000  0.4992950000000 1.0
C      1  0.5712370000000  0.5136520000000  0.5599830000000 1.0
C      1  0.5150280000000  0.5134690000000  0.5921150000000 1.0
C      1  0.4576430000000  0.5103390000000  0.5767260000000 1.0
C      1  0.4100070000000  0.5127970000000  0.5315970000000 1.0
C      1  0.4340240000000  0.4734790000000  0.4661650000000 1.0
C      1  0.4779950000000  0.4753520000000  0.4329350000000 1.0
C      1  0.5264820000000  0.4657520000000  0.4233280000000 1.0
C      1  0.5682040000000  0.4682840000000  0.4609490000000 1.0
C      1  0.5829120000000  0.4630460000000  0.5191620000000 1.0
C      1  0.5590190000000  0.4666260000000  0.5727080000000 1.0
C      1  0.5013130000000  0.4651860000000  0.5881110000000 1.0
C      1  0.4505750000000  0.4632140000000  0.5635740000000 1.0
C      1  0.4181800000000  0.4660680000000  0.5139710000000 1.0
C      1  0.4510330000000  0.5535820000000  0.5488740000000 1.0
C      1  0.4282750000000  0.5535970000000  0.5072570000000 1.0
C      1  0.4413250000000  0.5551310000000  0.4595810000000 1.0
C      1  0.4789880000000  0.5575600000000  0.4277540000000 1.0
C      1  0.5276750000000  0.5550720000000  0.4274120000000 1.0
C      1  0.5621400000000  0.5495860000000  0.4651320000000 1.0
C      1  0.5648120000000  0.5479130000000  0.5128050000000 1.0
C      1  0.5375400000000  0.5489580000000  0.5537840000000 1.0
C      1  0.4926350000000  0.5514570000000  0.5700370000000 1.0
C      1  0.4917260000000  0.4976210000000  0.4519230000000 1.0
C      1  0.5204920000000  0.5057860000000  0.4405250000000 1.0
C      1  0.5428460000000  0.4980090000000  0.4604530000000 1.0
C      1  0.5490110000000  0.5000590000000  0.5166810000000 1.0
C      1  0.5331900000000  0.5013770000000  0.5407690000000 1.0
C      1  0.4770690000000  0.5052010000000  0.5540230000000 1.0
C      1  0.4521790000000  0.4898730000000  0.5291150000000 1.0
C      1  0.4448810000000  0.5056870000000  0.5053120000000 1.0
C      1  0.4643580000000  0.5108700000000  0.4612460000000 1.0
C      1  0.4252250000000  0.4532060000000  0.4877350000000 1.0
C      1  0.4554220000000  0.4603710000000  0.4482650000000 1.0
C      1  0.4992170000000  0.4546400000000  0.4278880000000 1.0
C      1  0.5467850000000  0.4539550000000  0.4427060000000 1.0
C      1  0.5660610000000  0.4566030000000  0.4927130000000 1.0
C      1  0.5691120000000  0.4541090000000  0.5457970000000 1.0
C      1  0.5272750000000  0.4614690000000  0.5717110000000 1.0
C      1  0.4792850000000  0.4490370000000  0.5723400000000 1.0
C      1  0.4370360000000  0.4545680000000  0.5366940000000 1.0
C      1  0.5560570000000  0.5348940000000  0.5733040000000 1.0
C      1  0.4951470000000  0.5346720000000  0.5954020000000 1.0
C      1  0.4382490000000  0.5320530000000  0.5677780000000 1.0
C      1  0.4034840000000  0.5356640000000  0.5134550000000 1.0
C      1  0.4193720000000  0.5361550000000  0.4490380000000 1.0
C      1  0.4705710000000  0.5364470000000  0.4068540000000 1.0
C      1  0.5385310000000  0.5380680000000  0.4042260000000 1.0
C      1  0.5861150000000  0.5354170000000  0.4536420000000 1.0
C      1  0.5905690000000  0.5320750000000  0.5169970000000 1.0
C      1  0.5433610000000  0.5266260000000  0.4745650000000 1.0
C      1  0.5432530000000  0.5270770000000  0.5049690000000 1.0
C      1  0.5212480000000  0.5283310000000  0.5372210000000 1.0
C      1  0.4915280000000  0.5305790000000  0.5463780000000 1.0
C      1  0.4701650000000  0.5410240000000  0.5284460000000 1.0
C      1  0.4529520000000  0.5342740000000  0.5044360000000 1.0
C      1  0.4640160000000  0.5387400000000  0.4735370000000 1.0
C      1  0.4885140000000  0.5420380000000  0.4517340000000 1.0
C      1  0.5170430000000  0.5351330000000  0.4473830000000 1.0
C      1  0.5141880000000  0.4365390000000  0.5069820000000 1.0
END
