TITL C-3577079-311-278 -4.81924351962567e-07 125000 -239.412598275789 0 0 40 (C1) n - 1
REM
REM in /home/bkarasulu/work/CARBON/AIRSS/Generating-Clusters/EDIP-Nigel-Params/with-SteepDescent/Higher-Symm/SD-CG/HFTN-CG
REM
REM
REM
REM
REM
REM ./C.cell (12c818d87b63d06a65506943cc24bca4)
REM
REM compiler GCC version 9.2.1 20190827 (Red Hat 9.2.1-1)
REM options -cpp -mtune=generic -march=x86-64 -g -O0 -fpre-include=/usr/include/finclude/math-vector-fortran.h
REM seed -1054887868 -6044802 330112760 354249968 398107940 83907629 342147285 360299583 -675864977 -1297422438 -1712372692 -1367203102 -1509500706 -482614084 -1810223034 1762771487 -1424713179 820985041 -127029534 -785557941 1288595133 1858480194 -1166597204 -1511173252 1641754867 1628184122 -1338252730 -1799797525 -608969596 -267243762 -1578227967 1074112031 -1126252125
REM
CELL 1.54180   50.00000   50.00000   50.00000   90.00000   90.00000   90.00000
LATT -1
SFAC C  
C      1  0.5672840000000  0.5134810000000  0.5253630000000 1.0
C      1  0.4435860000000  0.4549990000000  0.4365440000000 1.0
C      1  0.4662190000000  0.5351670000000  0.4785500000000 1.0
C      1  0.4376540000000  0.5096010000000  0.5074960000000 1.0
C      1  0.5232750000000  0.4813560000000  0.5525830000000 1.0
C      1  0.4993180000000  0.4903670000000  0.5647780000000 1.0
C      1  0.5719650000000  0.4902550000000  0.5085500000000 1.0
C      1  0.4424140000000  0.5177920000000  0.4784980000000 1.0
C      1  0.4772600000000  0.5322030000000  0.5063400000000 1.0
C      1  0.5328140000000  0.5242310000000  0.4693060000000 1.0
C      1  0.5186300000000  0.5586220000000  0.4980690000000 1.0
C      1  0.5416780000000  0.5041340000000  0.5412470000000 1.0
C      1  0.5334260000000  0.4575440000000  0.5082910000000 1.0
C      1  0.4749270000000  0.4942620000000  0.5516660000000 1.0
C      1  0.5718840000000  0.4957460000000  0.4799070000000 1.0
C      1  0.5190290000000  0.4435310000000  0.4878750000000 1.0
C      1  0.5207750000000  0.5109720000000  0.5095670000000 1.0
C      1  0.4962140000000  0.5546230000000  0.5145630000000 1.0
C      1  0.5050210000000  0.5505000000000  0.5409560000000 1.0
C      1  0.5234240000000  0.5289170000000  0.5380750000000 1.0
C      1  0.5464010000000  0.4884020000000  0.4403460000000 1.0
C      1  0.4921870000000  0.4488530000000  0.4947340000000 1.0
C      1  0.4392480000000  0.4991340000000  0.4577170000000 1.0
C      1  0.4489850000000  0.4821270000000  0.4383310000000 1.0
C      1  0.4534390000000  0.5287010000000  0.5254710000000 1.0
C      1  0.4602560000000  0.5181630000000  0.5510800000000 1.0
C      1  0.5501420000000  0.5023080000000  0.4626010000000 1.0
C      1  0.4915730000000  0.5056790000000  0.5071180000000 1.0
C      1  0.4904970000000  0.4581920000000  0.5221900000000 1.0
C      1  0.4681320000000  0.4523120000000  0.4788790000000 1.0
C      1  0.4671570000000  0.4506810000000  0.4505240000000 1.0
C      1  0.5412100000000  0.4859840000000  0.5024190000000 1.0
C      1  0.5101880000000  0.5296600000000  0.4542370000000 1.0
C      1  0.4839670000000  0.5342350000000  0.4571300000000 1.0
C      1  0.4765470000000  0.4847540000000  0.5237350000000 1.0
C      1  0.5179380000000  0.4585840000000  0.5335510000000 1.0
C      1  0.4485030000000  0.4821630000000  0.5127420000000 1.0
C      1  0.4462400000000  0.4633520000000  0.4920760000000 1.0
C      1  0.5599930000000  0.5348160000000  0.5078130000000 1.0
C      1  0.5406010000000  0.5435970000000  0.4890810000000 1.0
END
