TITL C-3578201-9217-677 7.25500275091287e-07 125000 -950.992809699916 0 0 152 (C1) n - 1
REM
REM in /home/bkarasulu/work/CARBON/AIRSS/Generating-Clusters/EDIP-Nigel-Params/with-SteepDescent/Higher-Symm/SD-CG/HFTN-CG
REM
REM
REM
REM
REM
REM ./C.cell (12c818d87b63d06a65506943cc24bca4)
REM
REM compiler GCC version 9.2.1 20190827 (Red Hat 9.2.1-1)
REM options -cpp -mtune=generic -march=x86-64 -g -O0 -fpre-include=/usr/include/finclude/math-vector-fortran.h
REM seed 417001724 1834134506 -2024665368 -1296700262 638925398 1373693911 -1881936125 -460634670 1677827641 -853153515 1285127562 -1323820350 -628175666 -1664812248 -148972152 331500453 -13639563 750171639 -1655117172 1171007886 1773108460 356100157 871183048 640916338 -1740973108 1861081936 -149407732 -472539906 1699617087 -1841227247 -379466953 2044932640 2132159877
REM
CELL 1.54180   50.00000   50.00000   50.00000   90.00000   90.00000   90.00000
LATT -1
SFAC C  
C      1  0.5120300000000  0.4631920000000  0.4200920000000 1.0
C      1  0.5334710000000  0.4845890000000  0.4143160000000 1.0
C      1  0.5214040000000  0.5156110000000  0.4230420000000 1.0
C      1  0.4838480000000  0.5370990000000  0.4145800000000 1.0
C      1  0.4636350000000  0.5144250000000  0.4164040000000 1.0
C      1  0.4840420000000  0.4749680000000  0.4182480000000 1.0
C      1  0.4864400000000  0.4716110000000  0.5831010000000 1.0
C      1  0.4645510000000  0.4913360000000  0.5772650000000 1.0
C      1  0.4724510000000  0.5200640000000  0.5839540000000 1.0
C      1  0.5055350000000  0.5241070000000  0.5779480000000 1.0
C      1  0.5437360000000  0.5055160000000  0.5906910000000 1.0
C      1  0.5328240000000  0.4785940000000  0.5863990000000 1.0
C      1  0.3976190000000  0.4908450000000  0.4854170000000 1.0
C      1  0.4578070000000  0.4018080000000  0.4878900000000 1.0
C      1  0.5577090000000  0.4187030000000  0.4943450000000 1.0
C      1  0.5985450000000  0.5089860000000  0.4908820000000 1.0
C      1  0.5387880000000  0.5878350000000  0.4906740000000 1.0
C      1  0.4359430000000  0.5883570000000  0.4879920000000 1.0
C      1  0.6076290000000  0.4965160000000  0.5146760000000 1.0
C      1  0.5494810000000  0.4062260000000  0.5185130000000 1.0
C      1  0.4451460000000  0.4143150000000  0.5115000000000 1.0
C      1  0.3978660000000  0.5086690000000  0.5092560000000 1.0
C      1  0.4541210000000  0.5924360000000  0.5124550000000 1.0
C      1  0.5540010000000  0.5876230000000  0.5148670000000 1.0
C      1  0.5511480000000  0.5015880000000  0.4725440000000 1.0
C      1  0.5248010000000  0.5470100000000  0.4788970000000 1.0
C      1  0.4612370000000  0.5478970000000  0.4760650000000 1.0
C      1  0.4411240000000  0.4966780000000  0.4782970000000 1.0
C      1  0.4772850000000  0.4478150000000  0.4726930000000 1.0
C      1  0.5284010000000  0.4544680000000  0.4721270000000 1.0
C      1  0.4463290000000  0.5023600000000  0.5268610000000 1.0
C      1  0.4743800000000  0.5498920000000  0.5269790000000 1.0
C      1  0.5330630000000  0.5450090000000  0.5273290000000 1.0
C      1  0.5568340000000  0.4984990000000  0.5261690000000 1.0
C      1  0.5268950000000  0.4531380000000  0.5297650000000 1.0
C      1  0.4744600000000  0.4539760000000  0.5227600000000 1.0
C      1  0.4270090000000  0.4489140000000  0.4719320000000 1.0
C      1  0.5044080000000  0.4069880000000  0.4742350000000 1.0
C      1  0.5792780000000  0.4561410000000  0.4753790000000 1.0
C      1  0.5765320000000  0.5467990000000  0.4726340000000 1.0
C      1  0.4909230000000  0.5903770000000  0.4743620000000 1.0
C      1  0.4172620000000  0.5424820000000  0.4735260000000 1.0
C      1  0.5797220000000  0.4501310000000  0.5227130000000 1.0
C      1  0.4955770000000  0.4061860000000  0.5203900000000 1.0
C      1  0.4165950000000  0.4616920000000  0.5162110000000 1.0
C      1  0.4206440000000  0.5574250000000  0.5191300000000 1.0
C      1  0.5051990000000  0.5898580000000  0.5196610000000 1.0
C      1  0.5850950000000  0.5443970000000  0.5196460000000 1.0
C      1  0.5230890000000  0.5020780000000  0.4653080000000 1.0
C      1  0.5077110000000  0.5251350000000  0.4706970000000 1.0
C      1  0.4795040000000  0.5249080000000  0.4716200000000 1.0
C      1  0.4688780000000  0.4991670000000  0.4723790000000 1.0
C      1  0.4842690000000  0.4756720000000  0.4678140000000 1.0
C      1  0.5118300000000  0.4769040000000  0.4622770000000 1.0
C      1  0.4736020000000  0.5025490000000  0.5352170000000 1.0
C      1  0.4890060000000  0.5255220000000  0.5293230000000 1.0
C      1  0.5163720000000  0.5240090000000  0.5356840000000 1.0
C      1  0.5283040000000  0.4996240000000  0.5313200000000 1.0
C      1  0.5130080000000  0.4779730000000  0.5403700000000 1.0
C      1  0.4875320000000  0.4794750000000  0.5270780000000 1.0
C      1  0.4470640000000  0.5425550000000  0.5105000000000 1.0
C      1  0.4426370000000  0.4781260000000  0.5094250000000 1.0
C      1  0.5006000000000  0.4365000000000  0.5149650000000 1.0
C      1  0.5545370000000  0.4671490000000  0.5156990000000 1.0
C      1  0.5578150000000  0.5304590000000  0.5145820000000 1.0
C      1  0.5109810000000  0.5589200000000  0.5092450000000 1.0
C      1  0.5525200000000  0.5316190000000  0.4847030000000 1.0
C      1  0.5534900000000  0.4698440000000  0.4849810000000 1.0
C      1  0.5037410000000  0.4360200000000  0.4843240000000 1.0
C      1  0.4513630000000  0.4453170000000  0.4898860000000 1.0
C      1  0.4287180000000  0.5221410000000  0.4917680000000 1.0
C      1  0.4762410000000  0.5708110000000  0.4918840000000 1.0
C      1  0.4719740000000  0.6073610000000  0.4617610000000 1.0
C      1  0.3951270000000  0.5312680000000  0.4596650000000 1.0
C      1  0.4231670000000  0.4238280000000  0.4594860000000 1.0
C      1  0.5280730000000  0.3930810000000  0.4681480000000 1.0
C      1  0.6029800000000  0.4689330000000  0.4671500000000 1.0
C      1  0.5762740000000  0.5739940000000  0.4657030000000 1.0
C      1  0.5198730000000  0.6011520000000  0.5413830000000 1.0
C      1  0.6016730000000  0.5341130000000  0.5402570000000 1.0
C      1  0.5784840000000  0.4307330000000  0.5436320000000 1.0
C      1  0.4784220000000  0.3976530000000  0.5412110000000 1.0
C      1  0.3971170000000  0.4699300000000  0.5352710000000 1.0
C      1  0.4209890000000  0.5770330000000  0.5397220000000 1.0
C      1  0.5039600000000  0.4820230000000  0.3744390000000 1.0
C      1  0.5272350000000  0.4944550000000  0.3845050000000 1.0
C      1  0.5196580000000  0.5223040000000  0.3929920000000 1.0
C      1  0.4932310000000  0.5324830000000  0.3862240000000 1.0
C      1  0.4654450000000  0.5061180000000  0.3876530000000 1.0
C      1  0.4798040000000  0.4814200000000  0.3889020000000 1.0
C      1  0.4935230000000  0.4718970000000  0.6125710000000 1.0
C      1  0.4811470000000  0.4936220000000  0.6255010000000 1.0
C      1  0.4809610000000  0.5196890000000  0.6145230000000 1.0
C      1  0.5092530000000  0.5276040000000  0.6082520000000 1.0
C      1  0.5311140000000  0.5110740000000  0.6170120000000 1.0
C      1  0.5223640000000  0.4736530000000  0.6138030000000 1.0
C      1  0.4397280000000  0.4565740000000  0.5576170000000 1.0
C      1  0.5093510000000  0.4309350000000  0.5668700000000 1.0
C      1  0.5725090000000  0.4709610000000  0.5616480000000 1.0
C      1  0.5610080000000  0.5450010000000  0.5659460000000 1.0
C      1  0.4911730000000  0.5713810000000  0.5652670000000 1.0
C      1  0.4301080000000  0.5298760000000  0.5619070000000 1.0
C      1  0.5607480000000  0.4519640000000  0.4357690000000 1.0
C      1  0.4928870000000  0.4224710000000  0.4346880000000 1.0
C      1  0.4366010000000  0.4718720000000  0.4358030000000 1.0
C      1  0.4354860000000  0.5479830000000  0.4342390000000 1.0
C      1  0.5066050000000  0.5705310000000  0.4388730000000 1.0
C      1  0.5678070000000  0.5262820000000  0.4346890000000 1.0
C      1  0.4695580000000  0.4341480000000  0.4468840000000 1.0
C      1  0.5397700000000  0.4371910000000  0.4494390000000 1.0
C      1  0.5698840000000  0.5005940000000  0.4479790000000 1.0
C      1  0.5308930000000  0.5602450000000  0.4511180000000 1.0
C      1  0.4561010000000  0.5625510000000  0.4488340000000 1.0
C      1  0.4285880000000  0.4971960000000  0.4485440000000 1.0
C      1  0.5347340000000  0.4385290000000  0.5548080000000 1.0
C      1  0.4631100000000  0.4420800000000  0.5486410000000 1.0
C      1  0.4272290000000  0.5039940000000  0.5492040000000 1.0
C      1  0.4665690000000  0.5627450000000  0.5531580000000 1.0
C      1  0.5388810000000  0.5588840000000  0.5530230000000 1.0
C      1  0.5739930000000  0.4980330000000  0.5513860000000 1.0
C      1  0.5494120000000  0.5810020000000  0.4640690000000 1.0
C      1  0.4489830000000  0.5904320000000  0.4603890000000 1.0
C      1  0.4002990000000  0.5032440000000  0.4584600000000 1.0
C      1  0.4495520000000  0.4130020000000  0.4594170000000 1.0
C      1  0.5477880000000  0.4126030000000  0.4669740000000 1.0
C      1  0.5961020000000  0.4957310000000  0.4643730000000 1.0
C      1  0.4479590000000  0.5847010000000  0.5406930000000 1.0
C      1  0.5437610000000  0.5866450000000  0.5414200000000 1.0
C      1  0.6010030000000  0.5060590000000  0.5405270000000 1.0
C      1  0.5537180000000  0.4171050000000  0.5443520000000 1.0
C      1  0.4561080000000  0.4143690000000  0.5387700000000 1.0
C      1  0.4003670000000  0.4977700000000  0.5363390000000 1.0
C      1  0.5416400000000  0.5365570000000  0.4339550000000 1.0
C      1  0.4810560000000  0.5622130000000  0.4307650000000 1.0
C      1  0.4381160000000  0.5201880000000  0.4303630000000 1.0
C      1  0.4603870000000  0.4576620000000  0.4292180000000 1.0
C      1  0.5168120000000  0.4360320000000  0.4298930000000 1.0
C      1  0.5602920000000  0.4789330000000  0.4281750000000 1.0
C      1  0.4537980000000  0.5415160000000  0.5713480000000 1.0
C      1  0.5127940000000  0.5536650000000  0.5685620000000 1.0
C      1  0.5635440000000  0.5176550000000  0.5722780000000 1.0
C      1  0.5498630000000  0.4583240000000  0.5722940000000 1.0
C      1  0.4845500000000  0.4438840000000  0.5703220000000 1.0
C      1  0.4384010000000  0.4827990000000  0.5674080000000 1.0
C      1  0.4867060000000  0.3947680000000  0.4937860000000 1.0
C      1  0.5960470000000  0.5380830000000  0.4925620000000 1.0
C      1  0.5120060000000  0.5998340000000  0.4926120000000 1.0
C      1  0.4150490000000  0.5668070000000  0.4912170000000 1.0
C      1  0.4062130000000  0.4620710000000  0.4887810000000 1.0
C      1  0.5810140000000  0.4362080000000  0.4964770000000 1.0
C      1  0.5093380000000  0.4866600000000  0.5700540000000 1.0
C      1  0.4908560000000  0.5044150000000  0.4350810000000 1.0
END
