TITL C-3578207-9274-350 -9.79461589210307e-07 125000 -741.063906106856 0 0 118 (C1) n - 1
REM
REM in /home/bkarasulu/work/CARBON/AIRSS/Generating-Clusters/EDIP-Nigel-Params/with-SteepDescent/Higher-Symm/SD-CG/HFTN-CG
REM
REM
REM
REM
REM
REM ./C.cell (12c818d87b63d06a65506943cc24bca4)
REM
REM compiler GCC version 9.2.1 20190827 (Red Hat 9.2.1-1)
REM options -cpp -mtune=generic -march=x86-64 -g -O0 -fpre-include=/usr/include/finclude/math-vector-fortran.h
REM seed -1224805419 -409018706 -2017960676 -1857842287 573950757 -1753379072 955877322 -317630899 -1789321741 2106439030 1448633373 770157698 -2061984580 -1975054876 -853911667 638722195 255033736 1463427788 -359549378 -1113561472 -2108261092 -1752475867 869986241 -1873730795 -1731973755 -856885164 -802680733 1494568265 1839467595 35433283 2102888083 207805141 195716251
REM
CELL 1.54180   50.00000   50.00000   50.00000   90.00000   90.00000   90.00000
LATT -1
SFAC C  
C      1  0.5253310000000  0.5354820000000  0.5682090000000 1.0
C      1  0.4733290000000  0.5343400000000  0.4271850000000 1.0
C      1  0.5262190000000  0.5347590000000  0.4301250000000 1.0
C      1  0.4726860000000  0.5346410000000  0.5701670000000 1.0
C      1  0.5630170000000  0.5437730000000  0.4699930000000 1.0
C      1  0.4290270000000  0.5425760000000  0.5425460000000 1.0
C      1  0.5638050000000  0.5438920000000  0.5316610000000 1.0
C      1  0.4349640000000  0.5470550000000  0.4568450000000 1.0
C      1  0.4606660000000  0.4844580000000  0.5148170000000 1.0
C      1  0.5388470000000  0.4861360000000  0.4796240000000 1.0
C      1  0.4494730000000  0.4921470000000  0.4856200000000 1.0
C      1  0.5426190000000  0.4882960000000  0.5150770000000 1.0
C      1  0.4818180000000  0.4821610000000  0.4270180000000 1.0
C      1  0.5190890000000  0.4815390000000  0.5726540000000 1.0
C      1  0.4817620000000  0.4820040000000  0.5726270000000 1.0
C      1  0.5201690000000  0.4816700000000  0.4270750000000 1.0
C      1  0.4831000000000  0.5094620000000  0.4427850000000 1.0
C      1  0.5143600000000  0.5088670000000  0.5553880000000 1.0
C      1  0.4835640000000  0.5090300000000  0.5560610000000 1.0
C      1  0.5138250000000  0.5091330000000  0.4431450000000 1.0
C      1  0.4291870000000  0.5092540000000  0.5797870000000 1.0
C      1  0.5712820000000  0.5126680000000  0.4280350000000 1.0
C      1  0.4292520000000  0.5103080000000  0.4216840000000 1.0
C      1  0.5694700000000  0.5118540000000  0.5729450000000 1.0
C      1  0.5313060000000  0.4900730000000  0.5987590000000 1.0
C      1  0.4693830000000  0.4881690000000  0.4000160000000 1.0
C      1  0.5343160000000  0.4896140000000  0.4014850000000 1.0
C      1  0.4709910000000  0.4886280000000  0.5999590000000 1.0
C      1  0.5213550000000  0.5077080000000  0.4711960000000 1.0
C      1  0.4720400000000  0.5089320000000  0.5283670000000 1.0
C      1  0.5233920000000  0.5083230000000  0.5270170000000 1.0
C      1  0.4706480000000  0.5084000000000  0.4710630000000 1.0
C      1  0.4612400000000  0.4644240000000  0.4430330000000 1.0
C      1  0.5402560000000  0.4601760000000  0.5594120000000 1.0
C      1  0.4606160000000  0.4628420000000  0.5585600000000 1.0
C      1  0.5410530000000  0.4617480000000  0.4429570000000 1.0
C      1  0.5439560000000  0.4180940000000  0.4846760000000 1.0
C      1  0.4638170000000  0.4211810000000  0.5145150000000 1.0
C      1  0.5419510000000  0.4174730000000  0.5144680000000 1.0
C      1  0.4614240000000  0.4221690000000  0.4843880000000 1.0
C      1  0.4179720000000  0.5361310000000  0.4763290000000 1.0
C      1  0.5828950000000  0.5276230000000  0.5172180000000 1.0
C      1  0.4042150000000  0.5328300000000  0.5337210000000 1.0
C      1  0.5829840000000  0.5276500000000  0.4841290000000 1.0
C      1  0.5231250000000  0.5326480000000  0.4852620000000 1.0
C      1  0.4821680000000  0.5326820000000  0.5128560000000 1.0
C      1  0.5133020000000  0.5324670000000  0.5126820000000 1.0
C      1  0.4715140000000  0.5332190000000  0.4851870000000 1.0
C      1  0.5228620000000  0.5582040000000  0.5267290000000 1.0
C      1  0.4803750000000  0.5581560000000  0.4718610000000 1.0
C      1  0.5146580000000  0.5583820000000  0.4726430000000 1.0
C      1  0.4725790000000  0.5591990000000  0.5260430000000 1.0
C      1  0.5555930000000  0.5345660000000  0.5598540000000 1.0
C      1  0.4433010000000  0.5340340000000  0.4319460000000 1.0
C      1  0.5563570000000  0.5349340000000  0.4405770000000 1.0
C      1  0.4421680000000  0.5322250000000  0.5669800000000 1.0
C      1  0.4829470000000  0.5581200000000  0.5542540000000 1.0
C      1  0.5135200000000  0.5584400000000  0.4422620000000 1.0
C      1  0.4835320000000  0.5583950000000  0.4409430000000 1.0
C      1  0.5123150000000  0.5586380000000  0.5541330000000 1.0
C      1  0.4788950000000  0.4417850000000  0.5543500000000 1.0
C      1  0.5248440000000  0.4383910000000  0.4424690000000 1.0
C      1  0.4776930000000  0.4410940000000  0.4431600000000 1.0
C      1  0.5230120000000  0.4378790000000  0.5559620000000 1.0
C      1  0.5630550000000  0.4577980000000  0.5398890000000 1.0
C      1  0.4414390000000  0.4676770000000  0.4679090000000 1.0
C      1  0.5653160000000  0.4568440000000  0.4605140000000 1.0
C      1  0.4426340000000  0.4660500000000  0.5336940000000 1.0
C      1  0.5746240000000  0.4976560000000  0.5156570000000 1.0
C      1  0.4209710000000  0.5090230000000  0.4887020000000 1.0
C      1  0.5750160000000  0.4976670000000  0.4859460000000 1.0
C      1  0.4116580000000  0.5111070000000  0.5169230000000 1.0
C      1  0.4139250000000  0.4765820000000  0.4588190000000 1.0
C      1  0.5888310000000  0.4700120000000  0.5469500000000 1.0
C      1  0.4146930000000  0.4749390000000  0.5421350000000 1.0
C      1  0.5905380000000  0.4708700000000  0.4549040000000 1.0
C      1  0.5206840000000  0.4318720000000  0.4710340000000 1.0
C      1  0.4856100000000  0.4392470000000  0.5254880000000 1.0
C      1  0.5181360000000  0.4337880000000  0.5268530000000 1.0
C      1  0.4844090000000  0.4362710000000  0.4712540000000 1.0
C      1  0.4001950000000  0.4881230000000  0.4810680000000 1.0
C      1  0.5975610000000  0.4776760000000  0.5203760000000 1.0
C      1  0.3996240000000  0.4851290000000  0.5197190000000 1.0
C      1  0.5981590000000  0.4784570000000  0.4817060000000 1.0
C      1  0.5871150000000  0.4943090000000  0.5606940000000 1.0
C      1  0.4131580000000  0.4950660000000  0.4381490000000 1.0
C      1  0.5882140000000  0.4951550000000  0.4412050000000 1.0
C      1  0.4135160000000  0.4927450000000  0.5637670000000 1.0
C      1  0.4386210000000  0.4398530000000  0.5176050000000 1.0
C      1  0.5667780000000  0.4359470000000  0.4815840000000 1.0
C      1  0.4378900000000  0.4418010000000  0.4854150000000 1.0
C      1  0.5647960000000  0.4358720000000  0.5195230000000 1.0
C      1  0.4434180000000  0.5581460000000  0.5229630000000 1.0
C      1  0.5585640000000  0.5696620000000  0.4854970000000 1.0
C      1  0.4394280000000  0.5629360000000  0.4924780000000 1.0
C      1  0.5584870000000  0.5700170000000  0.5167970000000 1.0
C      1  0.4792000000000  0.5834360000000  0.5105630000000 1.0
C      1  0.5309640000000  0.5809730000000  0.4839930000000 1.0
C      1  0.4650130000000  0.5791200000000  0.4862440000000 1.0
C      1  0.5232200000000  0.5843020000000  0.5118310000000 1.0
C      1  0.4846360000000  0.5366970000000  0.5981230000000 1.0
C      1  0.5160680000000  0.5343050000000  0.4007470000000 1.0
C      1  0.4861970000000  0.5338550000000  0.3993840000000 1.0
C      1  0.5157280000000  0.5371400000000  0.5972920000000 1.0
C      1  0.5205910000000  0.5093450000000  0.3857850000000 1.0
C      1  0.4849870000000  0.5103680000000  0.6145230000000 1.0
C      1  0.5169320000000  0.5109720000000  0.6139550000000 1.0
C      1  0.4833150000000  0.5085100000000  0.3848670000000 1.0
C      1  0.4915680000000  0.4638520000000  0.4838300000000 1.0
C      1  0.5278980000000  0.4594220000000  0.5132330000000 1.0
C      1  0.4840170000000  0.4663800000000  0.5113360000000 1.0
C      1  0.5207700000000  0.4601920000000  0.4847580000000 1.0
C      1  0.4441680000000  0.4957170000000  0.5987530000000 1.0
C      1  0.5592210000000  0.5006340000000  0.4063640000000 1.0
C      1  0.4427450000000  0.4958530000000  0.4023090000000 1.0
C      1  0.5567340000000  0.5002710000000  0.5945580000000 1.0
C      1  0.5004350000000  0.4417400000000  0.5718100000000 1.0
C      1  0.5010980000000  0.4427620000000  0.4280340000000 1.0
END
