TITL C-3577082-504-123 -4.08349215152928e-07 125000 -160.947310714129 0 0 27 (C1) n - 1
REM
REM in /home/bkarasulu/work/CARBON/AIRSS/Generating-Clusters/EDIP-Nigel-Params/with-SteepDescent/Higher-Symm/SD-CG/HFTN-CG
REM
REM
REM
REM
REM
REM ./C.cell (12c818d87b63d06a65506943cc24bca4)
REM
REM compiler GCC version 9.2.1 20190827 (Red Hat 9.2.1-1)
REM options -cpp -mtune=generic -march=x86-64 -g -O0 -fpre-include=/usr/include/finclude/math-vector-fortran.h
REM seed -114498529 -945002989 2098892527 343912569 730774828 -720416398 -1961969044 -1527305153 463073308 -1274492242 -1426307564 1389740722 -583542842 -309088758 -114413922 -1070734722 1549401433 -1482558191 129306638 657222406 -2005287792 127945872 1747542507 955914055 39629398 427671280 1288797090 998562272 -1015570597 -1996451947 -1987322410 -499489181 379269761
REM
CELL 1.54180   50.00000   50.00000   50.00000   90.00000   90.00000   90.00000
LATT -1
SFAC C  
C      1  0.4963650000000  0.4446960000000  0.4854270000000 1.0
C      1  0.5466010000000  0.5258090000000  0.4893580000000 1.0
C      1  0.4529530000000  0.5302560000000  0.4824380000000 1.0
C      1  0.4991370000000  0.4469370000000  0.5136690000000 1.0
C      1  0.5517870000000  0.5261750000000  0.5185600000000 1.0
C      1  0.4538730000000  0.5285070000000  0.5209360000000 1.0
C      1  0.4968750000000  0.5544660000000  0.4852550000000 1.0
C      1  0.5442750000000  0.4692500000000  0.4880080000000 1.0
C      1  0.4525570000000  0.4709550000000  0.4844160000000 1.0
C      1  0.4990810000000  0.5534600000000  0.5136330000000 1.0
C      1  0.5522450000000  0.4782630000000  0.5138580000000 1.0
C      1  0.4542910000000  0.4707560000000  0.5228700000000 1.0
C      1  0.4987920000000  0.4697220000000  0.4704000000000 1.0
C      1  0.5232380000000  0.5126010000000  0.4786140000000 1.0
C      1  0.4740020000000  0.5149450000000  0.4699630000000 1.0
C      1  0.5020370000000  0.4732710000000  0.5251060000000 1.0
C      1  0.5276160000000  0.5156610000000  0.5338060000000 1.0
C      1  0.4761940000000  0.5147100000000  0.5327230000000 1.0
C      1  0.4999140000000  0.5290880000000  0.4709830000000 1.0
C      1  0.5246360000000  0.4836970000000  0.4736420000000 1.0
C      1  0.4743170000000  0.4857440000000  0.4730010000000 1.0
C      1  0.5014000000000  0.5274410000000  0.5259120000000 1.0
C      1  0.5284460000000  0.4856090000000  0.5311130000000 1.0
C      1  0.4768050000000  0.4853320000000  0.5334350000000 1.0
C      1  0.5680620000000  0.5026360000000  0.5121140000000 1.0
C      1  0.4623410000000  0.5503790000000  0.5023540000000 1.0
C      1  0.4621620000000  0.4496330000000  0.5030700000000 1.0
END
