TITL C-3578209-2550-396 -2.92052732509586e-06 125000 -1102.5018855373 0 0 179 (C1) n - 1
REM
REM in /home/bkarasulu/work/CARBON/AIRSS/Generating-Clusters/EDIP-Nigel-Params/with-SteepDescent/Higher-Symm/SD-CG/HFTN-CG
REM
REM
REM
REM
REM
REM ./C.cell (12c818d87b63d06a65506943cc24bca4)
REM
REM compiler GCC version 9.2.1 20190827 (Red Hat 9.2.1-1)
REM options -cpp -mtune=generic -march=x86-64 -g -O0 -fpre-include=/usr/include/finclude/math-vector-fortran.h
REM seed 1400714563 2113946710 -1032753952 -1951376177 -906688448 -417505252 742432796 -305838150 -1454668307 -1039215036 1400913899 -572511453 593656743 -1888894638 464677735 1050232976 1333488136 -741082490 1157815660 1373839637 -1211369802 -1093118256 410420429 2094852411 -1613540389 1317970135 425303248 1819843721 2137886945 1384171550 328536577 600102000 545017687
REM
CELL 1.54180   50.00000   50.00000   50.00000   90.00000   90.00000   90.00000
LATT -1
SFAC C  
C      1  0.5403780000000  0.4914040000000  0.4454710000000 1.0
C      1  0.4550950000000  0.5102550000000  0.4340260000000 1.0
C      1  0.5423440000000  0.4944250000000  0.5598060000000 1.0
C      1  0.4525360000000  0.5100300000000  0.5653190000000 1.0
C      1  0.4302000000000  0.5188500000000  0.5146390000000 1.0
C      1  0.5675730000000  0.4951660000000  0.5165400000000 1.0
C      1  0.4330230000000  0.5178470000000  0.4822890000000 1.0
C      1  0.5659770000000  0.4907990000000  0.4878290000000 1.0
C      1  0.4906920000000  0.4190020000000  0.5699050000000 1.0
C      1  0.5121060000000  0.5795200000000  0.5682640000000 1.0
C      1  0.4856480000000  0.4186640000000  0.4264590000000 1.0
C      1  0.5143760000000  0.5831590000000  0.4260990000000 1.0
C      1  0.5490080000000  0.5112370000000  0.4131380000000 1.0
C      1  0.4526680000000  0.4854700000000  0.4041370000000 1.0
C      1  0.5514280000000  0.5108210000000  0.5875910000000 1.0
C      1  0.4534460000000  0.4841020000000  0.5942150000000 1.0
C      1  0.5243070000000  0.5455010000000  0.4718590000000 1.0
C      1  0.4706350000000  0.4574150000000  0.4729810000000 1.0
C      1  0.5287410000000  0.5482490000000  0.5278940000000 1.0
C      1  0.4704360000000  0.4582360000000  0.5283320000000 1.0
C      1  0.5792320000000  0.5472840000000  0.5772310000000 1.0
C      1  0.4230510000000  0.4505030000000  0.5774360000000 1.0
C      1  0.5763810000000  0.5455140000000  0.4209960000000 1.0
C      1  0.4262780000000  0.4513430000000  0.4148420000000 1.0
C      1  0.5801070000000  0.5221600000000  0.5915850000000 1.0
C      1  0.4248030000000  0.4746780000000  0.5941780000000 1.0
C      1  0.5782150000000  0.5192340000000  0.4081780000000 1.0
C      1  0.4231750000000  0.4773760000000  0.4013140000000 1.0
C      1  0.4795760000000  0.5221600000000  0.5691090000000 1.0
C      1  0.5140290000000  0.4869340000000  0.5637690000000 1.0
C      1  0.4826250000000  0.5208830000000  0.4384810000000 1.0
C      1  0.5126660000000  0.4839390000000  0.4413730000000 1.0
C      1  0.4332840000000  0.4113040000000  0.4838750000000 1.0
C      1  0.5627030000000  0.5878980000000  0.4850640000000 1.0
C      1  0.4243360000000  0.4047510000000  0.5109790000000 1.0
C      1  0.5693960000000  0.5956560000000  0.5122110000000 1.0
C      1  0.4135530000000  0.4530520000000  0.5268620000000 1.0
C      1  0.5841760000000  0.5460670000000  0.5266350000000 1.0
C      1  0.4130980000000  0.4543020000000  0.4636120000000 1.0
C      1  0.5824750000000  0.5441370000000  0.4699010000000 1.0
C      1  0.4327940000000  0.5338060000000  0.5687080000000 1.0
C      1  0.5634890000000  0.4677880000000  0.5509680000000 1.0
C      1  0.4349430000000  0.5312910000000  0.4451870000000 1.0
C      1  0.5580990000000  0.4644220000000  0.4535630000000 1.0
C      1  0.5160400000000  0.4715800000000  0.3989130000000 1.0
C      1  0.4905060000000  0.5164790000000  0.3910520000000 1.0
C      1  0.5186750000000  0.4715950000000  0.6049330000000 1.0
C      1  0.4912780000000  0.5167510000000  0.6155470000000 1.0
C      1  0.4793180000000  0.5280770000000  0.5250100000000 1.0
C      1  0.5243040000000  0.4748600000000  0.5176340000000 1.0
C      1  0.4848470000000  0.5263150000000  0.4776310000000 1.0
C      1  0.5163980000000  0.4829000000000  0.4904760000000 1.0
C      1  0.4232470000000  0.4644120000000  0.5515000000000 1.0
C      1  0.5690180000000  0.5373150000000  0.5516140000000 1.0
C      1  0.4322760000000  0.4623850000000  0.4417410000000 1.0
C      1  0.5644190000000  0.5363870000000  0.4462870000000 1.0
C      1  0.5259750000000  0.5224640000000  0.5137010000000 1.0
C      1  0.4656670000000  0.4836460000000  0.5157650000000 1.0
C      1  0.5372840000000  0.5257320000000  0.4869620000000 1.0
C      1  0.4638280000000  0.4817980000000  0.4869190000000 1.0
C      1  0.5104270000000  0.5555940000000  0.5839450000000 1.0
C      1  0.4828600000000  0.4479350000000  0.5737340000000 1.0
C      1  0.5166460000000  0.5531850000000  0.4227720000000 1.0
C      1  0.4798900000000  0.4473490000000  0.4270770000000 1.0
C      1  0.5209820000000  0.5999250000000  0.5249330000000 1.0
C      1  0.4758750000000  0.4060850000000  0.5240220000000 1.0
C      1  0.5166000000000  0.5961740000000  0.4730260000000 1.0
C      1  0.4804900000000  0.4022830000000  0.4724710000000 1.0
C      1  0.5755830000000  0.4518310000000  0.5170280000000 1.0
C      1  0.4114700000000  0.5522120000000  0.5203410000000 1.0
C      1  0.5772910000000  0.4485490000000  0.4845580000000 1.0
C      1  0.4083720000000  0.5531550000000  0.4914410000000 1.0
C      1  0.5371500000000  0.5513980000000  0.4471280000000 1.0
C      1  0.4585040000000  0.4480170000000  0.4482300000000 1.0
C      1  0.5423470000000  0.5515480000000  0.5534900000000 1.0
C      1  0.4597730000000  0.4537880000000  0.5545460000000 1.0
C      1  0.4050480000000  0.5056130000000  0.4697610000000 1.0
C      1  0.5930250000000  0.4931250000000  0.4735350000000 1.0
C      1  0.4045450000000  0.5032260000000  0.5243190000000 1.0
C      1  0.5960380000000  0.4953010000000  0.5275260000000 1.0
C      1  0.4684310000000  0.4579530000000  0.4022150000000 1.0
C      1  0.5324750000000  0.5371650000000  0.4016150000000 1.0
C      1  0.4710640000000  0.4579260000000  0.5987880000000 1.0
C      1  0.5307220000000  0.5402050000000  0.5979600000000 1.0
C      1  0.3905710000000  0.5288460000000  0.4852410000000 1.0
C      1  0.6035650000000  0.4670900000000  0.4860070000000 1.0
C      1  0.3849040000000  0.5207030000000  0.5118730000000 1.0
C      1  0.6027890000000  0.4678740000000  0.5155290000000 1.0
C      1  0.4473050000000  0.5885140000000  0.5187180000000 1.0
C      1  0.5522410000000  0.4076070000000  0.5190790000000 1.0
C      1  0.4454700000000  0.5888230000000  0.4889450000000 1.0
C      1  0.5530940000000  0.4074260000000  0.4883850000000 1.0
C      1  0.5676280000000  0.5802870000000  0.5606850000000 1.0
C      1  0.4432650000000  0.4255500000000  0.5555610000000 1.0
C      1  0.5663430000000  0.5791040000000  0.4374180000000 1.0
C      1  0.4336430000000  0.4190020000000  0.4347990000000 1.0
C      1  0.5187490000000  0.5187840000000  0.3820010000000 1.0
C      1  0.4889160000000  0.4696140000000  0.3839830000000 1.0
C      1  0.5214290000000  0.5202640000000  0.6178940000000 1.0
C      1  0.4907350000000  0.4687990000000  0.6181150000000 1.0
C      1  0.5733260000000  0.4247790000000  0.5314520000000 1.0
C      1  0.4307940000000  0.5693870000000  0.5336730000000 1.0
C      1  0.5767710000000  0.4197120000000  0.4770430000000 1.0
C      1  0.4308480000000  0.5672910000000  0.4759450000000 1.0
C      1  0.4054780000000  0.5319690000000  0.5618310000000 1.0
C      1  0.5874020000000  0.4673540000000  0.5679070000000 1.0
C      1  0.4090520000000  0.5324540000000  0.4322800000000 1.0
C      1  0.5807150000000  0.4624110000000  0.4359920000000 1.0
C      1  0.5782600000000  0.5743480000000  0.4645340000000 1.0
C      1  0.4203770000000  0.4242280000000  0.4610860000000 1.0
C      1  0.5784950000000  0.5762730000000  0.5327880000000 1.0
C      1  0.4245600000000  0.4253480000000  0.5310250000000 1.0
C      1  0.6006950000000  0.5224870000000  0.4832370000000 1.0
C      1  0.4029360000000  0.4770150000000  0.4813230000000 1.0
C      1  0.6015330000000  0.5238520000000  0.5137990000000 1.0
C      1  0.4036960000000  0.4758310000000  0.5107530000000 1.0
C      1  0.4602980000000  0.4080950000000  0.4348370000000 1.0
C      1  0.5401060000000  0.5912910000000  0.4359010000000 1.0
C      1  0.4688710000000  0.4075280000000  0.5532820000000 1.0
C      1  0.5393920000000  0.5889790000000  0.5633890000000 1.0
C      1  0.5246000000000  0.4169340000000  0.5280110000000 1.0
C      1  0.4761120000000  0.5910580000000  0.5295550000000 1.0
C      1  0.5265570000000  0.4169340000000  0.4743200000000 1.0
C      1  0.4723970000000  0.5884130000000  0.4749070000000 1.0
C      1  0.5364610000000  0.4251660000000  0.4272670000000 1.0
C      1  0.4697900000000  0.5670840000000  0.4369790000000 1.0
C      1  0.5412560000000  0.4290900000000  0.5743550000000 1.0
C      1  0.4661600000000  0.5690000000000  0.5720600000000 1.0
C      1  0.5346470000000  0.4943760000000  0.3903260000000 1.0
C      1  0.4729590000000  0.4955650000000  0.3801030000000 1.0
C      1  0.5370380000000  0.4955540000000  0.6117060000000 1.0
C      1  0.4754080000000  0.4935330000000  0.6234130000000 1.0
C      1  0.5399250000000  0.4982940000000  0.4764380000000 1.0
C      1  0.4594140000000  0.5070210000000  0.4724430000000 1.0
C      1  0.5405080000000  0.4983890000000  0.5280420000000 1.0
C      1  0.4562520000000  0.5091890000000  0.5304220000000 1.0
C      1  0.4842300000000  0.5875460000000  0.5588940000000 1.0
C      1  0.5192950000000  0.4174300000000  0.5583150000000 1.0
C      1  0.4881320000000  0.5892990000000  0.4400080000000 1.0
C      1  0.5121920000000  0.4136310000000  0.4391730000000 1.0
C      1  0.6005720000000  0.4906210000000  0.5581530000000 1.0
C      1  0.4013600000000  0.5053040000000  0.5557040000000 1.0
C      1  0.5949780000000  0.4862420000000  0.4431830000000 1.0
C      1  0.3983240000000  0.5078720000000  0.4394820000000 1.0
C      1  0.4857930000000  0.5462430000000  0.4235230000000 1.0
C      1  0.5074740000000  0.4569240000000  0.4340740000000 1.0
C      1  0.4820450000000  0.5475650000000  0.5851290000000 1.0
C      1  0.5103110000000  0.4591480000000  0.5692380000000 1.0
C      1  0.5569050000000  0.4337690000000  0.4482640000000 1.0
C      1  0.4448710000000  0.5582450000000  0.4512410000000 1.0
C      1  0.5669320000000  0.4361480000000  0.5593700000000 1.0
C      1  0.4437750000000  0.5581900000000  0.5573180000000 1.0
C      1  0.4947100000000  0.6106270000000  0.5153930000000 1.0
C      1  0.5039720000000  0.3989520000000  0.5156690000000 1.0
C      1  0.4923720000000  0.6095580000000  0.4854080000000 1.0
C      1  0.5059820000000  0.3976470000000  0.4860340000000 1.0
C      1  0.5149820000000  0.4443120000000  0.4869430000000 1.0
C      1  0.4829100000000  0.5593400000000  0.4851190000000 1.0
C      1  0.5242090000000  0.4453000000000  0.5153410000000 1.0
C      1  0.4795540000000  0.5584240000000  0.5162530000000 1.0
C      1  0.4051330000000  0.4896330000000  0.4193680000000 1.0
C      1  0.5968670000000  0.5042900000000  0.4222810000000 1.0
C      1  0.4063600000000  0.4914490000000  0.5803720000000 1.0
C      1  0.6011560000000  0.5089190000000  0.5788950000000 1.0
C      1  0.4732260000000  0.4341360000000  0.5130170000000 1.0
C      1  0.5134920000000  0.5700420000000  0.5163750000000 1.0
C      1  0.4851610000000  0.4365220000000  0.4867170000000 1.0
C      1  0.5121660000000  0.5680510000000  0.4856240000000 1.0
C      1  0.4757610000000  0.5415000000000  0.6131370000000 1.0
C      1  0.5332900000000  0.4457370000000  0.5974430000000 1.0
C      1  0.4772920000000  0.5418450000000  0.3959330000000 1.0
C      1  0.5309430000000  0.4451840000000  0.4056710000000 1.0
C      1  0.5460900000000  0.6134450000000  0.5171710000000 1.0
C      1  0.4571220000000  0.3863850000000  0.5113450000000 1.0
C      1  0.5425890000000  0.6079260000000  0.4790700000000 1.0
C      1  0.4551290000000  0.3913120000000  0.4821650000000 1.0
C      1  0.4982040000000  0.5038420000000  0.5794440000000 1.0
C      1  0.4994190000000  0.5022120000000  0.4259210000000 1.0
C      1  0.4966100000000  0.5132930000000  0.5045290000000 1.0
END
