TITL C-3578209-2550-706 -7.53207383195688e-06 125000 -819.585023934975 0 0 136 (C1) n - 1
REM
REM in /home/bkarasulu/work/CARBON/AIRSS/Generating-Clusters/EDIP-Nigel-Params/with-SteepDescent/Higher-Symm/SD-CG/HFTN-CG
REM
REM
REM
REM
REM
REM ./C.cell (12c818d87b63d06a65506943cc24bca4)
REM
REM compiler GCC version 9.2.1 20190827 (Red Hat 9.2.1-1)
REM options -cpp -mtune=generic -march=x86-64 -g -O0 -fpre-include=/usr/include/finclude/math-vector-fortran.h
REM seed 1448890654 1875277960 -1280876991 -1406712562 680816498 229379539 1252230805 2037179607 1297319736 1643198638 -1507434283 -1881317449 1077388445 -115466177 728421087 1268138833 -1849597000 -711110755 -959700042 511821477 -769437719 529029797 -1367289407 -1998084311 -1348234763 -1931891821 995033744 -263511342 -382681449 1386541542 -656906039 462526986 -1632414602
REM
CELL 1.54180   50.00000   50.00000   50.00000   90.00000   90.00000   90.00000
LATT -1
SFAC C  
C      1  0.4827610000000  0.6065110000000  0.5139270000000 1.0
C      1  0.4860490000000  0.6064500000000  0.4828150000000 1.0
C      1  0.5171250000000  0.6062970000000  0.4861170000000 1.0
C      1  0.5138660000000  0.6063690000000  0.5171740000000 1.0
C      1  0.5173050000000  0.3934640000000  0.5136780000000 1.0
C      1  0.5137770000000  0.3938850000000  0.4825780000000 1.0
C      1  0.4827810000000  0.3941900000000  0.4860990000000 1.0
C      1  0.4862910000000  0.3938510000000  0.5171780000000 1.0
C      1  0.5422850000000  0.5445270000000  0.4523300000000 1.0
C      1  0.5475270000000  0.5445350000000  0.5425620000000 1.0
C      1  0.4573490000000  0.5447160000000  0.5477350000000 1.0
C      1  0.4521070000000  0.5447190000000  0.4575880000000 1.0
C      1  0.4579560000000  0.4552500000000  0.4521030000000 1.0
C      1  0.4521650000000  0.4549200000000  0.5424880000000 1.0
C      1  0.5430010000000  0.4546770000000  0.5478610000000 1.0
C      1  0.5479080000000  0.4549710000000  0.4576240000000 1.0
C      1  0.5495770000000  0.4753440000000  0.4814440000000 1.0
C      1  0.5198580000000  0.4757520000000  0.5485870000000 1.0
C      1  0.4515980000000  0.4762760000000  0.5192450000000 1.0
C      1  0.4818060000000  0.4758200000000  0.4505740000000 1.0
C      1  0.4501440000000  0.5239770000000  0.4807310000000 1.0
C      1  0.4804260000000  0.5238510000000  0.5494870000000 1.0
C      1  0.5493670000000  0.5237010000000  0.5194930000000 1.0
C      1  0.5191180000000  0.5237970000000  0.4503210000000 1.0
C      1  0.5073340000000  0.5628770000000  0.5225520000000 1.0
C      1  0.4774360000000  0.5630110000000  0.5074530000000 1.0
C      1  0.4924940000000  0.5629490000000  0.4774380000000 1.0
C      1  0.5224910000000  0.5627940000000  0.4926250000000 1.0
C      1  0.4922160000000  0.4375880000000  0.5213380000000 1.0
C      1  0.5225370000000  0.4370530000000  0.5075200000000 1.0
C      1  0.5077060000000  0.4374520000000  0.4770510000000 1.0
C      1  0.4774140000000  0.4378100000000  0.4920690000000 1.0
C      1  0.4801340000000  0.5329510000000  0.4480550000000 1.0
C      1  0.5517670000000  0.5326540000000  0.4804040000000 1.0
C      1  0.5194880000000  0.5328690000000  0.5520510000000 1.0
C      1  0.4478320000000  0.5331630000000  0.5197670000000 1.0
C      1  0.5201400000000  0.4673950000000  0.4478040000000 1.0
C      1  0.4485200000000  0.4676740000000  0.4799120000000 1.0
C      1  0.4805270000000  0.4659960000000  0.5513110000000 1.0
C      1  0.5523650000000  0.4664370000000  0.5196000000000 1.0
C      1  0.4445570000000  0.5721130000000  0.4984960000000 1.0
C      1  0.5013850000000  0.5719300000000  0.4447200000000 1.0
C      1  0.5551080000000  0.5717380000000  0.5015260000000 1.0
C      1  0.4983420000000  0.5719510000000  0.5551930000000 1.0
C      1  0.5555910000000  0.4277060000000  0.4982850000000 1.0
C      1  0.4986670000000  0.4284990000000  0.4445820000000 1.0
C      1  0.4449130000000  0.4288390000000  0.5013450000000 1.0
C      1  0.5020130000000  0.4276880000000  0.5568360000000 1.0
C      1  0.4423260000000  0.5036390000000  0.5311790000000 1.0
C      1  0.4683390000000  0.5030800000000  0.4433690000000 1.0
C      1  0.5565330000000  0.5028210000000  0.4683780000000 1.0
C      1  0.5310580000000  0.5034220000000  0.5578100000000 1.0
C      1  0.5531020000000  0.4972010000000  0.5349030000000 1.0
C      1  0.5338000000000  0.4975270000000  0.4470330000000 1.0
C      1  0.4470030000000  0.4975880000000  0.4661770000000 1.0
C      1  0.4654730000000  0.4969590000000  0.5530880000000 1.0
C      1  0.5644190000000  0.4628510000000  0.5677030000000 1.0
C      1  0.4324060000000  0.4631000000000  0.5640140000000 1.0
C      1  0.4360590000000  0.4628120000000  0.4323960000000 1.0
C      1  0.5677010000000  0.4626020000000  0.4358790000000 1.0
C      1  0.4360930000000  0.5372640000000  0.5682000000000 1.0
C      1  0.5680350000000  0.5370760000000  0.5638240000000 1.0
C      1  0.5636490000000  0.5371070000000  0.4318870000000 1.0
C      1  0.4316290000000  0.5372530000000  0.4363020000000 1.0
C      1  0.4939830000000  0.4509430000000  0.5739930000000 1.0
C      1  0.4263270000000  0.4515160000000  0.4934000000000 1.0
C      1  0.5070390000000  0.4507350000000  0.4254960000000 1.0
C      1  0.5746170000000  0.4499460000000  0.5066390000000 1.0
C      1  0.5067290000000  0.5494330000000  0.5734100000000 1.0
C      1  0.5733060000000  0.5491630000000  0.4931130000000 1.0
C      1  0.4929340000000  0.5494380000000  0.4263960000000 1.0
C      1  0.4262770000000  0.5496250000000  0.5069700000000 1.0
C      1  0.4685860000000  0.5730670000000  0.5495170000000 1.0
C      1  0.4503920000000  0.5730830000000  0.4687560000000 1.0
C      1  0.5311430000000  0.5729000000000  0.4505230000000 1.0
C      1  0.5494150000000  0.5728740000000  0.5313000000000 1.0
C      1  0.5312370000000  0.4266770000000  0.5494830000000 1.0
C      1  0.5496470000000  0.4266330000000  0.4685670000000 1.0
C      1  0.4688510000000  0.4269130000000  0.4501500000000 1.0
C      1  0.4505410000000  0.4268950000000  0.5311410000000 1.0
C      1  0.4484010000000  0.4709390000000  0.4077150000000 1.0
C      1  0.5923220000000  0.4707780000000  0.4483440000000 1.0
C      1  0.5519400000000  0.4709700000000  0.5923700000000 1.0
C      1  0.4076890000000  0.4711230000000  0.5515310000000 1.0
C      1  0.5512050000000  0.5284530000000  0.4072000000000 1.0
C      1  0.4070440000000  0.5284600000000  0.4488370000000 1.0
C      1  0.4487040000000  0.5288190000000  0.5927950000000 1.0
C      1  0.5926980000000  0.5287250000000  0.5512500000000 1.0
C      1  0.4041330000000  0.4921220000000  0.5122350000000 1.0
C      1  0.4877100000000  0.4919730000000  0.4051950000000 1.0
C      1  0.5946090000000  0.4916580000000  0.4879320000000 1.0
C      1  0.5119520000000  0.4922230000000  0.5960510000000 1.0
C      1  0.5897170000000  0.5069230000000  0.5125470000000 1.0
C      1  0.5124320000000  0.5071950000000  0.4097720000000 1.0
C      1  0.4097730000000  0.5072000000000  0.4876170000000 1.0
C      1  0.4874590000000  0.5071020000000  0.5897190000000 1.0
C      1  0.5394600000000  0.5914600000000  0.4725550000000 1.0
C      1  0.5273990000000  0.5915210000000  0.5395310000000 1.0
C      1  0.4603860000000  0.5916640000000  0.5274560000000 1.0
C      1  0.4724430000000  0.5916320000000  0.4604750000000 1.0
C      1  0.4604820000000  0.4087970000000  0.4724730000000 1.0
C      1  0.4734530000000  0.4092410000000  0.5394550000000 1.0
C      1  0.5394550000000  0.4083360000000  0.5272930000000 1.0
C      1  0.5274130000000  0.4084800000000  0.4602740000000 1.0
C      1  0.4869170000000  0.5358280000000  0.5894430000000 1.0
C      1  0.4102600000000  0.5360330000000  0.4870320000000 1.0
C      1  0.5129990000000  0.5360000000000  0.4104160000000 1.0
C      1  0.5893190000000  0.5356320000000  0.5129990000000 1.0
C      1  0.5140330000000  0.4639600000000  0.5904100000000 1.0
C      1  0.5905590000000  0.4631050000000  0.4862900000000 1.0
C      1  0.4863950000000  0.4635060000000  0.4095590000000 1.0
C      1  0.4097390000000  0.4639060000000  0.5136740000000 1.0
C      1  0.5844370000000  0.4807610000000  0.5574930000000 1.0
C      1  0.4424810000000  0.4809100000000  0.5842270000000 1.0
C      1  0.4154220000000  0.4800550000000  0.4424990000000 1.0
C      1  0.5575230000000  0.4799840000000  0.4154280000000 1.0
C      1  0.4148080000000  0.5206940000000  0.5591030000000 1.0
C      1  0.5590620000000  0.5206640000000  0.5852780000000 1.0
C      1  0.5844580000000  0.5200730000000  0.4414120000000 1.0
C      1  0.4411850000000  0.5202110000000  0.4155360000000 1.0
C      1  0.5422150000000  0.4987460000000  0.5956860000000 1.0
C      1  0.4042050000000  0.4989560000000  0.5421990000000 1.0
C      1  0.4579590000000  0.4986160000000  0.4047210000000 1.0
C      1  0.5952120000000  0.4983900000000  0.4581430000000 1.0
C      1  0.4589280000000  0.5015980000000  0.5958200000000 1.0
C      1  0.5959270000000  0.5015000000000  0.5410780000000 1.0
C      1  0.5412880000000  0.5008780000000  0.4038500000000 1.0
C      1  0.4037970000000  0.5009040000000  0.4587790000000 1.0
C      1  0.4909020000000  0.5231660000000  0.5202640000000 1.0
C      1  0.4795640000000  0.5233130000000  0.4912000000000 1.0
C      1  0.5086500000000  0.5231610000000  0.4798090000000 1.0
C      1  0.5200090000000  0.5230430000000  0.5089860000000 1.0
C      1  0.5093180000000  0.4771020000000  0.5199980000000 1.0
C      1  0.5205990000000  0.4770010000000  0.4910700000000 1.0
C      1  0.4916110000000  0.4775020000000  0.4796270000000 1.0
C      1  0.4801620000000  0.4778820000000  0.5086790000000 1.0
END
