TITL C-3577086-586-311 -3.73284200976509e-06 125000 -802.933954582801 0 0 128 (C1) n - 1
REM
REM in /home/bkarasulu/work/CARBON/AIRSS/Generating-Clusters/EDIP-Nigel-Params/with-SteepDescent/Higher-Symm/SD-CG/HFTN-CG
REM
REM
REM
REM
REM
REM ./C.cell (12c818d87b63d06a65506943cc24bca4)
REM
REM compiler GCC version 9.2.1 20190827 (Red Hat 9.2.1-1)
REM options -cpp -mtune=generic -march=x86-64 -g -O0 -fpre-include=/usr/include/finclude/math-vector-fortran.h
REM seed 2023704650 -1913283057 -219498708 -1435576011 -1430469596 649610787 -1736234125 1289970276 908673272 -173933846 -1162836349 1390066174 2068916597 -682987617 273728703 -1777680332 -900301178 106170361 -462036134 -879831898 1124779600 703657674 -1291578674 1637505092 1686491363 -1451900388 -254941091 465630772 -320200238 1936888009 1821766093 29669268 -2067086384
REM
CELL 1.54180   50.00000   50.00000   50.00000   90.00000   90.00000   90.00000
LATT -1
SFAC C  
C      1  0.4853010000000  0.4747310000000  0.6054200000000 1.0
C      1  0.5325490000000  0.4605140000000  0.6063970000000 1.0
C      1  0.5300010000000  0.5065120000000  0.5987790000000 1.0
C      1  0.5195570000000  0.5518670000000  0.6015350000000 1.0
C      1  0.4772610000000  0.5294140000000  0.6067950000000 1.0
C      1  0.4428630000000  0.4963220000000  0.6031600000000 1.0
C      1  0.4800320000000  0.4519440000000  0.3959260000000 1.0
C      1  0.5199330000000  0.4776390000000  0.3980580000000 1.0
C      1  0.5556290000000  0.5087630000000  0.3962960000000 1.0
C      1  0.5116340000000  0.5296610000000  0.3987410000000 1.0
C      1  0.4650190000000  0.5447550000000  0.3986940000000 1.0
C      1  0.4700470000000  0.4977730000000  0.3984880000000 1.0
C      1  0.5746540000000  0.5226990000000  0.4468710000000 1.0
C      1  0.5161160000000  0.5756960000000  0.4433130000000 1.0
C      1  0.4431690000000  0.5495090000000  0.4511190000000 1.0
C      1  0.4254250000000  0.4761070000000  0.4458320000000 1.0
C      1  0.4839650000000  0.4257890000000  0.4434530000000 1.0
C      1  0.5580300000000  0.4481310000000  0.4440920000000 1.0
C      1  0.5750150000000  0.5250810000000  0.5539700000000 1.0
C      1  0.5151170000000  0.5755630000000  0.5544190000000 1.0
C      1  0.4415960000000  0.5535060000000  0.5566600000000 1.0
C      1  0.4296050000000  0.4743280000000  0.5512270000000 1.0
C      1  0.4826180000000  0.4270530000000  0.5583800000000 1.0
C      1  0.5583280000000  0.4483210000000  0.5566020000000 1.0
C      1  0.4449990000000  0.4308150000000  0.4678250000000 1.0
C      1  0.5301310000000  0.4280330000000  0.4771940000000 1.0
C      1  0.5894370000000  0.4983150000000  0.4919700000000 1.0
C      1  0.5478300000000  0.5642470000000  0.4762910000000 1.0
C      1  0.4563660000000  0.5708120000000  0.4923650000000 1.0
C      1  0.4281910000000  0.5064860000000  0.4844730000000 1.0
C      1  0.4572160000000  0.4200070000000  0.5143630000000 1.0
C      1  0.5311830000000  0.4241760000000  0.5250210000000 1.0
C      1  0.5819420000000  0.4893130000000  0.5203320000000 1.0
C      1  0.5479330000000  0.5642960000000  0.5218660000000 1.0
C      1  0.4690750000000  0.5671280000000  0.5189920000000 1.0
C      1  0.4155150000000  0.4985080000000  0.5106760000000 1.0
C      1  0.5051930000000  0.4706260000000  0.5592060000000 1.0
C      1  0.5280290000000  0.4884840000000  0.5582470000000 1.0
C      1  0.5257380000000  0.5174190000000  0.5513910000000 1.0
C      1  0.4981370000000  0.5278570000000  0.5560870000000 1.0
C      1  0.4801160000000  0.5088620000000  0.5680630000000 1.0
C      1  0.4791490000000  0.4820850000000  0.5544580000000 1.0
C      1  0.5032740000000  0.4713990000000  0.4435050000000 1.0
C      1  0.5267210000000  0.4883750000000  0.4406970000000 1.0
C      1  0.5253910000000  0.5170680000000  0.4469510000000 1.0
C      1  0.4979850000000  0.5275340000000  0.4409280000000 1.0
C      1  0.4742860000000  0.5110640000000  0.4451650000000 1.0
C      1  0.4756640000000  0.4816250000000  0.4494730000000 1.0
C      1  0.4929670000000  0.5572510000000  0.4363000000000 1.0
C      1  0.4472660000000  0.5217390000000  0.4388900000000 1.0
C      1  0.4533590000000  0.4661270000000  0.4342460000000 1.0
C      1  0.5073590000000  0.4437600000000  0.4342590000000 1.0
C      1  0.5548870000000  0.4774180000000  0.4360240000000 1.0
C      1  0.5474380000000  0.5344140000000  0.4352940000000 1.0
C      1  0.4924100000000  0.5563480000000  0.5639120000000 1.0
C      1  0.4461620000000  0.5248850000000  0.5655660000000 1.0
C      1  0.4549530000000  0.4660100000000  0.5666730000000 1.0
C      1  0.5073270000000  0.4426910000000  0.5683210000000 1.0
C      1  0.5551160000000  0.4781230000000  0.5659350000000 1.0
C      1  0.5469850000000  0.5357650000000  0.5635790000000 1.0
C      1  0.5759880000000  0.4961240000000  0.5499940000000 1.0
C      1  0.5412270000000  0.5631380000000  0.5506670000000 1.0
C      1  0.4668290000000  0.5653640000000  0.5487340000000 1.0
C      1  0.4272600000000  0.5021770000000  0.5399000000000 1.0
C      1  0.4580810000000  0.4376350000000  0.5651380000000 1.0
C      1  0.5338010000000  0.4323190000000  0.5541090000000 1.0
C      1  0.5753810000000  0.4950860000000  0.4591530000000 1.0
C      1  0.5418030000000  0.5624930000000  0.4472760000000 1.0
C      1  0.4659630000000  0.5645210000000  0.4626360000000 1.0
C      1  0.4267520000000  0.5039420000000  0.4541020000000 1.0
C      1  0.4567840000000  0.4366790000000  0.4414970000000 1.0
C      1  0.5330700000000  0.4338240000000  0.4481730000000 1.0
C      1  0.4912700000000  0.5526640000000  0.4054290000000 1.0
C      1  0.4524360000000  0.5211370000000  0.4077170000000 1.0
C      1  0.4604490000000  0.4702380000000  0.4047300000000 1.0
C      1  0.5070190000000  0.4504930000000  0.4042840000000 1.0
C      1  0.5502270000000  0.4822660000000  0.4041220000000 1.0
C      1  0.5417810000000  0.5314830000000  0.4053820000000 1.0
C      1  0.4918840000000  0.5539780000000  0.5951170000000 1.0
C      1  0.4492290000000  0.5226850000000  0.5959970000000 1.0
C      1  0.4564940000000  0.4728510000000  0.5962040000000 1.0
C      1  0.5064480000000  0.4518110000000  0.5991300000000 1.0
C      1  0.5480690000000  0.4822270000000  0.5968740000000 1.0
C      1  0.5396610000000  0.5338490000000  0.5931310000000 1.0
C      1  0.4784090000000  0.5139400000000  0.5187830000000 1.0
C      1  0.4799440000000  0.4857970000000  0.5260190000000 1.0
C      1  0.5033790000000  0.4710330000000  0.5153810000000 1.0
C      1  0.5297780000000  0.4871710000000  0.5141940000000 1.0
C      1  0.5300170000000  0.5172370000000  0.5225490000000 1.0
C      1  0.5043730000000  0.5293730000000  0.5127850000000 1.0
C      1  0.4721890000000  0.5104780000000  0.4889190000000 1.0
C      1  0.4710670000000  0.4779630000000  0.4787930000000 1.0
C      1  0.4980290000000  0.4644280000000  0.4865630000000 1.0
C      1  0.5306910000000  0.4861210000000  0.4843960000000 1.0
C      1  0.5301290000000  0.5175630000000  0.4755800000000 1.0
C      1  0.5043390000000  0.5318220000000  0.4840970000000 1.0
C      1  0.5822230000000  0.5330040000000  0.5260840000000 1.0
C      1  0.5111460000000  0.5877620000000  0.5282420000000 1.0
C      1  0.4283930000000  0.5534140000000  0.5297430000000 1.0
C      1  0.4226220000000  0.4561150000000  0.5283760000000 1.0
C      1  0.4829870000000  0.4176990000000  0.5301960000000 1.0
C      1  0.5697090000000  0.4447080000000  0.5299560000000 1.0
C      1  0.5824760000000  0.5370650000000  0.4718480000000 1.0
C      1  0.5115660000000  0.5879540000000  0.4692070000000 1.0
C      1  0.4223080000000  0.5520960000000  0.4709750000000 1.0
C      1  0.4179280000000  0.4651210000000  0.4732610000000 1.0
C      1  0.4862150000000  0.4148030000000  0.4713070000000 1.0
C      1  0.5699860000000  0.4451190000000  0.4703040000000 1.0
C      1  0.5551380000000  0.5371020000000  0.5141240000000 1.0
C      1  0.4963200000000  0.5679000000000  0.5126490000000 1.0
C      1  0.4453310000000  0.5294710000000  0.5201750000000 1.0
C      1  0.4462080000000  0.4477460000000  0.5129460000000 1.0
C      1  0.5045970000000  0.4318870000000  0.5163930000000 1.0
C      1  0.5641020000000  0.4685640000000  0.5139740000000 1.0
C      1  0.5549870000000  0.5374580000000  0.4841280000000 1.0
C      1  0.4989310000000  0.5638490000000  0.4824080000000 1.0
C      1  0.4459800000000  0.5278240000000  0.4893540000000 1.0
C      1  0.4446340000000  0.4560650000000  0.4839520000000 1.0
C      1  0.5034300000000  0.4335340000000  0.4864130000000 1.0
C      1  0.5583230000000  0.4693970000000  0.4833850000000 1.0
C      1  0.5506380000000  0.4289490000000  0.5000890000000 1.0
C      1  0.5989140000000  0.5249540000000  0.4930400000000 1.0
C      1  0.4281110000000  0.5671280000000  0.4946870000000 1.0
C      1  0.4598240000000  0.4112760000000  0.4843660000000 1.0
C      1  0.5359780000000  0.5813520000000  0.4988400000000 1.0
C      1  0.4068210000000  0.4712260000000  0.5084260000000 1.0
C      1  0.5004060000000  0.5016750000000  0.3943540000000 1.0
C      1  0.4942100000000  0.5035140000000  0.5969070000000 1.0
END
