TITL C-3578205-846-1 -2.06931010723934e-05 125000 -453.182780981517 0 0 75 (C1) n - 1
REM
REM in /home/bkarasulu/work/CARBON/AIRSS/Generating-Clusters/EDIP-Nigel-Params/with-SteepDescent/Higher-Symm/SD-CG/HFTN-CG
REM
REM
REM
REM
REM
REM ./C.cell (12c818d87b63d06a65506943cc24bca4)
REM
REM compiler GCC version 9.2.1 20190827 (Red Hat 9.2.1-1)
REM options -cpp -mtune=generic -march=x86-64 -g -O0 -fpre-include=/usr/include/finclude/math-vector-fortran.h
REM seed -1736925272 933050755 -1510288782 253390092 -1391918577 -1197292010 1210998474 783066623 -1176148297 -1599206379 1777667807 -1658620 -1537501003 2061991630 -340817958 981298941 -113709712 1244853838 464538678 -1486867461 615295800 -282957211 -764661550 -53790389 -1217410960 406237721 557375495 1174627126 62131037 1692855778 -2133486711 -1849127666 760053475
REM
CELL 1.54180   50.00000   50.00000   50.00000   90.00000   90.00000   90.00000
LATT -1
SFAC C  
C      1  0.5615820000000  0.4897190000000  0.5223010000000 1.0
C      1  0.4609760000000  0.4514630000000  0.5231500000000 1.0
C      1  0.4767220000000  0.5606760000000  0.5235420000000 1.0
C      1  0.5654990000000  0.4875600000000  0.4760520000000 1.0
C      1  0.4606090000000  0.4516250000000  0.4774940000000 1.0
C      1  0.4769240000000  0.5599170000000  0.4778410000000 1.0
C      1  0.4381200000000  0.4903270000000  0.5233460000000 1.0
C      1  0.5411240000000  0.4500770000000  0.5227120000000 1.0
C      1  0.5214710000000  0.5597660000000  0.5234800000000 1.0
C      1  0.4384150000000  0.4904200000000  0.4776410000000 1.0
C      1  0.5394060000000  0.4510250000000  0.4773180000000 1.0
C      1  0.5214360000000  0.5624170000000  0.4776020000000 1.0
C      1  0.5140110000000  0.4278500000000  0.4205010000000 1.0
C      1  0.4307850000000  0.5243880000000  0.4214070000000 1.0
C      1  0.5464320000000  0.5323520000000  0.4154780000000 1.0
C      1  0.5139990000000  0.4264660000000  0.5774670000000 1.0
C      1  0.4294400000000  0.5239150000000  0.5783740000000 1.0
C      1  0.5545470000000  0.5478510000000  0.5789580000000 1.0
C      1  0.4861040000000  0.4284220000000  0.4208070000000 1.0
C      1  0.5713530000000  0.5236600000000  0.4240310000000 1.0
C      1  0.4442770000000  0.5488240000000  0.4213180000000 1.0
C      1  0.4860860000000  0.4270410000000  0.5780130000000 1.0
C      1  0.5685500000000  0.5237080000000  0.5783600000000 1.0
C      1  0.4427790000000  0.5484430000000  0.5781560000000 1.0
C      1  0.4499160000000  0.5645600000000  0.4861200000000 1.0
C      1  0.5786720000000  0.5112910000000  0.4853430000000 1.0
C      1  0.4709140000000  0.4263460000000  0.4859620000000 1.0
C      1  0.4497270000000  0.5640000000000  0.5146120000000 1.0
C      1  0.5778960000000  0.5114600000000  0.5137460000000 1.0
C      1  0.4711350000000  0.4261860000000  0.5143860000000 1.0
C      1  0.5486060000000  0.5631910000000  0.4863890000000 1.0
C      1  0.4215640000000  0.5118570000000  0.4862040000000 1.0
C      1  0.5307460000000  0.4249880000000  0.4854640000000 1.0
C      1  0.5485290000000  0.5628520000000  0.5148020000000 1.0
C      1  0.4214850000000  0.5119170000000  0.5146250000000 1.0
C      1  0.5303770000000  0.4250610000000  0.5139180000000 1.0
C      1  0.5373310000000  0.4614810000000  0.5488080000000 1.0
C      1  0.4490350000000  0.4869330000000  0.5496680000000 1.0
C      1  0.5131250000000  0.5516700000000  0.5496910000000 1.0
C      1  0.5402000000000  0.4597060000000  0.4500340000000 1.0
C      1  0.4490380000000  0.4871990000000  0.4511950000000 1.0
C      1  0.5133850000000  0.5533340000000  0.4518450000000 1.0
C      1  0.4633180000000  0.4623590000000  0.5495870000000 1.0
C      1  0.5509980000000  0.4862770000000  0.5487090000000 1.0
C      1  0.4847820000000  0.5518600000000  0.5496670000000 1.0
C      1  0.4631590000000  0.4625900000000  0.4511080000000 1.0
C      1  0.5534910000000  0.4847220000000  0.4501560000000 1.0
C      1  0.4851410000000  0.5545170000000  0.4508650000000 1.0
C      1  0.4810070000000  0.4539320000000  0.5704540000000 1.0
C      1  0.4689040000000  0.5403830000000  0.5705360000000 1.0
C      1  0.5483740000000  0.5058690000000  0.5694050000000 1.0
C      1  0.4812210000000  0.4547020000000  0.4303490000000 1.0
C      1  0.4698050000000  0.5410000000000  0.4308820000000 1.0
C      1  0.5604280000000  0.4982340000000  0.4260490000000 1.0
C      1  0.5198570000000  0.4531900000000  0.5699080000000 1.0
C      1  0.5288600000000  0.5394900000000  0.5702500000000 1.0
C      1  0.4503200000000  0.5062530000000  0.5707500000000 1.0
C      1  0.5201070000000  0.4536210000000  0.4306470000000 1.0
C      1  0.5300610000000  0.5482980000000  0.4305550000000 1.0
C      1  0.4511710000000  0.5068580000000  0.4304960000000 1.0
C      1  0.4265720000000  0.5584210000000  0.5290760000000 1.0
C      1  0.5843190000000  0.5339900000000  0.5286180000000 1.0
C      1  0.4873890000000  0.4087310000000  0.5287140000000 1.0
C      1  0.4271420000000  0.5580410000000  0.4715400000000 1.0
C      1  0.5847640000000  0.5341810000000  0.4706450000000 1.0
C      1  0.4866010000000  0.4089130000000  0.4710070000000 1.0
C      1  0.5714590000000  0.5575920000000  0.5296170000000 1.0
C      1  0.4141610000000  0.5344830000000  0.5291650000000 1.0
C      1  0.5143330000000  0.4075520000000  0.5285300000000 1.0
C      1  0.5711760000000  0.5574790000000  0.4711420000000 1.0
C      1  0.4144220000000  0.5343080000000  0.4714370000000 1.0
C      1  0.5135190000000  0.4085420000000  0.4711210000000 1.0
C      1  0.4993010000000  0.5643520000000  0.5008080000000 1.0
C      1  0.4464360000000  0.4691850000000  0.5005110000000 1.0
C      1  0.5550730000000  0.4681310000000  0.4996330000000 1.0
END
