TITL C-3577090-796-35 -4.63567741560624e-06 125000 -815.208156226726 0 0 131 (C1) n - 1
REM
REM in /home/bkarasulu/work/CARBON/AIRSS/Generating-Clusters/EDIP-Nigel-Params/with-SteepDescent/Higher-Symm/SD-CG/HFTN-CG
REM
REM
REM
REM
REM
REM ./C.cell (12c818d87b63d06a65506943cc24bca4)
REM
REM compiler GCC version 9.2.1 20190827 (Red Hat 9.2.1-1)
REM options -cpp -mtune=generic -march=x86-64 -g -O0 -fpre-include=/usr/include/finclude/math-vector-fortran.h
REM seed -1391535307 -1265089764 338022369 1922290220 -20273863 -982000933 193127462 125009840 1066656566 -1686703468 1155125506 -1787768138 925092179 -250587695 727031801 2066972992 291786829 -1860132675 349329438 464880670 339709999 -1074637251 -1700830345 1504008474 1457454219 -1967557366 -1113477228 -1436060698 1871655620 1311440471 1960083740 1543342344 324224227
REM
CELL 1.54180   50.00000   50.00000   50.00000   90.00000   90.00000   90.00000
LATT -1
SFAC C  
C      1  0.5528380000000  0.5791830000000  0.5118860000000 1.0
C      1  0.4437380000000  0.5119320000000  0.4189780000000 1.0
C      1  0.5549830000000  0.4194680000000  0.4870790000000 1.0
C      1  0.4474790000000  0.4861190000000  0.5779460000000 1.0
C      1  0.4278270000000  0.5276720000000  0.5593690000000 1.0
C      1  0.5747130000000  0.5540160000000  0.4793380000000 1.0
C      1  0.4236000000000  0.4783250000000  0.4455490000000 1.0
C      1  0.5708690000000  0.4423210000000  0.5281190000000 1.0
C      1  0.5210530000000  0.4161450000000  0.4530150000000 1.0
C      1  0.4814440000000  0.4514140000000  0.5823340000000 1.0
C      1  0.5170060000000  0.5809460000000  0.5436630000000 1.0
C      1  0.4803970000000  0.5433740000000  0.4190380000000 1.0
C      1  0.5132350000000  0.4015630000000  0.5011110000000 1.0
C      1  0.4890390000000  0.5014930000000  0.5971440000000 1.0
C      1  0.5097050000000  0.5968200000000  0.4946880000000 1.0
C      1  0.4882980000000  0.4952150000000  0.4074220000000 1.0
C      1  0.4851210000000  0.4196030000000  0.5407960000000 1.0
C      1  0.5262850000000  0.5394150000000  0.5762870000000 1.0
C      1  0.4706400000000  0.5758670000000  0.4591940000000 1.0
C      1  0.5167130000000  0.4560530000000  0.4197220000000 1.0
C      1  0.4931260000000  0.4178560000000  0.4564500000000 1.0
C      1  0.5092500000000  0.4561330000000  0.5785300000000 1.0
C      1  0.4890090000000  0.5797510000000  0.5441220000000 1.0
C      1  0.5083970000000  0.5444840000000  0.4172630000000 1.0
C      1  0.4712100000000  0.5250760000000  0.5922950000000 1.0
C      1  0.5278700000000  0.5891040000000  0.4725380000000 1.0
C      1  0.4709050000000  0.4750650000000  0.4194950000000 1.0
C      1  0.5303840000000  0.4082990000000  0.5244270000000 1.0
C      1  0.4867060000000  0.5268630000000  0.5476460000000 1.0
C      1  0.5131340000000  0.5481140000000  0.4744140000000 1.0
C      1  0.4931790000000  0.4745810000000  0.4576810000000 1.0
C      1  0.5065280000000  0.4593900000000  0.5237300000000 1.0
C      1  0.5514460000000  0.5285370000000  0.4349250000000 1.0
C      1  0.4490480000000  0.4334180000000  0.4705220000000 1.0
C      1  0.5526920000000  0.4702350000000  0.5653500000000 1.0
C      1  0.4462020000000  0.5657870000000  0.5278480000000 1.0
C      1  0.5070110000000  0.5027700000000  0.5517800000000 1.0
C      1  0.4882470000000  0.5536900000000  0.4950200000000 1.0
C      1  0.5142660000000  0.4947160000000  0.4472110000000 1.0
C      1  0.4888930000000  0.4474900000000  0.5026860000000 1.0
C      1  0.5230110000000  0.5657570000000  0.4285120000000 1.0
C      1  0.4762200000000  0.4273930000000  0.4360030000000 1.0
C      1  0.5256770000000  0.4351890000000  0.5684670000000 1.0
C      1  0.4745660000000  0.5682580000000  0.5655830000000 1.0
C      1  0.4416620000000  0.4436110000000  0.5483810000000 1.0
C      1  0.5747500000000  0.5398330000000  0.5618820000000 1.0
C      1  0.4228750000000  0.5595900000000  0.4587690000000 1.0
C      1  0.5603330000000  0.4500600000000  0.4445330000000 1.0
C      1  0.5403430000000  0.4869460000000  0.5144540000000 1.0
C      1  0.4584050000000  0.5147970000000  0.5100500000000 1.0
C      1  0.5529810000000  0.5151920000000  0.4767230000000 1.0
C      1  0.4472350000000  0.4757160000000  0.4814420000000 1.0
C      1  0.4418510000000  0.4829670000000  0.4236030000000 1.0
C      1  0.5583940000000  0.4174600000000  0.5164230000000 1.0
C      1  0.4428970000000  0.5151290000000  0.5828130000000 1.0
C      1  0.5552400000000  0.5757350000000  0.4829770000000 1.0
C      1  0.4227290000000  0.5318230000000  0.4590460000000 1.0
C      1  0.5557460000000  0.4644620000000  0.4705020000000 1.0
C      1  0.4454310000000  0.4688940000000  0.5325550000000 1.0
C      1  0.5753740000000  0.5404440000000  0.5341620000000 1.0
C      1  0.5780480000000  0.5146760000000  0.4404230000000 1.0
C      1  0.4228250000000  0.4390140000000  0.4851110000000 1.0
C      1  0.5775590000000  0.4851210000000  0.5610050000000 1.0
C      1  0.4211260000000  0.5600220000000  0.5139560000000 1.0
C      1  0.5502030000000  0.5524610000000  0.5252710000000 1.0
C      1  0.4477200000000  0.5225580000000  0.4466440000000 1.0
C      1  0.5385630000000  0.4456360000000  0.4875240000000 1.0
C      1  0.4613480000000  0.4862270000000  0.5511100000000 1.0
C      1  0.4205400000000  0.4851560000000  0.5221580000000 1.0
C      1  0.5872350000000  0.5186110000000  0.5171220000000 1.0
C      1  0.4116630000000  0.5151450000000  0.4814380000000 1.0
C      1  0.5805150000000  0.4765540000000  0.4869280000000 1.0
C      1  0.5336020000000  0.4392380000000  0.4378330000000 1.0
C      1  0.4695670000000  0.4392360000000  0.5570050000000 1.0
C      1  0.5317200000000  0.5563500000000  0.5496130000000 1.0
C      1  0.4673960000000  0.5471210000000  0.4450630000000 1.0
C      1  0.5911420000000  0.4877350000000  0.5349060000000 1.0
C      1  0.4090350000000  0.5332140000000  0.5120800000000 1.0
C      1  0.5909720000000  0.5088420000000  0.4669880000000 1.0
C      1  0.4092070000000  0.4649650000000  0.4907370000000 1.0
C      1  0.5872940000000  0.4642330000000  0.5161160000000 1.0
C      1  0.4148720000000  0.5147170000000  0.5352600000000 1.0
C      1  0.5917370000000  0.5317850000000  0.4869260000000 1.0
C      1  0.4067550000000  0.4846570000000  0.4680370000000 1.0
C      1  0.4831910000000  0.5153450000000  0.4719900000000 1.0
C      1  0.5205860000000  0.4855700000000  0.4905560000000 1.0
C      1  0.4794680000000  0.4924290000000  0.5109050000000 1.0
C      1  0.5171610000000  0.5251780000000  0.5132310000000 1.0
C      1  0.4589530000000  0.5160650000000  0.5415950000000 1.0
C      1  0.5363800000000  0.5371600000000  0.4921610000000 1.0
C      1  0.4650210000000  0.4905990000000  0.4600310000000 1.0
C      1  0.5369630000000  0.4560960000000  0.5179170000000 1.0
C      1  0.5441900000000  0.5064880000000  0.4133690000000 1.0
C      1  0.4574060000000  0.4127190000000  0.4928510000000 1.0
C      1  0.5396750000000  0.4877250000000  0.5858280000000 1.0
C      1  0.4571720000000  0.5871930000000  0.5099930000000 1.0
C      1  0.4876670000000  0.5424710000000  0.5735840000000 1.0
C      1  0.5093110000000  0.5786390000000  0.4512740000000 1.0
C      1  0.4869810000000  0.4503960000000  0.4213130000000 1.0
C      1  0.5144350000000  0.4214950000000  0.5452260000000 1.0
C      1  0.4945490000000  0.4750210000000  0.5486750000000 1.0
C      1  0.4967270000000  0.5469190000000  0.5250880000000 1.0
C      1  0.5051770000000  0.5264810000000  0.4511770000000 1.0
C      1  0.5036890000000  0.4495290000000  0.4755330000000 1.0
C      1  0.4665480000000  0.5352370000000  0.4879020000000 1.0
C      1  0.5371280000000  0.4901170000000  0.4665910000000 1.0
C      1  0.4650540000000  0.4668700000000  0.5058920000000 1.0
C      1  0.5297290000000  0.5073920000000  0.5336840000000 1.0
C      1  0.4811680000000  0.5822190000000  0.4913300000000 1.0
C      1  0.5186910000000  0.4879480000000  0.4178750000000 1.0
C      1  0.4834170000000  0.4181170000000  0.5095040000000 1.0
C      1  0.5156230000000  0.5059560000000  0.5801920000000 1.0
C      1  0.5623960000000  0.5059020000000  0.5891140000000 1.0
C      1  0.4341040000000  0.5883970000000  0.4920590000000 1.0
C      1  0.5718890000000  0.4932940000000  0.4184200000000 1.0
C      1  0.4298420000000  0.4170330000000  0.5064630000000 1.0
C      1  0.5275660000000  0.5931310000000  0.5188210000000 1.0
C      1  0.4699860000000  0.5189700000000  0.4060510000000 1.0
C      1  0.5323460000000  0.4030490000000  0.4773850000000 1.0
C      1  0.4702340000000  0.4769630000000  0.5939670000000 1.0
C      1  0.5491240000000  0.5564780000000  0.4319650000000 1.0
C      1  0.4491390000000  0.4276780000000  0.4429670000000 1.0
C      1  0.5529110000000  0.4420830000000  0.5686510000000 1.0
C      1  0.4481550000000  0.5668430000000  0.5561010000000 1.0
C      1  0.5565830000000  0.5330820000000  0.5820350000000 1.0
C      1  0.4401070000000  0.5807470000000  0.4649620000000 1.0
C      1  0.5713250000000  0.4664700000000  0.4253730000000 1.0
C      1  0.4306800000000  0.4234060000000  0.5333790000000 1.0
C      1  0.4350450000000  0.5000290000000  0.4984600000000 1.0
C      1  0.5647810000000  0.4995370000000  0.5013880000000 1.0
C      1  0.5004350000000  0.5048530000000  0.4959040000000 1.0
END
