TITL C-3577090-796-305 -0.000156622767655387 125000 -354.91444467156 0 0 60 (C1) n - 1
REM
REM in /home/bkarasulu/work/CARBON/AIRSS/Generating-Clusters/EDIP-Nigel-Params/with-SteepDescent/Higher-Symm/SD-CG/HFTN-CG
REM
REM
REM
REM
REM
REM ./C.cell (12c818d87b63d06a65506943cc24bca4)
REM
REM compiler GCC version 9.2.1 20190827 (Red Hat 9.2.1-1)
REM options -cpp -mtune=generic -march=x86-64 -g -O0 -fpre-include=/usr/include/finclude/math-vector-fortran.h
REM seed -1865182602 -2068734617 -1933125069 95002012 -1579858035 2134457629 1712316735 -107686062 -1741555387 42813884 1639657311 -789114561 -1124779603 -1278327954 486193544 -1392976431 2062192378 530744425 1086313225 -365133798 -244598005 -1554957136 -1393079851 1662609118 1886537670 1921257057 1346785502 -1449590533 1857785504 217067155 1978428698 -678798996 479234431
REM
CELL 1.54180   50.00000   50.00000   50.00000   90.00000   90.00000   90.00000
LATT -1
SFAC C  
C      1  0.4858830000000  0.5007250000000  0.4709680000000 1.0
C      1  0.4809630000000  0.4989370000000  0.5262330000000 1.0
C      1  0.5311390000000  0.5001720000000  0.5030800000000 1.0
C      1  0.5049510000000  0.4689030000000  0.5575450000000 1.0
C      1  0.5466270000000  0.4678180000000  0.4659260000000 1.0
C      1  0.4463690000000  0.4653590000000  0.4738880000000 1.0
C      1  0.4915750000000  0.4771820000000  0.4533830000000 1.0
C      1  0.4632170000000  0.4753900000000  0.5294770000000 1.0
C      1  0.5437150000000  0.4768040000000  0.5165890000000 1.0
C      1  0.5666550000000  0.5161920000000  0.5004380000000 1.0
C      1  0.4699910000000  0.5238330000000  0.4443300000000 1.0
C      1  0.4648100000000  0.5203830000000  0.5544540000000 1.0
C      1  0.4377180000000  0.4807820000000  0.5197960000000 1.0
C      1  0.5495970000000  0.4830130000000  0.5432310000000 1.0
C      1  0.5098020000000  0.4840120000000  0.4332420000000 1.0
C      1  0.4797630000000  0.4523400000000  0.5202760000000 1.0
C      1  0.5279890000000  0.4530790000000  0.5071340000000 1.0
C      1  0.4924660000000  0.4527710000000  0.4714740000000 1.0
C      1  0.5536650000000  0.5390430000000  0.5161890000000 1.0
C      1  0.4881060000000  0.5444940000000  0.4561420000000 1.0
C      1  0.4594510000000  0.5393990000000  0.5320590000000 1.0
C      1  0.5061820000000  0.5588570000000  0.4386040000000 1.0
C      1  0.4322270000000  0.5492180000000  0.5279170000000 1.0
C      1  0.5498610000000  0.5633010000000  0.5335580000000 1.0
C      1  0.5061020000000  0.5254780000000  0.4711010000000 1.0
C      1  0.4672210000000  0.5206560000000  0.5098860000000 1.0
C      1  0.5283450000000  0.5238220000000  0.5227230000000 1.0
C      1  0.4926450000000  0.5229410000000  0.5605280000000 1.0
C      1  0.5572890000000  0.5187500000000  0.4737410000000 1.0
C      1  0.4480710000000  0.5209520000000  0.4626980000000 1.0
C      1  0.5383150000000  0.4445680000000  0.4800280000000 1.0
C      1  0.4641940000000  0.4431640000000  0.4759420000000 1.0
C      1  0.4983910000000  0.4449030000000  0.5430100000000 1.0
C      1  0.4415100000000  0.5033080000000  0.5030230000000 1.0
C      1  0.5340080000000  0.5061650000000  0.5481120000000 1.0
C      1  0.5239570000000  0.5053670000000  0.4443700000000 1.0
C      1  0.4805260000000  0.5606610000000  0.5312960000000 1.0
C      1  0.5471370000000  0.5599330000000  0.4958750000000 1.0
C      1  0.4727700000000  0.5611700000000  0.4769850000000 1.0
C      1  0.5019780000000  0.5487590000000  0.5479660000000 1.0
C      1  0.5454410000000  0.5454290000000  0.4709140000000 1.0
C      1  0.4475850000000  0.5459080000000  0.4796840000000 1.0
C      1  0.5179630000000  0.4299190000000  0.5251290000000 1.0
C      1  0.5133480000000  0.4295520000000  0.4721810000000 1.0
C      1  0.4702560000000  0.4288820000000  0.5020390000000 1.0
C      1  0.5442970000000  0.4958640000000  0.4613860000000 1.0
C      1  0.4428410000000  0.4940560000000  0.4758830000000 1.0
C      1  0.5092080000000  0.4976750000000  0.5595820000000 1.0
C      1  0.5310010000000  0.5541950000000  0.4486390000000 1.0
C      1  0.4297540000000  0.5510220000000  0.5009490000000 1.0
C      1  0.5272210000000  0.5610150000000  0.5492570000000 1.0
C      1  0.5011340000000  0.3884590000000  0.4997620000000 1.0
C      1  0.5102940000000  0.5843080000000  0.4997410000000 1.0
C      1  0.5022080000000  0.3628790000000  0.5005360000000 1.0
C      1  0.5020990000000  0.5357480000000  0.5015660000000 1.0
C      1  0.4903030000000  0.5640550000000  0.5024500000000 1.0
C      1  0.4998850000000  0.4631770000000  0.4996210000000 1.0
C      1  0.5006890000000  0.4168520000000  0.4997180000000 1.0
C      1  0.4996720000000  0.4917290000000  0.5001380000000 1.0
C      1  0.5239100000000  0.6057410000000  0.4955120000000 1.0
END
