TITL C-3577084-3642-113 1.24831746924905e-05 125000 -411.781514983616 0 0 70 (C5) n - 1
REM
REM in /home/bkarasulu/work/CARBON/AIRSS/Generating-Clusters/EDIP-Nigel-Params/with-SteepDescent/Higher-Symm/SD-CG/HFTN-CG
REM
REM
REM
REM
REM
REM ./C.cell (12c818d87b63d06a65506943cc24bca4)
REM
REM compiler GCC version 9.2.1 20190827 (Red Hat 9.2.1-1)
REM options -cpp -mtune=generic -march=x86-64 -g -O0 -fpre-include=/usr/include/finclude/math-vector-fortran.h
REM seed -701943174 -2133562610 2123638172 -451152168 -1034943961 -861287611 1045616020 -483677355 1353286743 794821000 717718631 1806083784 -1597060797 897698326 1045394739 1778603057 -657727216 642172079 301241153 1641617082 -500420670 -995348215 -927978907 -1259946143 -87298427 -1317119600 1001670029 378233670 -1803382633 -1688433325 -1282430461 979576744 637685284
REM
CELL 1.54180   50.00000   50.00000   50.00000   90.00000   90.00000   90.00000
LATT -1
SFAC C  
C      1  0.5420500000000  0.4971420000000  0.5611930000000 1.0
C      1  0.5158280000000  0.5391080000000  0.5611630000000 1.0
C      1  0.4678120000000  0.5271380000000  0.5612240000000 1.0
C      1  0.4643590000000  0.4777730000000  0.5612910000000 1.0
C      1  0.5102400000000  0.4592350000000  0.5612720000000 1.0
C      1  0.5522490000000  0.4483250000000  0.4698470000000 1.0
C      1  0.5652350000000  0.5337230000000  0.4697250000000 1.0
C      1  0.4880290000000  0.5724630000000  0.4697470000000 1.0
C      1  0.4273270000000  0.5110070000000  0.4698840000000 1.0
C      1  0.4670170000000  0.4342860000000  0.4699460000000 1.0
C      1  0.5247020000000  0.5018060000000  0.4777590000000 1.0
C      1  0.5058740000000  0.5240510000000  0.4777480000000 1.0
C      1  0.4788990000000  0.5130190000000  0.4777880000000 1.0
C      1  0.4810560000000  0.4839550000000  0.4778230000000 1.0
C      1  0.5093640000000  0.4770250000000  0.4778050000000 1.0
C      1  0.5523230000000  0.4450390000000  0.5153570000000 1.0
C      1  0.5684690000000  0.5327780000000  0.5152280000000 1.0
C      1  0.4900130000000  0.5752460000000  0.5152470000000 1.0
C      1  0.4253790000000  0.5137540000000  0.5153880000000 1.0
C      1  0.4638890000000  0.4332820000000  0.5154550000000 1.0
C      1  0.5248440000000  0.4976110000000  0.4339550000000 1.0
C      1  0.5098250000000  0.5228900000000  0.4339370000000 1.0
C      1  0.4811420000000  0.5164180000000  0.4339720000000 1.0
C      1  0.4784340000000  0.4871390000000  0.4340130000000 1.0
C      1  0.5054430000000  0.4755160000000  0.4340020000000 1.0
C      1  0.5819030000000  0.5074100000000  0.5120120000000 1.0
C      1  0.5182850000000  0.5801840000000  0.5119780000000 1.0
C      1  0.4294140000000  0.5421680000000  0.5121110000000 1.0
C      1  0.4381060000000  0.4458990000000  0.5122270000000 1.0
C      1  0.5323500000000  0.4244170000000  0.5121660000000 1.0
C      1  0.5150960000000  0.5647090000000  0.4672440000000 1.0
C      1  0.4430620000000  0.5343540000000  0.4673510000000 1.0
C      1  0.4496710000000  0.4564640000000  0.4674460000000 1.0
C      1  0.5257910000000  0.4386810000000  0.4673970000000 1.0
C      1  0.5662260000000  0.5055800000000  0.4672720000000 1.0
C      1  0.5108680000000  0.4505310000000  0.4464300000000 1.0
C      1  0.5503050000000  0.4950500000000  0.4463350000000 1.0
C      1  0.5201520000000  0.5463130000000  0.4462970000000 1.0
C      1  0.4620800000000  0.5334770000000  0.4463690000000 1.0
C      1  0.4563420000000  0.4742810000000  0.4464510000000 1.0
C      1  0.4684670000000  0.4822950000000  0.5055960000000 1.0
C      1  0.5071040000000  0.4645390000000  0.5055820000000 1.0
C      1  0.5359310000000  0.4957990000000  0.5055140000000 1.0
C      1  0.5151100000000  0.5328740000000  0.5054860000000 1.0
C      1  0.4734140000000  0.5245290000000  0.5055360000000 1.0
C      1  0.4530310000000  0.5450510000000  0.4946460000000 1.0
C      1  0.4426300000000  0.4692520000000  0.4947540000000 1.0
C      1  0.5115050000000  0.4359360000000  0.4947320000000 1.0
C      1  0.5644730000000  0.4911450000000  0.4946110000000 1.0
C      1  0.5283350000000  0.5585820000000  0.4945580000000 1.0
C      1  0.4798910000000  0.5693150000000  0.5410260000000 1.0
C      1  0.4279410000000  0.5022940000000  0.5411620000000 1.0
C      1  0.4756280000000  0.4321760000000  0.5412080000000 1.0
C      1  0.5570500000000  0.4558620000000  0.5411000000000 1.0
C      1  0.5596850000000  0.5406180000000  0.5409880000000 1.0
C      1  0.5350560000000  0.5526780000000  0.5467100000000 1.0
C      1  0.4608210000000  0.5496180000000  0.5467840000000 1.0
C      1  0.4407920000000  0.4780720000000  0.5468960000000 1.0
C      1  0.5026470000000  0.4369130000000  0.5468900000000 1.0
C      1  0.5609050000000  0.4830220000000  0.5467760000000 1.0
C      1  0.4767810000000  0.4704970000000  0.5353430000000 1.0
C      1  0.5209500000000  0.4688000000000  0.5353040000000 1.0
C      1  0.5362130000000  0.5102830000000  0.5352360000000 1.0
C      1  0.5014770000000  0.5376180000000  0.5352330000000 1.0
C      1  0.4647460000000  0.5130290000000  0.5353000000000 1.0
C      1  0.4719320000000  0.5700960000000  0.4925710000000 1.0
C      1  0.4246480000000  0.4949660000000  0.4927130000000 1.0
C      1  0.4814880000000  0.4267800000000  0.4927470000000 1.0
C      1  0.5639020000000  0.4597680000000  0.4926270000000 1.0
C      1  0.5579960000000  0.5483420000000  0.4925180000000 1.0
END
