TITL C-3577083-591-740 -1.04103915206749e-07 125000 -61.7143241276487 0 0 12 (D3h) n - 1
REM
REM in /home/bkarasulu/work/CARBON/AIRSS/Generating-Clusters/EDIP-Nigel-Params/with-SteepDescent/Higher-Symm/SD-CG/HFTN-CG
REM
REM
REM
REM
REM
REM ./C.cell (12c818d87b63d06a65506943cc24bca4)
REM
REM compiler GCC version 9.2.1 20190827 (Red Hat 9.2.1-1)
REM options -cpp -mtune=generic -march=x86-64 -g -O0 -fpre-include=/usr/include/finclude/math-vector-fortran.h
REM seed 15295870 1008275308 1861172298 -903852505 778569533 1633767307 1504218940 110976499 1146827036 565470551 106057918 -163704520 750954668 1570813699 522549885 291505300 -1800431731 -809342250 894312262 -381017113 1681854811 1980006199 -1759655478 -2133003938 -1177824730 1507697466 1833671941 -852014323 -1341971840 228872246 -651118274 -2055093696 -636097549
REM
CELL 1.54180   50.00000   50.00000   50.00000   90.00000   90.00000   90.00000
LATT -1
SFAC C  
C      1  0.4835880000000  0.4782720000000  0.4999740000000 1.0
C      1  0.5270220000000  0.4966510000000  0.4999410000000 1.0
C      1  0.4893890000000  0.5250770000000  0.5000840000000 1.0
C      1  0.5169710000000  0.5224690000000  0.5000260000000 1.0
C      1  0.4720560000000  0.5034630000000  0.5000610000000 1.0
C      1  0.5109730000000  0.4740680000000  0.4999130000000 1.0
C      1  0.5216400000000  0.4488590000000  0.4998280000000 1.0
C      1  0.5334700000000  0.5443110000000  0.5000520000000 1.0
C      1  0.4448900000000  0.5068300000000  0.5001200000000 1.0
C      1  0.5488990000000  0.5647390000000  0.5000760000000 1.0
C      1  0.4194850000000  0.5099780000000  0.5001750000000 1.0
C      1  0.5316160000000  0.4252830000000  0.4997490000000 1.0
END
