TITL C-3578205-846-32 -1.9164964048542e-06 125000 -888.687073485323 0 0 144 (C1) n - 1
REM
REM in /home/bkarasulu/work/CARBON/AIRSS/Generating-Clusters/EDIP-Nigel-Params/with-SteepDescent/Higher-Symm/SD-CG/HFTN-CG
REM
REM
REM
REM
REM
REM ./C.cell (12c818d87b63d06a65506943cc24bca4)
REM
REM compiler GCC version 9.2.1 20190827 (Red Hat 9.2.1-1)
REM options -cpp -mtune=generic -march=x86-64 -g -O0 -fpre-include=/usr/include/finclude/math-vector-fortran.h
REM seed 1550035859 -439972602 1494655041 1976238551 -963122768 1572988374 -1914332619 790617269 721424381 1667107397 -642850258 -484041772 729555492 -1975927335 2009196961 399817028 -1015348816 1739325985 457447459 1497667522 1449331035 -875351443 420029897 930578797 -1028136646 565618413 460606937 906351350 -1342831002 1041648394 -164968369 -590695261 1026795479
REM
CELL 1.54180   50.00000   50.00000   50.00000   90.00000   90.00000   90.00000
LATT -1
SFAC C  
C      1  0.4493280000000  0.5882120000000  0.4909950000000 1.0
C      1  0.6019090000000  0.4993860000000  0.4908110000000 1.0
C      1  0.4487440000000  0.4119120000000  0.4907250000000 1.0
C      1  0.5464760000000  0.5520400000000  0.4811860000000 1.0
C      1  0.5219870000000  0.4342650000000  0.4816280000000 1.0
C      1  0.4322020000000  0.5141890000000  0.4813580000000 1.0
C      1  0.5965500000000  0.4580030000000  0.5164680000000 1.0
C      1  0.4152840000000  0.4364790000000  0.5165900000000 1.0
C      1  0.4886450000000  0.6043350000000  0.5161100000000 1.0
C      1  0.5864650000000  0.5227470000000  0.5492490000000 1.0
C      1  0.4767280000000  0.4132020000000  0.5491600000000 1.0
C      1  0.4367810000000  0.5662890000000  0.5499090000000 1.0
C      1  0.4782050000000  0.4817300000000  0.4153130000000 1.0
C      1  0.4951880000000  0.5280060000000  0.4155000000000 1.0
C      1  0.5266430000000  0.4902160000000  0.4153490000000 1.0
C      1  0.5220290000000  0.5717330000000  0.5253470000000 1.0
C      1  0.5513860000000  0.4456150000000  0.5256670000000 1.0
C      1  0.4275320000000  0.4808340000000  0.5265900000000 1.0
C      1  0.5175230000000  0.5025950000000  0.5535930000000 1.0
C      1  0.4910530000000  0.4825880000000  0.5540640000000 1.0
C      1  0.4858290000000  0.5195880000000  0.5528930000000 1.0
C      1  0.5142530000000  0.5500690000000  0.4752320000000 1.0
C      1  0.5359150000000  0.4631080000000  0.4757150000000 1.0
C      1  0.4497500000000  0.4872300000000  0.4761960000000 1.0
C      1  0.5434200000000  0.5861390000000  0.5088180000000 1.0
C      1  0.5531510000000  0.4198620000000  0.5091380000000 1.0
C      1  0.4054680000000  0.4942760000000  0.5100360000000 1.0
C      1  0.4522040000000  0.4534270000000  0.5687190000000 1.0
C      1  0.4845350000000  0.5620550000000  0.5658210000000 1.0
C      1  0.5623970000000  0.4813450000000  0.5668790000000 1.0
C      1  0.5650920000000  0.4134050000000  0.4639570000000 1.0
C      1  0.3927740000000  0.4872790000000  0.4648300000000 1.0
C      1  0.5427830000000  0.5996040000000  0.4635320000000 1.0
C      1  0.5006210000000  0.5279100000000  0.5126160000000 1.0
C      1  0.5236300000000  0.4862050000000  0.5128560000000 1.0
C      1  0.4759620000000  0.4866480000000  0.5128050000000 1.0
C      1  0.5474420000000  0.5150120000000  0.4593110000000 1.0
C      1  0.4892230000000  0.4514950000000  0.4597190000000 1.0
C      1  0.4630590000000  0.5338390000000  0.4587000000000 1.0
C      1  0.5542980000000  0.4814070000000  0.4163200000000 1.0
C      1  0.4566890000000  0.4622300000000  0.4165610000000 1.0
C      1  0.4890000000000  0.5564050000000  0.4160500000000 1.0
C      1  0.4627530000000  0.5910530000000  0.5159670000000 1.0
C      1  0.5975470000000  0.4871100000000  0.5157810000000 1.0
C      1  0.4401840000000  0.4213620000000  0.5157880000000 1.0
C      1  0.4559860000000  0.4762590000000  0.5861040000000 1.0
C      1  0.5020870000000  0.5476310000000  0.5829110000000 1.0
C      1  0.5404010000000  0.4733400000000  0.5833250000000 1.0
C      1  0.5803890000000  0.4471150000000  0.5387660000000 1.0
C      1  0.4138590000000  0.4552140000000  0.5393530000000 1.0
C      1  0.5060930000000  0.5955100000000  0.5383660000000 1.0
C      1  0.4535810000000  0.5261560000000  0.5415270000000 1.0
C      1  0.5429680000000  0.5215770000000  0.5417410000000 1.0
C      1  0.4966260000000  0.4519760000000  0.5422240000000 1.0
C      1  0.4275280000000  0.5695750000000  0.4572240000000 1.0
C      1  0.5948660000000  0.5285470000000  0.4585970000000 1.0
C      1  0.4776290000000  0.4037870000000  0.4586040000000 1.0
C      1  0.4532740000000  0.5309910000000  0.5014630000000 1.0
C      1  0.5501380000000  0.5253880000000  0.5023610000000 1.0
C      1  0.4970040000000  0.4440870000000  0.5029740000000 1.0
C      1  0.6049980000000  0.5012590000000  0.5400330000000 1.0
C      1  0.4489440000000  0.4075440000000  0.5398140000000 1.0
C      1  0.4479010000000  0.5922050000000  0.5411300000000 1.0
C      1  0.5690950000000  0.5779400000000  0.4993600000000 1.0
C      1  0.5333060000000  0.4016550000000  0.4995870000000 1.0
C      1  0.3996080000000  0.5211540000000  0.5015460000000 1.0
C      1  0.4790580000000  0.5039080000000  0.4638990000000 1.0
C      1  0.5132380000000  0.5168160000000  0.4622100000000 1.0
C      1  0.5066960000000  0.4804490000000  0.4626240000000 1.0
C      1  0.5367320000000  0.5609900000000  0.4333870000000 1.0
C      1  0.5344570000000  0.4376860000000  0.4337480000000 1.0
C      1  0.4289160000000  0.5012560000000  0.4340420000000 1.0
C      1  0.4684230000000  0.4447400000000  0.4917400000000 1.0
C      1  0.4685200000000  0.5553330000000  0.4908350000000 1.0
C      1  0.5636230000000  0.5000930000000  0.4912710000000 1.0
C      1  0.5558010000000  0.4519160000000  0.4198380000000 1.0
C      1  0.4303860000000  0.4756720000000  0.4201220000000 1.0
C      1  0.5138060000000  0.5724630000000  0.4194230000000 1.0
C      1  0.4999580000000  0.5714350000000  0.4552710000000 1.0
C      1  0.5615560000000  0.4645780000000  0.4556750000000 1.0
C      1  0.4384900000000  0.4643180000000  0.4559550000000 1.0
C      1  0.5076410000000  0.4485820000000  0.4322650000000 1.0
C      1  0.4518740000000  0.5188500000000  0.4325710000000 1.0
C      1  0.5408890000000  0.5323570000000  0.4317110000000 1.0
C      1  0.5231770000000  0.5131070000000  0.5041650000000 1.0
C      1  0.4997020000000  0.4735870000000  0.5047680000000 1.0
C      1  0.4768070000000  0.5141760000000  0.5062360000000 1.0
C      1  0.5438210000000  0.5222440000000  0.5860210000000 1.0
C      1  0.4974900000000  0.4498580000000  0.5864240000000 1.0
C      1  0.4573000000000  0.5261780000000  0.5860230000000 1.0
C      1  0.5395000000000  0.5532910000000  0.5461470000000 1.0
C      1  0.5262170000000  0.4396370000000  0.5461120000000 1.0
C      1  0.4377380000000  0.5015500000000  0.5475330000000 1.0
C      1  0.5254990000000  0.4485280000000  0.5757770000000 1.0
C      1  0.4422030000000  0.5012850000000  0.5769020000000 1.0
C      1  0.5311150000000  0.5473380000000  0.5757600000000 1.0
C      1  0.4564180000000  0.5531560000000  0.5696960000000 1.0
C      1  0.5676140000000  0.5102830000000  0.5699880000000 1.0
C      1  0.4753080000000  0.4350370000000  0.5705180000000 1.0
C      1  0.4257720000000  0.5505340000000  0.5285770000000 1.0
C      1  0.5748430000000  0.5446240000000  0.5322310000000 1.0
C      1  0.5015780000000  0.4128320000000  0.5324210000000 1.0
C      1  0.6045130000000  0.4850520000000  0.4658160000000 1.0
C      1  0.4348150000000  0.4169560000000  0.4658950000000 1.0
C      1  0.4607300000000  0.5981320000000  0.4660790000000 1.0
C      1  0.5059050000000  0.4008650000000  0.5057190000000 1.0
C      1  0.4119240000000  0.5465410000000  0.5038580000000 1.0
C      1  0.5832520000000  0.5544900000000  0.5056020000000 1.0
C      1  0.5472820000000  0.4734790000000  0.5025640000000 1.0
C      1  0.4531900000000  0.4719600000000  0.5030190000000 1.0
C      1  0.4996730000000  0.5546070000000  0.5021050000000 1.0
C      1  0.5225820000000  0.5186840000000  0.4133620000000 1.0
C      1  0.5049130000000  0.4710360000000  0.4136340000000 1.0
C      1  0.4726090000000  0.5101830000000  0.4138310000000 1.0
C      1  0.4132150000000  0.5055340000000  0.4581450000000 1.0
C      1  0.5482930000000  0.5725980000000  0.4574360000000 1.0
C      1  0.5389400000000  0.4223070000000  0.4580250000000 1.0
C      1  0.4895420000000  0.3988730000000  0.4827610000000 1.0
C      1  0.4159270000000  0.5615840000000  0.4804650000000 1.0
C      1  0.5933190000000  0.5413410000000  0.4827250000000 1.0
C      1  0.4735700000000  0.5599660000000  0.4432240000000 1.0
C      1  0.5647500000000  0.4931270000000  0.4435350000000 1.0
C      1  0.4616830000000  0.4474530000000  0.4438130000000 1.0
C      1  0.5894420000000  0.4594280000000  0.4656860000000 1.0
C      1  0.4201180000000  0.4428490000000  0.4660350000000 1.0
C      1  0.4905100000000  0.5979600000000  0.4656250000000 1.0
C      1  0.4262300000000  0.4421400000000  0.5633880000000 1.0
C      1  0.4890360000000  0.5903730000000  0.5623320000000 1.0
C      1  0.5850550000000  0.4643120000000  0.5627110000000 1.0
C      1  0.4563680000000  0.4177350000000  0.4459650000000 1.0
C      1  0.4508500000000  0.5799880000000  0.4452370000000 1.0
C      1  0.5932060000000  0.5032920000000  0.4457930000000 1.0
C      1  0.5318580000000  0.6035170000000  0.4893010000000 1.0
C      1  0.5741110000000  0.4207930000000  0.4897140000000 1.0
C      1  0.3950810000000  0.4759030000000  0.4905980000000 1.0
C      1  0.6079390000000  0.4809060000000  0.5595660000000 1.0
C      1  0.4296470000000  0.4141870000000  0.5594910000000 1.0
C      1  0.4641660000000  0.6040250000000  0.5610180000000 1.0
C      1  0.5248350000000  0.4989200000000  0.5835330000000 1.0
C      1  0.4860130000000  0.4778100000000  0.5843250000000 1.0
C      1  0.4871700000000  0.5219300000000  0.5853120000000 1.0
C      1  0.4096310000000  0.4509350000000  0.4917290000000 1.0
C      1  0.5032100000000  0.6021240000000  0.4910430000000 1.0
C      1  0.5878160000000  0.4460680000000  0.4912380000000 1.0
END
