TITL C-3578205-846-339 7.10115511243629e-06 125000 -1224.7435692934 0 0 199 (C1) n - 1
REM
REM in /home/bkarasulu/work/CARBON/AIRSS/Generating-Clusters/EDIP-Nigel-Params/with-SteepDescent/Higher-Symm/SD-CG/HFTN-CG
REM
REM
REM
REM
REM
REM ./C.cell (12c818d87b63d06a65506943cc24bca4)
REM
REM compiler GCC version 9.2.1 20190827 (Red Hat 9.2.1-1)
REM options -cpp -mtune=generic -march=x86-64 -g -O0 -fpre-include=/usr/include/finclude/math-vector-fortran.h
REM seed -591750791 -2033902541 -672506843 -1817689625 1890411920 -1740203750 -558234120 1649486157 518222594 1762514500 1554204490 -900777283 -671394489 -951691067 1186763630 -17289602 -2082531999 -122445741 1522976489 -1639594483 2084583784 -1733271950 -1933504262 -1938597694 1565111221 -1434448782 -1434548726 219938954 1265529475 -707278273 -663777124 -883358213 -1897943810
REM
CELL 1.54180   50.00000   50.00000   50.00000   90.00000   90.00000   90.00000
LATT -1
SFAC C  
C      1  0.4716180000000  0.4753500000000  0.5074460000000 1.0
C      1  0.4802210000000  0.4857170000000  0.4798710000000 1.0
C      1  0.5120960000000  0.4839190000000  0.4677370000000 1.0
C      1  0.5337500000000  0.4727950000000  0.4849370000000 1.0
C      1  0.5201190000000  0.4786510000000  0.5264500000000 1.0
C      1  0.4907230000000  0.4861100000000  0.5302660000000 1.0
C      1  0.4712250000000  0.5266190000000  0.5079170000000 1.0
C      1  0.4800880000000  0.5161040000000  0.4800380000000 1.0
C      1  0.5120480000000  0.5161600000000  0.4679420000000 1.0
C      1  0.5335140000000  0.5248090000000  0.4868700000000 1.0
C      1  0.5183060000000  0.5259320000000  0.5304210000000 1.0
C      1  0.4897430000000  0.5162680000000  0.5313570000000 1.0
C      1  0.5636270000000  0.5452220000000  0.5967900000000 1.0
C      1  0.4500160000000  0.5452760000000  0.6019160000000 1.0
C      1  0.3867760000000  0.5451750000000  0.5072510000000 1.0
C      1  0.4360490000000  0.5455340000000  0.4061110000000 1.0
C      1  0.5484100000000  0.5460490000000  0.3947710000000 1.0
C      1  0.6146900000000  0.5450070000000  0.4909630000000 1.0
C      1  0.5640290000000  0.4552600000000  0.5963870000000 1.0
C      1  0.4505410000000  0.4547900000000  0.6023660000000 1.0
C      1  0.3870890000000  0.4559710000000  0.5070530000000 1.0
C      1  0.4361030000000  0.4554230000000  0.4062310000000 1.0
C      1  0.5482730000000  0.4543780000000  0.3950640000000 1.0
C      1  0.6144330000000  0.4553360000000  0.4909150000000 1.0
C      1  0.4825930000000  0.5624880000000  0.4769060000000 1.0
C      1  0.5113220000000  0.5644480000000  0.4727450000000 1.0
C      1  0.5309160000000  0.5549620000000  0.4937580000000 1.0
C      1  0.5191980000000  0.5556890000000  0.5238020000000 1.0
C      1  0.4906280000000  0.5649950000000  0.5259990000000 1.0
C      1  0.4716140000000  0.5569650000000  0.5047200000000 1.0
C      1  0.4827070000000  0.4386240000000  0.4763420000000 1.0
C      1  0.5112100000000  0.4342570000000  0.4724830000000 1.0
C      1  0.5310300000000  0.4445120000000  0.4928900000000 1.0
C      1  0.5197850000000  0.4468110000000  0.5226720000000 1.0
C      1  0.4911240000000  0.4375360000000  0.5255960000000 1.0
C      1  0.4719930000000  0.4448590000000  0.5042140000000 1.0
C      1  0.5546300000000  0.4024460000000  0.4505140000000 1.0
C      1  0.5658680000000  0.4065670000000  0.5242310000000 1.0
C      1  0.5140680000000  0.4076770000000  0.5688710000000 1.0
C      1  0.4469460000000  0.4056730000000  0.5444390000000 1.0
C      1  0.4335630000000  0.4068440000000  0.4769780000000 1.0
C      1  0.4868230000000  0.4043340000000  0.4292240000000 1.0
C      1  0.5541090000000  0.5969780000000  0.4510320000000 1.0
C      1  0.5660700000000  0.5939930000000  0.5237570000000 1.0
C      1  0.5134750000000  0.5942850000000  0.5696640000000 1.0
C      1  0.4461370000000  0.5959550000000  0.5445530000000 1.0
C      1  0.4335590000000  0.5941960000000  0.4765770000000 1.0
C      1  0.4876520000000  0.5957000000000  0.4296840000000 1.0
C      1  0.4789660000000  0.5155810000000  0.3839710000000 1.0
C      1  0.5868880000000  0.5152190000000  0.4260130000000 1.0
C      1  0.6088390000000  0.5156520000000  0.5415870000000 1.0
C      1  0.5177240000000  0.5157440000000  0.6230560000000 1.0
C      1  0.4086210000000  0.5157100000000  0.5743740000000 1.0
C      1  0.3890340000000  0.5158600000000  0.4582730000000 1.0
C      1  0.4789250000000  0.4848950000000  0.3839670000000 1.0
C      1  0.5864390000000  0.4850320000000  0.4262310000000 1.0
C      1  0.6090380000000  0.4852870000000  0.5415530000000 1.0
C      1  0.5183880000000  0.4848460000000  0.6215120000000 1.0
C      1  0.4089480000000  0.4848680000000  0.5743410000000 1.0
C      1  0.3890730000000  0.4851620000000  0.4582890000000 1.0
C      1  0.4702330000000  0.6103890000000  0.5474600000000 1.0
C      1  0.4445140000000  0.6076530000000  0.4986630000000 1.0
C      1  0.4735090000000  0.6099030000000  0.4495830000000 1.0
C      1  0.5294090000000  0.6104270000000  0.4503650000000 1.0
C      1  0.5558340000000  0.6061330000000  0.5004470000000 1.0
C      1  0.5270740000000  0.6073670000000  0.5486540000000 1.0
C      1  0.4712620000000  0.3916790000000  0.5473720000000 1.0
C      1  0.4450960000000  0.3937880000000  0.4989980000000 1.0
C      1  0.4734260000000  0.3904800000000  0.4497750000000 1.0
C      1  0.5302330000000  0.3883390000000  0.4501370000000 1.0
C      1  0.5565020000000  0.3936660000000  0.5008350000000 1.0
C      1  0.5278470000000  0.3948870000000  0.5479130000000 1.0
C      1  0.4696830000000  0.5151460000000  0.4318920000000 1.0
C      1  0.5385310000000  0.5148080000000  0.4323920000000 1.0
C      1  0.5752380000000  0.5156370000000  0.5078580000000 1.0
C      1  0.5241980000000  0.5155210000000  0.5794050000000 1.0
C      1  0.4537130000000  0.5135310000000  0.5622810000000 1.0
C      1  0.4267120000000  0.5166610000000  0.4875550000000 1.0
C      1  0.4697060000000  0.4862400000000  0.4318910000000 1.0
C      1  0.5376970000000  0.4868930000000  0.4316290000000 1.0
C      1  0.5749760000000  0.4849110000000  0.5083560000000 1.0
C      1  0.5245850000000  0.4834840000000  0.5775540000000 1.0
C      1  0.4545550000000  0.4851770000000  0.5619380000000 1.0
C      1  0.4268480000000  0.4849660000000  0.4875190000000 1.0
C      1  0.4960150000000  0.4450900000000  0.5958560000000 1.0
C      1  0.4172580000000  0.4447130000000  0.5417390000000 1.0
C      1  0.4192330000000  0.4445620000000  0.4485190000000 1.0
C      1  0.5033160000000  0.4431290000000  0.4028060000000 1.0
C      1  0.5836060000000  0.4431790000000  0.4569010000000 1.0
C      1  0.5785360000000  0.4450780000000  0.5522390000000 1.0
C      1  0.4956190000000  0.5558850000000  0.5962860000000 1.0
C      1  0.4170000000000  0.5563990000000  0.5419560000000 1.0
C      1  0.4192270000000  0.5564210000000  0.4484190000000 1.0
C      1  0.5033630000000  0.5571360000000  0.4028080000000 1.0
C      1  0.5838420000000  0.5569240000000  0.4570930000000 1.0
C      1  0.5777230000000  0.5555780000000  0.5525620000000 1.0
C      1  0.4717490000000  0.6158290000000  0.4987300000000 1.0
C      1  0.4864630000000  0.6176710000000  0.4738950000000 1.0
C      1  0.5153610000000  0.6170820000000  0.4744160000000 1.0
C      1  0.5287340000000  0.6147110000000  0.4998380000000 1.0
C      1  0.5139900000000  0.6152150000000  0.5245320000000 1.0
C      1  0.4852120000000  0.6175970000000  0.5241100000000 1.0
C      1  0.4722710000000  0.3854010000000  0.4988020000000 1.0
C      1  0.4867900000000  0.3828950000000  0.4739210000000 1.0
C      1  0.5158270000000  0.3828010000000  0.4743120000000 1.0
C      1  0.5293490000000  0.3852750000000  0.4997460000000 1.0
C      1  0.5145810000000  0.3862080000000  0.5242810000000 1.0
C      1  0.4859050000000  0.3839880000000  0.5240410000000 1.0
C      1  0.5910860000000  0.4712260000000  0.4522340000000 1.0
C      1  0.5885670000000  0.4717570000000  0.5584730000000 1.0
C      1  0.4946960000000  0.4719310000000  0.6082790000000 1.0
C      1  0.4061610000000  0.4712720000000  0.5479060000000 1.0
C      1  0.4099390000000  0.4716070000000  0.4419810000000 1.0
C      1  0.5038300000000  0.4704320000000  0.3914550000000 1.0
C      1  0.5918060000000  0.5291170000000  0.4519840000000 1.0
C      1  0.5881340000000  0.5289600000000  0.5585500000000 1.0
C      1  0.4942960000000  0.5289800000000  0.6091210000000 1.0
C      1  0.4059980000000  0.5296740000000  0.5480250000000 1.0
C      1  0.4099150000000  0.5293720000000  0.4419380000000 1.0
C      1  0.5038980000000  0.5298770000000  0.3915050000000 1.0
C      1  0.4599250000000  0.5199350000000  0.4587310000000 1.0
C      1  0.5165220000000  0.5290960000000  0.4423460000000 1.0
C      1  0.5610380000000  0.5158330000000  0.4806050000000 1.0
C      1  0.5359860000000  0.5174210000000  0.5524240000000 1.0
C      1  0.4798360000000  0.5212630000000  0.5575170000000 1.0
C      1  0.4438950000000  0.5165170000000  0.5125620000000 1.0
C      1  0.4600270000000  0.4814230000000  0.4587300000000 1.0
C      1  0.5148990000000  0.4732970000000  0.4409330000000 1.0
C      1  0.5605800000000  0.4835750000000  0.4817550000000 1.0
C      1  0.5368420000000  0.4858730000000  0.5499870000000 1.0
C      1  0.4813980000000  0.4794120000000  0.5565760000000 1.0
C      1  0.4441970000000  0.4852270000000  0.5124310000000 1.0
C      1  0.4571310000000  0.4791740000000  0.4053480000000 1.0
C      1  0.5588710000000  0.4788710000000  0.4126950000000 1.0
C      1  0.6040460000000  0.4789650000000  0.5111930000000 1.0
C      1  0.5422270000000  0.4788540000000  0.6015620000000 1.0
C      1  0.4376270000000  0.4785290000000  0.5855790000000 1.0
C      1  0.3970670000000  0.4793570000000  0.4876710000000 1.0
C      1  0.4571220000000  0.5217880000000  0.4052550000000 1.0
C      1  0.5592600000000  0.5216430000000  0.4125070000000 1.0
C      1  0.6042130000000  0.5215550000000  0.5110300000000 1.0
C      1  0.5421910000000  0.5214400000000  0.6029990000000 1.0
C      1  0.4371750000000  0.5211850000000  0.5855960000000 1.0
C      1  0.3968740000000  0.5219150000000  0.4877090000000 1.0
C      1  0.4849790000000  0.5689070000000  0.4214080000000 1.0
C      1  0.5601070000000  0.5696780000000  0.4478060000000 1.0
C      1  0.5757570000000  0.5678300000000  0.5268580000000 1.0
C      1  0.5146570000000  0.5674200000000  0.5780590000000 1.0
C      1  0.4402860000000  0.5695040000000  0.5522030000000 1.0
C      1  0.4256390000000  0.5674160000000  0.4739390000000 1.0
C      1  0.4849180000000  0.4312750000000  0.4213160000000 1.0
C      1  0.5599900000000  0.4299810000000  0.4476780000000 1.0
C      1  0.5762920000000  0.4325920000000  0.5266240000000 1.0
C      1  0.5152420000000  0.4344110000000  0.5775000000000 1.0
C      1  0.4407290000000  0.4320210000000  0.5520600000000 1.0
C      1  0.4257150000000  0.4336220000000  0.4740420000000 1.0
C      1  0.5308110000000  0.5260330000000  0.3796520000000 1.0
C      1  0.6159610000000  0.5250850000000  0.4686710000000 1.0
C      1  0.5835390000000  0.5252480000000  0.5875080000000 1.0
C      1  0.4663430000000  0.5257250000000  0.6181630000000 1.0
C      1  0.3834990000000  0.5257010000000  0.5296180000000 1.0
C      1  0.4141120000000  0.5259040000000  0.4130870000000 1.0
C      1  0.5307610000000  0.4743270000000  0.3795640000000 1.0
C      1  0.6153770000000  0.4752250000000  0.4687210000000 1.0
C      1  0.5840290000000  0.4753480000000  0.5874340000000 1.0
C      1  0.4669530000000  0.4746930000000  0.6180830000000 1.0
C      1  0.3836520000000  0.4752990000000  0.5295330000000 1.0
C      1  0.4141160000000  0.4750320000000  0.4131270000000 1.0
C      1  0.5960290000000  0.5650840000000  0.4815000000000 1.0
C      1  0.5613310000000  0.5635620000000  0.5744720000000 1.0
C      1  0.4691430000000  0.5623500000000  0.5882270000000 1.0
C      1  0.4059540000000  0.5644950000000  0.5170590000000 1.0
C      1  0.4380820000000  0.5637750000000  0.4285950000000 1.0
C      1  0.5302590000000  0.5642600000000  0.4086000000000 1.0
C      1  0.5960530000000  0.4350870000000  0.4812510000000 1.0
C      1  0.5620210000000  0.4370160000000  0.5739830000000 1.0
C      1  0.4695900000000  0.4378200000000  0.5885150000000 1.0
C      1  0.4063770000000  0.4367130000000  0.5167400000000 1.0
C      1  0.4381070000000  0.4371830000000  0.4287240000000 1.0
C      1  0.5301570000000  0.4361050000000  0.4089020000000 1.0
C      1  0.4430990000000  0.4305520000000  0.5084020000000 1.0
C      1  0.4647920000000  0.4273800000000  0.4541290000000 1.0
C      1  0.5219970000000  0.4253710000000  0.4448480000000 1.0
C      1  0.5598030000000  0.4300120000000  0.4918420000000 1.0
C      1  0.5368810000000  0.4316700000000  0.5455630000000 1.0
C      1  0.4791730000000  0.4285820000000  0.5525120000000 1.0
C      1  0.4425360000000  0.5710120000000  0.5084950000000 1.0
C      1  0.4648610000000  0.5731100000000  0.4541970000000 1.0
C      1  0.5220710000000  0.5731810000000  0.4450930000000 1.0
C      1  0.5596640000000  0.5697250000000  0.4919540000000 1.0
C      1  0.5365240000000  0.5707630000000  0.5462190000000 1.0
C      1  0.4786580000000  0.5735870000000  0.5528780000000 1.0
C      1  0.4242810000000  0.5004640000000  0.4015260000000 1.0
C      1  0.4512050000000  0.5000020000000  0.6155440000000 1.0
C      1  0.5463860000000  0.5002280000000  0.3822520000000 1.0
C      1  0.3785300000000  0.5005220000000  0.5152080000000 1.0
C      1  0.6218260000000  0.5000700000000  0.4831750000000 1.0
C      1  0.5752860000000  0.5002280000000  0.6004420000000 1.0
C      1  0.5281580000000  0.5087200000000  0.5098380000000 1.0
END
