TITL C-3578200-9634-166 -1.13581241894075e-06 125000 -474.901486660641 0 0 78 (C1) n - 1
REM
REM in /home/bkarasulu/work/CARBON/AIRSS/Generating-Clusters/EDIP-Nigel-Params/with-SteepDescent/Higher-Symm/SD-CG/HFTN-CG
REM
REM
REM
REM
REM
REM ./C.cell (12c818d87b63d06a65506943cc24bca4)
REM
REM compiler GCC version 9.2.1 20190827 (Red Hat 9.2.1-1)
REM options -cpp -mtune=generic -march=x86-64 -g -O0 -fpre-include=/usr/include/finclude/math-vector-fortran.h
REM seed -911782279 222833141 1070851640 -1606474785 1770549728 953358466 -1831476552 1720613530 1043507245 -460985110 -543410774 80802076 1017764599 -1948863655 -76258897 1197315000 43540306 -103073283 -613482134 178936792 -803642922 723330556 632798933 1874061249 1985829364 -1038461688 848549664 1982909778 1121809438 -1461245971 -2037036924 1840396066 -1133145180
REM
CELL 1.54180   50.00000   50.00000   50.00000   90.00000   90.00000   90.00000
LATT -1
SFAC C  
C      1  0.5529990000000  0.5592480000000  0.4725090000000 1.0
C      1  0.5640620000000  0.5126980000000  0.4549660000000 1.0
C      1  0.5572880000000  0.4686510000000  0.4746510000000 1.0
C      1  0.5594590000000  0.4331060000000  0.5067570000000 1.0
C      1  0.5614760000000  0.4606700000000  0.5467760000000 1.0
C      1  0.5637030000000  0.5104060000000  0.5405980000000 1.0
C      1  0.5565270000000  0.5565150000000  0.5209100000000 1.0
C      1  0.4437350000000  0.4408950000000  0.5218730000000 1.0
C      1  0.4475670000000  0.4794330000000  0.5611340000000 1.0
C      1  0.4467610000000  0.5341790000000  0.5543350000000 1.0
C      1  0.4463410000000  0.5624550000000  0.5041940000000 1.0
C      1  0.4433360000000  0.5436330000000  0.4531580000000 1.0
C      1  0.4434700000000  0.4905100000000  0.4416380000000 1.0
C      1  0.4419770000000  0.4474660000000  0.4703570000000 1.0
C      1  0.5270500000000  0.4279180000000  0.5412380000000 1.0
C      1  0.5300350000000  0.4889540000000  0.5720030000000 1.0
C      1  0.5433030000000  0.5472360000000  0.5665280000000 1.0
C      1  0.5204120000000  0.5848750000000  0.5013030000000 1.0
C      1  0.5286200000000  0.5372700000000  0.4371080000000 1.0
C      1  0.5415220000000  0.4772480000000  0.4283400000000 1.0
C      1  0.5366470000000  0.4225330000000  0.4655350000000 1.0
C      1  0.5089940000000  0.5614170000000  0.4726450000000 1.0
C      1  0.5101010000000  0.5140330000000  0.4375660000000 1.0
C      1  0.5130990000000  0.4583130000000  0.4451120000000 1.0
C      1  0.5089160000000  0.4300440000000  0.4917900000000 1.0
C      1  0.5088120000000  0.4520210000000  0.5455080000000 1.0
C      1  0.5137610000000  0.5113850000000  0.5613660000000 1.0
C      1  0.4980370000000  0.5525170000000  0.5317130000000 1.0
C      1  0.4325860000000  0.4692520000000  0.4559770000000 1.0
C      1  0.4332350000000  0.4433900000000  0.4963210000000 1.0
C      1  0.4395330000000  0.4615610000000  0.5406760000000 1.0
C      1  0.4403440000000  0.5067360000000  0.5577330000000 1.0
C      1  0.4398650000000  0.5471510000000  0.5289970000000 1.0
C      1  0.4361970000000  0.5543300000000  0.4786220000000 1.0
C      1  0.4354580000000  0.5168440000000  0.4480320000000 1.0
C      1  0.4747480000000  0.4704560000000  0.4886420000000 1.0
C      1  0.4640140000000  0.4837360000000  0.5134010000000 1.0
C      1  0.4803650000000  0.5040570000000  0.5279250000000 1.0
C      1  0.4754090000000  0.5342170000000  0.5210990000000 1.0
C      1  0.4791930000000  0.5353590000000  0.4922990000000 1.0
C      1  0.4636960000000  0.5153640000000  0.4803080000000 1.0
C      1  0.4779200000000  0.4939250000000  0.4691830000000 1.0
C      1  0.4944110000000  0.4728590000000  0.4234880000000 1.0
C      1  0.4905050000000  0.4221470000000  0.4680010000000 1.0
C      1  0.4838400000000  0.4359830000000  0.5457220000000 1.0
C      1  0.4845770000000  0.5034390000000  0.5580320000000 1.0
C      1  0.4955960000000  0.5537570000000  0.5618140000000 1.0
C      1  0.4835190000000  0.5756300000000  0.4751220000000 1.0
C      1  0.4855110000000  0.5293030000000  0.4294560000000 1.0
C      1  0.5447920000000  0.5690780000000  0.4975440000000 1.0
C      1  0.5500760000000  0.5367470000000  0.4559160000000 1.0
C      1  0.5571050000000  0.4857710000000  0.4514310000000 1.0
C      1  0.5504370000000  0.4415330000000  0.4819830000000 1.0
C      1  0.5541910000000  0.4366640000000  0.5339060000000 1.0
C      1  0.5546070000000  0.4865720000000  0.5552710000000 1.0
C      1  0.5587250000000  0.5394250000000  0.5443910000000 1.0
C      1  0.5192710000000  0.4742460000000  0.4711290000000 1.0
C      1  0.5038680000000  0.4600480000000  0.4935640000000 1.0
C      1  0.5129160000000  0.4691620000000  0.5197930000000 1.0
C      1  0.5259760000000  0.5123320000000  0.5335190000000 1.0
C      1  0.5220910000000  0.5385310000000  0.5189560000000 1.0
C      1  0.5088050000000  0.5332840000000  0.4879990000000 1.0
C      1  0.5071470000000  0.5036170000000  0.4672710000000 1.0
C      1  0.4687310000000  0.4270700000000  0.5239580000000 1.0
C      1  0.4760090000000  0.4780170000000  0.5690700000000 1.0
C      1  0.4697460000000  0.5439220000000  0.5674740000000 1.0
C      1  0.4720820000000  0.5784300000000  0.5007080000000 1.0
C      1  0.4707690000000  0.5488250000000  0.4443490000000 1.0
C      1  0.4705950000000  0.4875380000000  0.4318500000000 1.0
C      1  0.4689730000000  0.4409040000000  0.4642320000000 1.0
C      1  0.4964560000000  0.5792190000000  0.5181910000000 1.0
C      1  0.5083040000000  0.5581190000000  0.4424910000000 1.0
C      1  0.5177480000000  0.4918140000000  0.4181090000000 1.0
C      1  0.5134000000000  0.4278760000000  0.4486460000000 1.0
C      1  0.5046720000000  0.4163000000000  0.5194850000000 1.0
C      1  0.5122200000000  0.4659050000000  0.5717850000000 1.0
C      1  0.5177360000000  0.5384130000000  0.5736280000000 1.0
C      1  0.5073520000000  0.4970540000000  0.5181280000000 1.0
END
