TITL C-3578208-4450-711 -2.39403108880177e-07 125000 -738.159112680177 0 0 119 (C1) n - 1
REM
REM in /home/bkarasulu/work/CARBON/AIRSS/Generating-Clusters/EDIP-Nigel-Params/with-SteepDescent/Higher-Symm/SD-CG/HFTN-CG
REM
REM
REM
REM
REM
REM ./C.cell (12c818d87b63d06a65506943cc24bca4)
REM
REM compiler GCC version 9.2.1 20190827 (Red Hat 9.2.1-1)
REM options -cpp -mtune=generic -march=x86-64 -g -O0 -fpre-include=/usr/include/finclude/math-vector-fortran.h
REM seed -1083858800 2106171445 40510807 -1801549939 913514015 1954962526 1436966707 -811721696 1444034635 1969411295 -2049788386 -805690999 -452029093 -1287595129 -1397358421 -1555578590 -765401605 1027730696 -454686425 192999188 -1333271429 -1127439539 -1997833121 1366627426 933540039 -1764553166 1699827272 2031189120 1973777183 497135463 2080003842 1617553340 -594727382
REM
CELL 1.54180   50.00000   50.00000   50.00000   90.00000   90.00000   90.00000
LATT -1
SFAC C  
C      1  0.4748650000000  0.4672360000000  0.5683140000000 1.0
C      1  0.5280100000000  0.4644880000000  0.5753900000000 1.0
C      1  0.5277090000000  0.5177140000000  0.5300400000000 1.0
C      1  0.4793160000000  0.5123610000000  0.5465740000000 1.0
C      1  0.4337150000000  0.4594710000000  0.5060500000000 1.0
C      1  0.5785440000000  0.4417480000000  0.5032540000000 1.0
C      1  0.5706960000000  0.4447510000000  0.4388340000000 1.0
C      1  0.4305510000000  0.4386410000000  0.4435040000000 1.0
C      1  0.5295250000000  0.4407650000000  0.4170320000000 1.0
C      1  0.4719570000000  0.4407520000000  0.4194890000000 1.0
C      1  0.5312250000000  0.4387210000000  0.4653110000000 1.0
C      1  0.4725360000000  0.4379400000000  0.4675150000000 1.0
C      1  0.4456090000000  0.4662710000000  0.5551080000000 1.0
C      1  0.5537760000000  0.4690030000000  0.5603240000000 1.0
C      1  0.5797570000000  0.5379860000000  0.5431380000000 1.0
C      1  0.4226570000000  0.5350690000000  0.5413390000000 1.0
C      1  0.5587230000000  0.5007650000000  0.5232470000000 1.0
C      1  0.4459030000000  0.5040350000000  0.5195200000000 1.0
C      1  0.4708060000000  0.5899420000000  0.5176650000000 1.0
C      1  0.5272780000000  0.5815180000000  0.5135340000000 1.0
C      1  0.5297690000000  0.4906550000000  0.4176570000000 1.0
C      1  0.4740110000000  0.4896320000000  0.4214710000000 1.0
C      1  0.4852670000000  0.4398540000000  0.5708020000000 1.0
C      1  0.5134440000000  0.4418110000000  0.5658460000000 1.0
C      1  0.5659860000000  0.4951970000000  0.5707110000000 1.0
C      1  0.4310570000000  0.4907380000000  0.5671280000000 1.0
C      1  0.4408090000000  0.4994610000000  0.5917290000000 1.0
C      1  0.5559110000000  0.5038300000000  0.5952810000000 1.0
C      1  0.5553890000000  0.4330360000000  0.5462050000000 1.0
C      1  0.4431900000000  0.4345690000000  0.5467700000000 1.0
C      1  0.4323350000000  0.5102910000000  0.4841630000000 1.0
C      1  0.5965790000000  0.5138180000000  0.4853250000000 1.0
C      1  0.4903060000000  0.4831900000000  0.5447220000000 1.0
C      1  0.5205040000000  0.4869470000000  0.5392740000000 1.0
C      1  0.5582240000000  0.4274040000000  0.5178080000000 1.0
C      1  0.4401970000000  0.4316450000000  0.5165330000000 1.0
C      1  0.4075360000000  0.4730640000000  0.4987810000000 1.0
C      1  0.5923070000000  0.4674470000000  0.5035870000000 1.0
C      1  0.4731110000000  0.4883530000000  0.4547590000000 1.0
C      1  0.5281690000000  0.4899350000000  0.4499130000000 1.0
C      1  0.4686800000000  0.4211720000000  0.5069310000000 1.0
C      1  0.5302650000000  0.4197410000000  0.5065440000000 1.0
C      1  0.5961960000000  0.4626380000000  0.4755290000000 1.0
C      1  0.4009590000000  0.4627130000000  0.4733400000000 1.0
C      1  0.4874060000000  0.4640120000000  0.4636180000000 1.0
C      1  0.5157130000000  0.4643100000000  0.4603630000000 1.0
C      1  0.4804180000000  0.5304090000000  0.5947640000000 1.0
C      1  0.5166740000000  0.5321530000000  0.5966800000000 1.0
C      1  0.4692880000000  0.4211270000000  0.5547020000000 1.0
C      1  0.5291140000000  0.4213210000000  0.5535960000000 1.0
C      1  0.5307140000000  0.5401800000000  0.4590550000000 1.0
C      1  0.4667150000000  0.5380760000000  0.4600570000000 1.0
C      1  0.5966260000000  0.5308830000000  0.5201990000000 1.0
C      1  0.4063660000000  0.5223170000000  0.5211770000000 1.0
C      1  0.5605860000000  0.5012380000000  0.4218990000000 1.0
C      1  0.4439530000000  0.4941700000000  0.4226020000000 1.0
C      1  0.4393600000000  0.5217060000000  0.4211900000000 1.0
C      1  0.5604810000000  0.5292700000000  0.4211320000000 1.0
C      1  0.4409250000000  0.5360770000000  0.4753760000000 1.0
C      1  0.5716250000000  0.5138720000000  0.4712210000000 1.0
C      1  0.5276070000000  0.5936360000000  0.4695290000000 1.0
C      1  0.4727570000000  0.6077450000000  0.4703180000000 1.0
C      1  0.5148790000000  0.5136660000000  0.4044910000000 1.0
C      1  0.4862860000000  0.5126580000000  0.4063320000000 1.0
C      1  0.5454150000000  0.4334970000000  0.4388810000000 1.0
C      1  0.4575570000000  0.4321280000000  0.4419430000000 1.0
C      1  0.4584800000000  0.5401470000000  0.4307320000000 1.0
C      1  0.5396520000000  0.5463320000000  0.4300140000000 1.0
C      1  0.4693310000000  0.5597270000000  0.5545190000000 1.0
C      1  0.5315580000000  0.5606950000000  0.5553400000000 1.0
C      1  0.4434130000000  0.5575010000000  0.5386060000000 1.0
C      1  0.5575560000000  0.5583880000000  0.5392100000000 1.0
C      1  0.4674120000000  0.5042870000000  0.6002380000000 1.0
C      1  0.5286770000000  0.5060390000000  0.6021230000000 1.0
C      1  0.5565740000000  0.5380110000000  0.4736620000000 1.0
C      1  0.4260450000000  0.5587260000000  0.4808890000000 1.0
C      1  0.4497890000000  0.4750100000000  0.5247530000000 1.0
C      1  0.5556240000000  0.4705120000000  0.5272660000000 1.0
C      1  0.5171150000000  0.4123610000000  0.4747010000000 1.0
C      1  0.4882250000000  0.4134070000000  0.4749010000000 1.0
C      1  0.4179490000000  0.4622110000000  0.4509540000000 1.0
C      1  0.5773830000000  0.4665780000000  0.4545350000000 1.0
C      1  0.4842950000000  0.4124780000000  0.5306070000000 1.0
C      1  0.5145500000000  0.4097640000000  0.5303860000000 1.0
C      1  0.4804170000000  0.5401700000000  0.4129220000000 1.0
C      1  0.5188780000000  0.5421390000000  0.4110050000000 1.0
C      1  0.4858230000000  0.5363360000000  0.5650460000000 1.0
C      1  0.5167100000000  0.5383270000000  0.5671550000000 1.0
C      1  0.4819500000000  0.5861780000000  0.4542630000000 1.0
C      1  0.5097070000000  0.5893460000000  0.4491360000000 1.0
C      1  0.5145680000000  0.5148010000000  0.4587420000000 1.0
C      1  0.4855280000000  0.5139550000000  0.4674210000000 1.0
C      1  0.4720310000000  0.5189790000000  0.5179320000000 1.0
C      1  0.5152950000000  0.5304860000000  0.5034770000000 1.0
C      1  0.5166190000000  0.4472660000000  0.5005170000000 1.0
C      1  0.4860200000000  0.4476220000000  0.5034590000000 1.0
C      1  0.4402830000000  0.5128430000000  0.5492890000000 1.0
C      1  0.5615750000000  0.5153490000000  0.5489980000000 1.0
C      1  0.5158350000000  0.4639250000000  0.4094370000000 1.0
C      1  0.4858570000000  0.4636670000000  0.4112610000000 1.0
C      1  0.4856320000000  0.6024340000000  0.4952900000000 1.0
C      1  0.5155810000000  0.5993540000000  0.4947250000000 1.0
C      1  0.4779050000000  0.4710760000000  0.5199790000000 1.0
C      1  0.5282550000000  0.4698280000000  0.5150800000000 1.0
C      1  0.5548650000000  0.5722300000000  0.5133560000000 1.0
C      1  0.4431770000000  0.5798230000000  0.5193510000000 1.0
C      1  0.5144600000000  0.5770400000000  0.5384070000000 1.0
C      1  0.4855140000000  0.5784860000000  0.5396000000000 1.0
C      1  0.5131980000000  0.5588400000000  0.4780010000000 1.0
C      1  0.4831460000000  0.5610750000000  0.4694860000000 1.0
C      1  0.4354750000000  0.4846660000000  0.4484150000000 1.0
C      1  0.5625700000000  0.4924410000000  0.4514650000000 1.0
C      1  0.6010230000000  0.5031820000000  0.5116150000000 1.0
C      1  0.4077140000000  0.5045200000000  0.4982980000000 1.0
C      1  0.5643450000000  0.5587050000000  0.4908080000000 1.0
C      1  0.4259050000000  0.5796770000000  0.4975550000000 1.0
C      1  0.4847670000000  0.4824630000000  0.5917910000000 1.0
C      1  0.5133010000000  0.4862270000000  0.5877900000000 1.0
C      1  0.4916330000000  0.5151830000000  0.4970590000000 1.0
END
