TITL C-3577089-586-615 -2.86357593340915e-06 125000 -1235.27542400895 0 0 199 (C1) n - 1
REM
REM in /home/bkarasulu/work/CARBON/AIRSS/Generating-Clusters/EDIP-Nigel-Params/with-SteepDescent/Higher-Symm/SD-CG/HFTN-CG
REM
REM
REM
REM
REM
REM ./C.cell (12c818d87b63d06a65506943cc24bca4)
REM
REM compiler GCC version 9.2.1 20190827 (Red Hat 9.2.1-1)
REM options -cpp -mtune=generic -march=x86-64 -g -O0 -fpre-include=/usr/include/finclude/math-vector-fortran.h
REM seed -1696518933 804853260 -954155802 -529861991 1452567253 656154286 -104929838 1782679242 783186360 -117437751 240500444 821107847 375890822 3798292 -793760316 -2088209659 496486965 380111986 721064094 -1346733877 478576075 1848419072 -841676120 -1653307565 66907650 -129144458 -237241632 1014166294 -1433028665 369607520 149131257 -291468756 -363727040
REM
CELL 1.54180   50.00000   50.00000   50.00000   90.00000   90.00000   90.00000
LATT -1
SFAC C  
C      1  0.5967320000000  0.5657390000000  0.5486610000000 1.0
C      1  0.5980730000000  0.4319280000000  0.5315720000000 1.0
C      1  0.5958940000000  0.5159770000000  0.4318860000000 1.0
C      1  0.4042980000000  0.5632450000000  0.5487240000000 1.0
C      1  0.4034290000000  0.4305990000000  0.5383350000000 1.0
C      1  0.4110330000000  0.5086970000000  0.4271340000000 1.0
C      1  0.5924970000000  0.5675160000000  0.4573150000000 1.0
C      1  0.5966520000000  0.4342990000000  0.4667820000000 1.0
C      1  0.5986010000000  0.5095600000000  0.5815860000000 1.0
C      1  0.4084470000000  0.5588760000000  0.4520580000000 1.0
C      1  0.4010400000000  0.4326930000000  0.4745150000000 1.0
C      1  0.4054530000000  0.5120330000000  0.5792140000000 1.0
C      1  0.5305770000000  0.5712530000000  0.5505430000000 1.0
C      1  0.5229120000000  0.4202950000000  0.5262570000000 1.0
C      1  0.5266540000000  0.5182710000000  0.4147010000000 1.0
C      1  0.4800630000000  0.5644570000000  0.5526410000000 1.0
C      1  0.4722060000000  0.4006330000000  0.5276530000000 1.0
C      1  0.4781330000000  0.5226410000000  0.4041330000000 1.0
C      1  0.5249420000000  0.5758440000000  0.4297190000000 1.0
C      1  0.5257040000000  0.4073750000000  0.4721100000000 1.0
C      1  0.5305930000000  0.5085080000000  0.5891290000000 1.0
C      1  0.4784210000000  0.5747660000000  0.4274450000000 1.0
C      1  0.4713250000000  0.4181420000000  0.4751070000000 1.0
C      1  0.4758540000000  0.5066410000000  0.5778220000000 1.0
C      1  0.4485760000000  0.4769880000000  0.3807420000000 1.0
C      1  0.4465220000000  0.6040090000000  0.5172160000000 1.0
C      1  0.4456210000000  0.4011330000000  0.5805100000000 1.0
C      1  0.5598510000000  0.4722480000000  0.3917220000000 1.0
C      1  0.5562090000000  0.6139480000000  0.5197130000000 1.0
C      1  0.5535240000000  0.3981220000000  0.5760500000000 1.0
C      1  0.4468400000000  0.4673550000000  0.6148820000000 1.0
C      1  0.4468690000000  0.6091660000000  0.4633680000000 1.0
C      1  0.4424690000000  0.4183380000000  0.4199720000000 1.0
C      1  0.5575280000000  0.4647230000000  0.6136310000000 1.0
C      1  0.5532990000000  0.6211780000000  0.4611720000000 1.0
C      1  0.5524280000000  0.4057790000000  0.4231090000000 1.0
C      1  0.4308370000000  0.5626840000000  0.5131280000000 1.0
C      1  0.4412900000000  0.4523180000000  0.5585340000000 1.0
C      1  0.4455250000000  0.4752630000000  0.4356560000000 1.0
C      1  0.5627240000000  0.5685440000000  0.5156770000000 1.0
C      1  0.5595600000000  0.4498820000000  0.5564700000000 1.0
C      1  0.5661080000000  0.4820680000000  0.4426400000000 1.0
C      1  0.4367910000000  0.5733520000000  0.4869640000000 1.0
C      1  0.4359980000000  0.4598750000000  0.4590450000000 1.0
C      1  0.4337810000000  0.4808800000000  0.5608180000000 1.0
C      1  0.5536470000000  0.5782210000000  0.4880030000000 1.0
C      1  0.5589720000000  0.4541210000000  0.4470500000000 1.0
C      1  0.5677500000000  0.4776090000000  0.5637480000000 1.0
C      1  0.3909580000000  0.5098620000000  0.4497460000000 1.0
C      1  0.3831500000000  0.5446100000000  0.5406910000000 1.0
C      1  0.3860330000000  0.4516460000000  0.5328070000000 1.0
C      1  0.6089510000000  0.5193350000000  0.4583520000000 1.0
C      1  0.6168230000000  0.5457280000000  0.5419170000000 1.0
C      1  0.6164330000000  0.4528560000000  0.5288530000000 1.0
C      1  0.3839080000000  0.5118340000000  0.5598290000000 1.0
C      1  0.3896930000000  0.5386770000000  0.4636560000000 1.0
C      1  0.3815170000000  0.4504370000000  0.4832630000000 1.0
C      1  0.6191690000000  0.5121630000000  0.5609960000000 1.0
C      1  0.6090940000000  0.5472850000000  0.4697380000000 1.0
C      1  0.6107570000000  0.4570460000000  0.4748360000000 1.0
C      1  0.4779600000000  0.4381830000000  0.5229150000000 1.0
C      1  0.4834770000000  0.5174080000000  0.4416100000000 1.0
C      1  0.4914290000000  0.5397730000000  0.5381830000000 1.0
C      1  0.5038410000000  0.4531960000000  0.5315950000000 1.0
C      1  0.5096130000000  0.5027640000000  0.4457030000000 1.0
C      1  0.5189090000000  0.5438320000000  0.5272520000000 1.0
C      1  0.4829920000000  0.4400630000000  0.4929000000000 1.0
C      1  0.4910730000000  0.5107440000000  0.5524010000000 1.0
C      1  0.4826520000000  0.5470190000000  0.4530390000000 1.0
C      1  0.5126830000000  0.4368420000000  0.4925860000000 1.0
C      1  0.5183380000000  0.4995300000000  0.5543750000000 1.0
C      1  0.5102070000000  0.5536760000000  0.4568170000000 1.0
C      1  0.5519530000000  0.5496610000000  0.4769160000000 1.0
C      1  0.5599980000000  0.4814460000000  0.5333040000000 1.0
C      1  0.5527870000000  0.4668900000000  0.4823200000000 1.0
C      1  0.4411010000000  0.5301260000000  0.4849830000000 1.0
C      1  0.4347560000000  0.4973870000000  0.5334230000000 1.0
C      1  0.4471050000000  0.4759840000000  0.4847840000000 1.0
C      1  0.5631440000000  0.5385560000000  0.5057080000000 1.0
C      1  0.5600990000000  0.4952480000000  0.4685910000000 1.0
C      1  0.5655550000000  0.4631620000000  0.5099860000000 1.0
C      1  0.4409120000000  0.5312490000000  0.5171560000000 1.0
C      1  0.4504570000000  0.5038350000000  0.4752970000000 1.0
C      1  0.4392550000000  0.4743490000000  0.5143360000000 1.0
C      1  0.5129730000000  0.6378670000000  0.4769100000000 1.0
C      1  0.5172520000000  0.4384950000000  0.6187610000000 1.0
C      1  0.5149640000000  0.4195830000000  0.3970080000000 1.0
C      1  0.4830890000000  0.6337450000000  0.4775880000000 1.0
C      1  0.4861320000000  0.4396050000000  0.6189940000000 1.0
C      1  0.4842910000000  0.4227720000000  0.3957190000000 1.0
C      1  0.5140220000000  0.6348850000000  0.5086880000000 1.0
C      1  0.5187170000000  0.4469800000000  0.3824780000000 1.0
C      1  0.5158000000000  0.4108930000000  0.6035740000000 1.0
C      1  0.4836340000000  0.6304620000000  0.5086380000000 1.0
C      1  0.4877480000000  0.4492660000000  0.3792680000000 1.0
C      1  0.4852320000000  0.4119650000000  0.6042860000000 1.0
C      1  0.6122830000000  0.5270160000000  0.5200450000000 1.0
C      1  0.6167200000000  0.4784320000000  0.5178690000000 1.0
C      1  0.5923280000000  0.5039720000000  0.4794200000000 1.0
C      1  0.3853990000000  0.5253490000000  0.5176700000000 1.0
C      1  0.3819750000000  0.4766970000000  0.5213740000000 1.0
C      1  0.3964470000000  0.4975270000000  0.4780550000000 1.0
C      1  0.5925710000000  0.5293470000000  0.4980580000000 1.0
C      1  0.6089640000000  0.4804700000000  0.4898970000000 1.0
C      1  0.6126990000000  0.5022340000000  0.5339230000000 1.0
C      1  0.3977800000000  0.5252590000000  0.4906160000000 1.0
C      1  0.3817380000000  0.4765460000000  0.4926060000000 1.0
C      1  0.3907350000000  0.5016050000000  0.5331550000000 1.0
C      1  0.5133450000000  0.4081250000000  0.5518580000000 1.0
C      1  0.5174860000000  0.4933170000000  0.4031880000000 1.0
C      1  0.5168510000000  0.5946690000000  0.5396650000000 1.0
C      1  0.4845960000000  0.4066510000000  0.5530800000000 1.0
C      1  0.4891790000000  0.4960870000000  0.3977900000000 1.0
C      1  0.4879180000000  0.5912440000000  0.5403670000000 1.0
C      1  0.5120840000000  0.4135940000000  0.4471030000000 1.0
C      1  0.5164780000000  0.4836100000000  0.5955670000000 1.0
C      1  0.5154490000000  0.6017860000000  0.4397180000000 1.0
C      1  0.4830420000000  0.4174190000000  0.4470960000000 1.0
C      1  0.4872270000000  0.4855100000000  0.5959490000000 1.0
C      1  0.4865300000000  0.6000510000000  0.4395690000000 1.0
C      1  0.5512660000000  0.5334630000000  0.4144470000000 1.0
C      1  0.5488240000000  0.5625270000000  0.5711000000000 1.0
C      1  0.5499170000000  0.4121740000000  0.5169620000000 1.0
C      1  0.4522430000000  0.5349860000000  0.4112800000000 1.0
C      1  0.4547680000000  0.5608060000000  0.5668240000000 1.0
C      1  0.4451240000000  0.4011280000000  0.5169690000000 1.0
C      1  0.5496640000000  0.5298380000000  0.5907880000000 1.0
C      1  0.5509990000000  0.5639670000000  0.4252250000000 1.0
C      1  0.5518370000000  0.4072700000000  0.4862020000000 1.0
C      1  0.4546650000000  0.5257820000000  0.5833310000000 1.0
C      1  0.4524450000000  0.5625750000000  0.4251930000000 1.0
C      1  0.4446770000000  0.4078360000000  0.4844870000000 1.0
C      1  0.4372520000000  0.5219550000000  0.4343510000000 1.0
C      1  0.4299910000000  0.5498090000000  0.5555040000000 1.0
C      1  0.4285950000000  0.4278000000000  0.5207030000000 1.0
C      1  0.5695180000000  0.5258350000000  0.4373990000000 1.0
C      1  0.5745990000000  0.5523260000000  0.5622270000000 1.0
C      1  0.5732540000000  0.4348140000000  0.5138670000000 1.0
C      1  0.4298690000000  0.5242520000000  0.5682240000000 1.0
C      1  0.4368760000000  0.5485470000000  0.4510050000000 1.0
C      1  0.4254390000000  0.4307140000000  0.4906670000000 1.0
C      1  0.5753590000000  0.5275760000000  0.5767950000000 1.0
C      1  0.5674780000000  0.5528050000000  0.4508540000000 1.0
C      1  0.5737950000000  0.4284420000000  0.4836200000000 1.0
C      1  0.4128910000000  0.4429830000000  0.4500240000000 1.0
C      1  0.4136830000000  0.5811840000000  0.4702950000000 1.0
C      1  0.4146220000000  0.4848650000000  0.5828110000000 1.0
C      1  0.5834710000000  0.4362980000000  0.4409650000000 1.0
C      1  0.5800950000000  0.5888050000000  0.4743060000000 1.0
C      1  0.5893120000000  0.4814320000000  0.5835150000000 1.0
C      1  0.4168540000000  0.4344600000000  0.5638730000000 1.0
C      1  0.4105180000000  0.5800490000000  0.5258810000000 1.0
C      1  0.4205210000000  0.4818360000000  0.4186970000000 1.0
C      1  0.5837000000000  0.4311930000000  0.5571400000000 1.0
C      1  0.5864100000000  0.5819400000000  0.5259500000000 1.0
C      1  0.5893750000000  0.4878580000000  0.4258100000000 1.0
C      1  0.4752010000000  0.6018030000000  0.5143430000000 1.0
C      1  0.4701910000000  0.4155010000000  0.5781780000000 1.0
C      1  0.4731210000000  0.4711070000000  0.3942720000000 1.0
C      1  0.5280590000000  0.6089300000000  0.5151660000000 1.0
C      1  0.5296680000000  0.4141210000000  0.5766220000000 1.0
C      1  0.5332260000000  0.4665500000000  0.4014610000000 1.0
C      1  0.4751600000000  0.6068570000000  0.4665040000000 1.0
C      1  0.4690000000000  0.4290730000000  0.4217080000000 1.0
C      1  0.4711870000000  0.4600680000000  0.6017280000000 1.0
C      1  0.5264260000000  0.6133880000000  0.4656910000000 1.0
C      1  0.5285960000000  0.4215790000000  0.4238290000000 1.0
C      1  0.5323660000000  0.4581950000000  0.6012010000000 1.0
C      1  0.5843960000000  0.4809510000000  0.3990730000000 1.0
C      1  0.5810450000000  0.6092600000000  0.5296740000000 1.0
C      1  0.5774540000000  0.4058120000000  0.5667210000000 1.0
C      1  0.4240690000000  0.4790040000000  0.3912770000000 1.0
C      1  0.4220420000000  0.6055660000000  0.5297230000000 1.0
C      1  0.4209190000000  0.4108060000000  0.5778020000000 1.0
C      1  0.5831470000000  0.4718320000000  0.6091020000000 1.0
C      1  0.5789960000000  0.6143080000000  0.4632340000000 1.0
C      1  0.5778440000000  0.4118750000000  0.4287470000000 1.0
C      1  0.4229870000000  0.4775320000000  0.6083410000000 1.0
C      1  0.4205390000000  0.6053800000000  0.4577910000000 1.0
C      1  0.4183020000000  0.4243000000000  0.4299330000000 1.0
C      1  0.4561960000000  0.5028020000000  0.4469380000000 1.0
C      1  0.4718750000000  0.5314180000000  0.5163500000000 1.0
C      1  0.4482540000000  0.4493670000000  0.5289450000000 1.0
C      1  0.5307150000000  0.5101220000000  0.4643500000000 1.0
C      1  0.5383130000000  0.5240370000000  0.5186400000000 1.0
C      1  0.5134160000000  0.4759410000000  0.5137900000000 1.0
C      1  0.4720420000000  0.5018880000000  0.5253170000000 1.0
C      1  0.4691510000000  0.5556890000000  0.4799780000000 1.0
C      1  0.4754860000000  0.4686480000000  0.4863520000000 1.0
C      1  0.5332400000000  0.4959100000000  0.5293080000000 1.0
C      1  0.5266360000000  0.5373800000000  0.4725620000000 1.0
C      1  0.5242530000000  0.4637750000000  0.4885270000000 1.0
C      1  0.5237250000000  0.5923780000000  0.4887540000000 1.0
C      1  0.5379230000000  0.4426710000000  0.5758130000000 1.0
C      1  0.4854100000000  0.5853410000000  0.4880380000000 1.0
C      1  0.4643010000000  0.4449360000000  0.5763240000000 1.0
C      1  0.5361640000000  0.4501820000000  0.4275390000000 1.0
C      1  0.4666800000000  0.4596380000000  0.4211290000000 1.0
C      1  0.4885670000000  0.4878990000000  0.5044620000000 1.0
END
