TITL C-3577082-504-731 -2.65743961977099e-06 125000 -1124.43626861928 0 0 182 (C1) n - 1
REM
REM in /home/bkarasulu/work/CARBON/AIRSS/Generating-Clusters/EDIP-Nigel-Params/with-SteepDescent/Higher-Symm/SD-CG/HFTN-CG
REM
REM
REM
REM
REM
REM ./C.cell (12c818d87b63d06a65506943cc24bca4)
REM
REM compiler GCC version 9.2.1 20190827 (Red Hat 9.2.1-1)
REM options -cpp -mtune=generic -march=x86-64 -g -O0 -fpre-include=/usr/include/finclude/math-vector-fortran.h
REM seed 1618634649 467099687 -132510544 -807330946 -1019655873 -597603931 1519814004 -1139119500 -1622077824 -900839374 -1671888494 -1509655423 -2051732656 -1898741660 -1647474219 2038840567 1819701022 99788838 -560135140 -579206143 1145333931 1153113308 705094420 -812919560 1691551713 677826261 939178564 2126033558 584474946 2100109927 1971489470 -712124741 1798356569
REM
CELL 1.54180   50.00000   50.00000   50.00000   90.00000   90.00000   90.00000
LATT -1
SFAC C  
C      1  0.5333990000000  0.4649360000000  0.5531870000000 1.0
C      1  0.4988670000000  0.5321340000000  0.5668660000000 1.0
C      1  0.4573570000000  0.4715420000000  0.5492830000000 1.0
C      1  0.4318550000000  0.5356470000000  0.5164340000000 1.0
C      1  0.4360280000000  0.4671820000000  0.4735060000000 1.0
C      1  0.4561380000000  0.5323170000000  0.4495980000000 1.0
C      1  0.5078080000000  0.4655700000000  0.4368080000000 1.0
C      1  0.5401870000000  0.5326370000000  0.4504310000000 1.0
C      1  0.5691020000000  0.4703110000000  0.4792670000000 1.0
C      1  0.5577850000000  0.5298410000000  0.5261680000000 1.0
C      1  0.4644830000000  0.5843050000000  0.4443010000000 1.0
C      1  0.5129300000000  0.4178540000000  0.4319460000000 1.0
C      1  0.5436570000000  0.5800970000000  0.4590790000000 1.0
C      1  0.5648720000000  0.4126510000000  0.4883540000000 1.0
C      1  0.5621060000000  0.5829370000000  0.5357640000000 1.0
C      1  0.5256800000000  0.4189900000000  0.5544610000000 1.0
C      1  0.4908040000000  0.5853160000000  0.5601890000000 1.0
C      1  0.4560670000000  0.4166810000000  0.5421100000000 1.0
C      1  0.4187440000000  0.5886100000000  0.5030000000000 1.0
C      1  0.4435380000000  0.4112800000000  0.4686820000000 1.0
C      1  0.5205480000000  0.4229720000000  0.4617100000000 1.0
C      1  0.5347360000000  0.5676340000000  0.4863000000000 1.0
C      1  0.5337560000000  0.4280260000000  0.5046450000000 1.0
C      1  0.5316700000000  0.5749650000000  0.5289930000000 1.0
C      1  0.5023620000000  0.4306810000000  0.5346870000000 1.0
C      1  0.4865220000000  0.5714760000000  0.5243840000000 1.0
C      1  0.4639970000000  0.4273560000000  0.5147960000000 1.0
C      1  0.4465690000000  0.5822080000000  0.4964930000000 1.0
C      1  0.4773200000000  0.4289510000000  0.4710360000000 1.0
C      1  0.4950950000000  0.5737480000000  0.4653010000000 1.0
C      1  0.5931620000000  0.5460610000000  0.5215920000000 1.0
C      1  0.5695640000000  0.4453230000000  0.5744200000000 1.0
C      1  0.5105360000000  0.5601640000000  0.5982910000000 1.0
C      1  0.4519780000000  0.4424950000000  0.5848310000000 1.0
C      1  0.4036870000000  0.5587650000000  0.5399370000000 1.0
C      1  0.4030610000000  0.4383540000000  0.4792790000000 1.0
C      1  0.4283080000000  0.5567050000000  0.4260570000000 1.0
C      1  0.4892390000000  0.4471730000000  0.3973330000000 1.0
C      1  0.5485310000000  0.5544210000000  0.4128100000000 1.0
C      1  0.5922520000000  0.4392360000000  0.4567080000000 1.0
C      1  0.4570230000000  0.4589270000000  0.5183880000000 1.0
C      1  0.4475040000000  0.5503280000000  0.4945190000000 1.0
C      1  0.4667720000000  0.4577060000000  0.4649590000000 1.0
C      1  0.4919580000000  0.5455530000000  0.4533850000000 1.0
C      1  0.5233070000000  0.4531040000000  0.4600020000000 1.0
C      1  0.5380810000000  0.5380590000000  0.4804830000000 1.0
C      1  0.5469410000000  0.4566690000000  0.5073310000000 1.0
C      1  0.5315020000000  0.5435950000000  0.5331630000000 1.0
C      1  0.5058360000000  0.4601560000000  0.5414930000000 1.0
C      1  0.4769820000000  0.5467150000000  0.5428060000000 1.0
C      1  0.4550200000000  0.4803950000000  0.5873910000000 1.0
C      1  0.4042880000000  0.5278570000000  0.5437290000000 1.0
C      1  0.3963940000000  0.4748000000000  0.4844990000000 1.0
C      1  0.4237250000000  0.5194490000000  0.4327410000000 1.0
C      1  0.4884010000000  0.4731300000000  0.3870410000000 1.0
C      1  0.5503040000000  0.5276920000000  0.4014110000000 1.0
C      1  0.5917380000000  0.4776140000000  0.4548290000000 1.0
C      1  0.6091010000000  0.5205310000000  0.5144320000000 1.0
C      1  0.5808760000000  0.4722050000000  0.5804110000000 1.0
C      1  0.5176630000000  0.5233010000000  0.6004000000000 1.0
C      1  0.4395570000000  0.4968970000000  0.4762940000000 1.0
C      1  0.4632950000000  0.5045820000000  0.4581870000000 1.0
C      1  0.5189270000000  0.4935870000000  0.4350580000000 1.0
C      1  0.5440910000000  0.5026850000000  0.4502690000000 1.0
C      1  0.5498890000000  0.4949610000000  0.4816130000000 1.0
C      1  0.5576570000000  0.5035100000000  0.5396130000000 1.0
C      1  0.5344650000000  0.4949180000000  0.5591790000000 1.0
C      1  0.5035400000000  0.5031510000000  0.5553750000000 1.0
C      1  0.4537530000000  0.5011230000000  0.5376910000000 1.0
C      1  0.4351550000000  0.5056050000000  0.5110100000000 1.0
C      1  0.5603670000000  0.5582660000000  0.5917540000000 1.0
C      1  0.4970000000000  0.4415690000000  0.6042870000000 1.0
C      1  0.4365990000000  0.5612140000000  0.5794050000000 1.0
C      1  0.3987030000000  0.4417050000000  0.5300720000000 1.0
C      1  0.3928660000000  0.5558500000000  0.4635590000000 1.0
C      1  0.4409170000000  0.4374170000000  0.4126100000000 1.0
C      1  0.5008840000000  0.5512180000000  0.3997560000000 1.0
C      1  0.5656330000000  0.4432890000000  0.4133740000000 1.0
C      1  0.5966860000000  0.5583490000000  0.4730250000000 1.0
C      1  0.5993170000000  0.4378980000000  0.5334230000000 1.0
C      1  0.4319290000000  0.4621310000000  0.5032430000000 1.0
C      1  0.4366870000000  0.5422680000000  0.4685450000000 1.0
C      1  0.4752810000000  0.4654570000000  0.4365990000000 1.0
C      1  0.5139620000000  0.5369130000000  0.4336180000000 1.0
C      1  0.5521550000000  0.4582140000000  0.4569380000000 1.0
C      1  0.5627880000000  0.5290800000000  0.4952820000000 1.0
C      1  0.5556320000000  0.4597920000000  0.5345000000000 1.0
C      1  0.5264840000000  0.5407410000000  0.5614550000000 1.0
C      1  0.4850210000000  0.4640770000000  0.5608670000000 1.0
C      1  0.4453060000000  0.5441520000000  0.5445920000000 1.0
C      1  0.5878620000000  0.4307990000000  0.4844590000000 1.0
C      1  0.5808610000000  0.5610870000000  0.5456290000000 1.0
C      1  0.5378500000000  0.4427920000000  0.5734920000000 1.0
C      1  0.4861690000000  0.5701460000000  0.5850140000000 1.0
C      1  0.4382500000000  0.4339680000000  0.5605620000000 1.0
C      1  0.4018340000000  0.5671240000000  0.5109690000000 1.0
C      1  0.4217570000000  0.4280200000000  0.4590170000000 1.0
C      1  0.4561120000000  0.5659130000000  0.4217740000000 1.0
C      1  0.5140990000000  0.4445620000000  0.4150520000000 1.0
C      1  0.5608670000000  0.5632890000000  0.4391870000000 1.0
C      1  0.4837890000000  0.4980770000000  0.5885300000000 1.0
C      1  0.4318650000000  0.5059220000000  0.5601110000000 1.0
C      1  0.4051210000000  0.4963260000000  0.5120460000000 1.0
C      1  0.4151630000000  0.5047260000000  0.4598570000000 1.0
C      1  0.4609680000000  0.4933390000000  0.4287400000000 1.0
C      1  0.5202730000000  0.5036580000000  0.4073420000000 1.0
C      1  0.5702410000000  0.4982480000000  0.4341080000000 1.0
C      1  0.5983990000000  0.5035480000000  0.4904290000000 1.0
C      1  0.5843390000000  0.4973790000000  0.5519390000000 1.0
C      1  0.5415540000000  0.5003820000000  0.5887320000000 1.0
C      1  0.4950660000000  0.3888790000000  0.4743230000000 1.0
C      1  0.5126620000000  0.6132400000000  0.4744160000000 1.0
C      1  0.5230000000000  0.3856620000000  0.4852350000000 1.0
C      1  0.5294250000000  0.6092420000000  0.5004950000000 1.0
C      1  0.5210790000000  0.3871260000000  0.5159730000000 1.0
C      1  0.5099020000000  0.6131510000000  0.5231150000000 1.0
C      1  0.4915910000000  0.3896490000000  0.5225050000000 1.0
C      1  0.4811340000000  0.6144000000000  0.5120260000000 1.0
C      1  0.4759060000000  0.3882750000000  0.4973090000000 1.0
C      1  0.4822130000000  0.6144670000000  0.4819620000000 1.0
C      1  0.5267700000000  0.4800780000000  0.6060540000000 1.0
C      1  0.4648450000000  0.5233610000000  0.5937110000000 1.0
C      1  0.4113640000000  0.4809920000000  0.5578440000000 1.0
C      1  0.3887350000000  0.5187350000000  0.4959770000000 1.0
C      1  0.4171830000000  0.4726110000000  0.4376840000000 1.0
C      1  0.4727250000000  0.5133160000000  0.4082680000000 1.0
C      1  0.5421730000000  0.4830630000000  0.3950200000000 1.0
C      1  0.5898540000000  0.5202860000000  0.4430220000000 1.0
C      1  0.6033660000000  0.4776030000000  0.5060780000000 1.0
C      1  0.5866660000000  0.5189220000000  0.5752770000000 1.0
C      1  0.5680260000000  0.4403210000000  0.4410720000000 1.0
C      1  0.5804310000000  0.5550280000000  0.4955880000000 1.0
C      1  0.5738540000000  0.4398090000000  0.5451060000000 1.0
C      1  0.5341180000000  0.5599780000000  0.5815650000000 1.0
C      1  0.4805040000000  0.4443900000000  0.5820290000000 1.0
C      1  0.4284180000000  0.5698240000000  0.5533490000000 1.0
C      1  0.4134700000000  0.4402620000000  0.5062340000000 1.0
C      1  0.4190420000000  0.5585960000000  0.4535210000000 1.0
C      1  0.4677590000000  0.4436800000000  0.4176630000000 1.0
C      1  0.5223160000000  0.5659060000000  0.4103530000000 1.0
C      1  0.5216130000000  0.4525620000000  0.5972110000000 1.0
C      1  0.4630510000000  0.5512360000000  0.5845350000000 1.0
C      1  0.4175930000000  0.4530680000000  0.5483280000000 1.0
C      1  0.3978720000000  0.5462490000000  0.4902740000000 1.0
C      1  0.4273200000000  0.4455160000000  0.4359960000000 1.0
C      1  0.4761710000000  0.5433540000000  0.4123560000000 1.0
C      1  0.5414810000000  0.4540970000000  0.4034480000000 1.0
C      1  0.5820800000000  0.5467610000000  0.4522180000000 1.0
C      1  0.5954940000000  0.4489830000000  0.5075280000000 1.0
C      1  0.5745590000000  0.5457380000000  0.5706530000000 1.0
C      1  0.5573570000000  0.5914410000000  0.5054270000000 1.0
C      1  0.5390660000000  0.4080050000000  0.5294180000000 1.0
C      1  0.5148190000000  0.5947830000000  0.5466660000000 1.0
C      1  0.4800960000000  0.4017040000000  0.5470310000000 1.0
C      1  0.4642980000000  0.5907960000000  0.5192980000000 1.0
C      1  0.4508200000000  0.4050850000000  0.4960040000000 1.0
C      1  0.4592230000000  0.5967680000000  0.4710270000000 1.0
C      1  0.4874080000000  0.4071490000000  0.4484390000000 1.0
C      1  0.5174640000000  0.5916880000000  0.4532530000000 1.0
C      1  0.5435520000000  0.4029800000000  0.4706910000000 1.0
C      1  0.5033980000000  0.4974410000000  0.6115690000000 1.0
C      1  0.4405660000000  0.5072300000000  0.5888070000000 1.0
C      1  0.3940120000000  0.4980740000000  0.5401410000000 1.0
C      1  0.3875910000000  0.5016390000000  0.4719620000000 1.0
C      1  0.4317720000000  0.4921540000000  0.4215060000000 1.0
C      1  0.4939540000000  0.4998620000000  0.3932380000000 1.0
C      1  0.5641000000000  0.5018880000000  0.4044370000000 1.0
C      1  0.6053350000000  0.5037330000000  0.4622860000000 1.0
C      1  0.6078600000000  0.4952410000000  0.5324040000000 1.0
C      1  0.5719070000000  0.4980550000000  0.5931890000000 1.0
C      1  0.5273840000000  0.4800550000000  0.5003210000000 1.0
C      1  0.5117060000000  0.5257380000000  0.5187450000000 1.0
C      1  0.5021540000000  0.4833300000000  0.5222290000000 1.0
C      1  0.4819350000000  0.5245470000000  0.5243170000000 1.0
C      1  0.4767710000000  0.4784310000000  0.5074730000000 1.0
C      1  0.4741120000000  0.5375460000000  0.4984340000000 1.0
C      1  0.4846170000000  0.4734630000000  0.4810560000000 1.0
C      1  0.4898760000000  0.5257910000000  0.4766860000000 1.0
C      1  0.5110520000000  0.4647780000000  0.4826600000000 1.0
C      1  0.5159000000000  0.5217650000000  0.4904180000000 1.0
C      1  0.5044510000000  0.5693610000000  0.4949660000000 1.0
C      1  0.4986650000000  0.4258020000000  0.4985580000000 1.0
END
