TITL C-3577091-527-652 9.92820660266861e-07 125000 -1050.83722588139 0 0 167 (C1) n - 1
REM
REM in /home/bkarasulu/work/CARBON/AIRSS/Generating-Clusters/EDIP-Nigel-Params/with-SteepDescent/Higher-Symm/SD-CG/HFTN-CG
REM
REM
REM
REM
REM
REM ./C.cell (12c818d87b63d06a65506943cc24bca4)
REM
REM compiler GCC version 9.2.1 20190827 (Red Hat 9.2.1-1)
REM options -cpp -mtune=generic -march=x86-64 -g -O0 -fpre-include=/usr/include/finclude/math-vector-fortran.h
REM seed -2121017234 -393291674 -81073616 -801293600 275932771 -909046637 -181245204 -864468457 1337247719 2001840230 1988646172 -92150407 1204011961 255446098 1834797570 -1207176250 1016857339 -969546350 178887429 -657579029 600183066 1633581603 -184518121 -1679869207 -1473364192 -513173305 996892802 2046777475 1967606545 -1392359638 1535606260 1794878764 -2050324561
REM
CELL 1.54180   50.00000   50.00000   50.00000   90.00000   90.00000   90.00000
LATT -1
SFAC C  
C      1  0.5790550000000  0.4562240000000  0.5753770000000 1.0
C      1  0.4199080000000  0.5755930000000  0.5411180000000 1.0
C      1  0.5805920000000  0.5423190000000  0.4252390000000 1.0
C      1  0.4206010000000  0.4247230000000  0.4568620000000 1.0
C      1  0.5812380000000  0.4610900000000  0.4759230000000 1.0
C      1  0.4178640000000  0.4776870000000  0.5422080000000 1.0
C      1  0.5826920000000  0.5420310000000  0.5207740000000 1.0
C      1  0.4173710000000  0.5237440000000  0.4622540000000 1.0
C      1  0.5017570000000  0.4482100000000  0.4649650000000 1.0
C      1  0.4974890000000  0.4646630000000  0.5516890000000 1.0
C      1  0.5020990000000  0.5516430000000  0.5349580000000 1.0
C      1  0.4995580000000  0.5351520000000  0.4484000000000 1.0
C      1  0.5219720000000  0.4754500000000  0.4954800000000 1.0
C      1  0.4776180000000  0.4951600000000  0.5244070000000 1.0
C      1  0.5221210000000  0.5242200000000  0.5049090000000 1.0
C      1  0.4779390000000  0.5049140000000  0.4758870000000 1.0
C      1  0.4979230000000  0.5632880000000  0.5055910000000 1.0
C      1  0.5031780000000  0.5052690000000  0.4368440000000 1.0
C      1  0.4971370000000  0.4363690000000  0.4943930000000 1.0
C      1  0.5021190000000  0.4940650000000  0.5634920000000 1.0
C      1  0.5632640000000  0.5394400000000  0.4029640000000 1.0
C      1  0.4398970000000  0.4045940000000  0.4581550000000 1.0
C      1  0.5595950000000  0.4578640000000  0.5953630000000 1.0
C      1  0.4394270000000  0.5955810000000  0.5409760000000 1.0
C      1  0.5580660000000  0.4819880000000  0.4347290000000 1.0
C      1  0.4410800000000  0.4342320000000  0.5172630000000 1.0
C      1  0.5587410000000  0.5168820000000  0.5653960000000 1.0
C      1  0.4415910000000  0.5651010000000  0.4827150000000 1.0
C      1  0.5320650000000  0.5072940000000  0.5508840000000 1.0
C      1  0.4684960000000  0.5506980000000  0.4921240000000 1.0
C      1  0.5321160000000  0.4919100000000  0.4499760000000 1.0
C      1  0.4674560000000  0.4493110000000  0.5076060000000 1.0
C      1  0.4227230000000  0.4491560000000  0.4718460000000 1.0
C      1  0.5768750000000  0.4709520000000  0.5507810000000 1.0
C      1  0.4222800000000  0.5503570000000  0.5276150000000 1.0
C      1  0.5818860000000  0.5255320000000  0.4485170000000 1.0
C      1  0.5167030000000  0.4176150000000  0.5792230000000 1.0
C      1  0.4830990000000  0.5792160000000  0.5809600000000 1.0
C      1  0.5150180000000  0.5702430000000  0.4262760000000 1.0
C      1  0.4827500000000  0.4211880000000  0.4183600000000 1.0
C      1  0.5514370000000  0.4909060000000  0.4071700000000 1.0
C      1  0.4490150000000  0.4071340000000  0.5084160000000 1.0
C      1  0.5505660000000  0.5082550000000  0.5924600000000 1.0
C      1  0.4477800000000  0.5929500000000  0.4912380000000 1.0
C      1  0.4290530000000  0.5251550000000  0.4352550000000 1.0
C      1  0.5689740000000  0.4342210000000  0.4743520000000 1.0
C      1  0.4323380000000  0.4753730000000  0.5670510000000 1.0
C      1  0.5671720000000  0.5661670000000  0.5231220000000 1.0
C      1  0.5277770000000  0.5414170000000  0.4616840000000 1.0
C      1  0.4748900000000  0.4620400000000  0.4588370000000 1.0
C      1  0.5245590000000  0.4584830000000  0.5383200000000 1.0
C      1  0.4748860000000  0.5383660000000  0.5410900000000 1.0
C      1  0.3891560000000  0.5244910000000  0.4967160000000 1.0
C      1  0.6106570000000  0.4946000000000  0.4756240000000 1.0
C      1  0.3927560000000  0.4699810000000  0.5062040000000 1.0
C      1  0.6064850000000  0.5053900000000  0.5298410000000 1.0
C      1  0.5849090000000  0.4570020000000  0.5256140000000 1.0
C      1  0.4149810000000  0.5258830000000  0.5428410000000 1.0
C      1  0.5836440000000  0.5409070000000  0.4730650000000 1.0
C      1  0.4143410000000  0.4741970000000  0.4580670000000 1.0
C      1  0.4466510000000  0.4500420000000  0.5694250000000 1.0
C      1  0.5532410000000  0.5687690000000  0.5486600000000 1.0
C      1  0.4447530000000  0.5491820000000  0.4314550000000 1.0
C      1  0.5530770000000  0.4304250000000  0.4500700000000 1.0
C      1  0.4898000000000  0.4243860000000  0.5681670000000 1.0
C      1  0.5103160000000  0.5684890000000  0.5748630000000 1.0
C      1  0.4871360000000  0.5735180000000  0.4320390000000 1.0
C      1  0.5098520000000  0.4319140000000  0.4247640000000 1.0
C      1  0.5523300000000  0.5575120000000  0.4467490000000 1.0
C      1  0.4564730000000  0.4468920000000  0.4428530000000 1.0
C      1  0.5427200000000  0.4425890000000  0.5538140000000 1.0
C      1  0.4562320000000  0.5545390000000  0.5561160000000 1.0
C      1  0.4854310000000  0.5888860000000  0.4580190000000 1.0
C      1  0.5116980000000  0.4583200000000  0.4103330000000 1.0
C      1  0.4881800000000  0.4102030000000  0.5417050000000 1.0
C      1  0.5118310000000  0.5419570000000  0.5889480000000 1.0
C      1  0.4219150000000  0.5021290000000  0.5262960000000 1.0
C      1  0.5778360000000  0.5251220000000  0.4972440000000 1.0
C      1  0.4215230000000  0.4975840000000  0.4755560000000 1.0
C      1  0.5776100000000  0.4744850000000  0.5023120000000 1.0
C      1  0.5187770000000  0.4500370000000  0.5099130000000 1.0
C      1  0.4806070000000  0.5098370000000  0.5498300000000 1.0
C      1  0.5199650000000  0.5497380000000  0.4900600000000 1.0
C      1  0.4811260000000  0.4904220000000  0.4505840000000 1.0
C      1  0.4814950000000  0.6082810000000  0.5555590000000 1.0
C      1  0.5233610000000  0.5584030000000  0.4000640000000 1.0
C      1  0.4819010000000  0.3919200000000  0.4436680000000 1.0
C      1  0.5175100000000  0.4434840000000  0.6080120000000 1.0
C      1  0.4667940000000  0.3991090000000  0.5280480000000 1.0
C      1  0.5329160000000  0.5280630000000  0.6003550000000 1.0
C      1  0.4646830000000  0.6021030000000  0.4710240000000 1.0
C      1  0.5329360000000  0.4719750000000  0.3988820000000 1.0
C      1  0.5074530000000  0.5910800000000  0.5174650000000 1.0
C      1  0.4927300000000  0.5180990000000  0.4093400000000 1.0
C      1  0.5074280000000  0.4087720000000  0.4820990000000 1.0
C      1  0.4919690000000  0.4819330000000  0.5911270000000 1.0
C      1  0.5159380000000  0.4724170000000  0.6059330000000 1.0
C      1  0.4834020000000  0.6060780000000  0.5266650000000 1.0
C      1  0.5174160000000  0.5286310000000  0.3954070000000 1.0
C      1  0.4835630000000  0.3937830000000  0.4726100000000 1.0
C      1  0.5230950000000  0.3956480000000  0.5049400000000 1.0
C      1  0.4770550000000  0.5053640000000  0.6043370000000 1.0
C      1  0.5218230000000  0.6037230000000  0.4934330000000 1.0
C      1  0.4769110000000  0.4952770000000  0.3960930000000 1.0
C      1  0.5422140000000  0.5150130000000  0.4657670000000 1.0
C      1  0.4569250000000  0.4646470000000  0.4835190000000 1.0
C      1  0.5426250000000  0.4831240000000  0.5357800000000 1.0
C      1  0.4574770000000  0.5353960000000  0.5161300000000 1.0
C      1  0.4495620000000  0.5013300000000  0.6055720000000 1.0
C      1  0.5493940000000  0.6041300000000  0.4968130000000 1.0
C      1  0.4494060000000  0.4997610000000  0.3973870000000 1.0
C      1  0.5505630000000  0.3957490000000  0.5002570000000 1.0
C      1  0.5435110000000  0.4346200000000  0.6011370000000 1.0
C      1  0.4556010000000  0.6007070000000  0.5643600000000 1.0
C      1  0.5508430000000  0.5631520000000  0.3938800000000 1.0
C      1  0.4559100000000  0.3989440000000  0.4348630000000 1.0
C      1  0.5766840000000  0.5702500000000  0.4738010000000 1.0
C      1  0.4227500000000  0.4763510000000  0.4304180000000 1.0
C      1  0.5765080000000  0.4293330000000  0.5233990000000 1.0
C      1  0.4236820000000  0.5241160000000  0.5707690000000 1.0
C      1  0.6015130000000  0.5322280000000  0.5395760000000 1.0
C      1  0.3928350000000  0.5359860000000  0.4709090000000 1.0
C      1  0.6064690000000  0.4687680000000  0.4643440000000 1.0
C      1  0.3976210000000  0.4600270000000  0.5329380000000 1.0
C      1  0.4350150000000  0.5000250000000  0.5819150000000 1.0
C      1  0.5647680000000  0.5811150000000  0.4985250000000 1.0
C      1  0.4344770000000  0.5005590000000  0.4209000000000 1.0
C      1  0.5650060000000  0.4195130000000  0.4991140000000 1.0
C      1  0.4135190000000  0.4452220000000  0.5005830000000 1.0
C      1  0.5860680000000  0.4996990000000  0.5545230000000 1.0
C      1  0.4164450000000  0.5510070000000  0.4974180000000 1.0
C      1  0.5842420000000  0.4954760000000  0.4479310000000 1.0
C      1  0.5487910000000  0.4857960000000  0.5059060000000 1.0
C      1  0.4508970000000  0.5054550000000  0.5141120000000 1.0
C      1  0.5488890000000  0.5135660000000  0.4948980000000 1.0
C      1  0.4507690000000  0.4946400000000  0.4862040000000 1.0
C      1  0.4394630000000  0.5650590000000  0.4538180000000 1.0
C      1  0.5588230000000  0.4529780000000  0.4345200000000 1.0
C      1  0.4400520000000  0.4348040000000  0.5465310000000 1.0
C      1  0.5599140000000  0.5461530000000  0.5643240000000 1.0
C      1  0.4750950000000  0.4490960000000  0.5789740000000 1.0
C      1  0.5249350000000  0.5788920000000  0.5499600000000 1.0
C      1  0.4731420000000  0.5486230000000  0.4226870000000 1.0
C      1  0.5245160000000  0.4210410000000  0.4495240000000 1.0
C      1  0.5279070000000  0.5926460000000  0.4410290000000 1.0
C      1  0.4682640000000  0.4424620000000  0.4006320000000 1.0
C      1  0.5314800000000  0.4001770000000  0.5577530000000 1.0
C      1  0.4685330000000  0.5579740000000  0.5983750000000 1.0
C      1  0.5118670000000  0.5981330000000  0.4653110000000 1.0
C      1  0.4861690000000  0.4663760000000  0.3990260000000 1.0
C      1  0.5136700000000  0.3986750000000  0.5337730000000 1.0
C      1  0.4860650000000  0.5339160000000  0.5995200000000 1.0
C      1  0.5555390000000  0.5874270000000  0.4463350000000 1.0
C      1  0.4450530000000  0.4486380000000  0.4170830000000 1.0
C      1  0.5545330000000  0.4170120000000  0.5516520000000 1.0
C      1  0.4450280000000  0.5530520000000  0.5820490000000 1.0
C      1  0.4582820000000  0.4060070000000  0.4806160000000 1.0
C      1  0.5412590000000  0.4804200000000  0.5937310000000 1.0
C      1  0.4578910000000  0.5941700000000  0.5187300000000 1.0
C      1  0.5431460000000  0.5189470000000  0.4061200000000 1.0
C      1  0.5230460000000  0.4694710000000  0.4676630000000 1.0
C      1  0.4763560000000  0.4672330000000  0.5301250000000 1.0
C      1  0.5232310000000  0.5298820000000  0.5328670000000 1.0
C      1  0.4778880000000  0.5328140000000  0.4699220000000 1.0
C      1  0.4039750000000  0.4984730000000  0.5012940000000 1.0
C      1  0.5955300000000  0.4999770000000  0.5012810000000 1.0
C      1  0.4997610000000  0.4998760000000  0.5001320000000 1.0
END
