TITL C-3578208-4450-449 -7.52557283299713e-06 125000 -937.654938561418 0 0 151 (C1) n - 1
REM
REM in /home/bkarasulu/work/CARBON/AIRSS/Generating-Clusters/EDIP-Nigel-Params/with-SteepDescent/Higher-Symm/SD-CG/HFTN-CG
REM
REM
REM
REM
REM
REM ./C.cell (12c818d87b63d06a65506943cc24bca4)
REM
REM compiler GCC version 9.2.1 20190827 (Red Hat 9.2.1-1)
REM options -cpp -mtune=generic -march=x86-64 -g -O0 -fpre-include=/usr/include/finclude/math-vector-fortran.h
REM seed -293516752 -823639814 -1824947801 348256319 1741345242 878202848 -2129558891 -1000997557 1624146202 -2029498929 2043718365 -157201208 -1898122943 9140985 -1551294716 554391408 45835987 1395631323 1656047974 80209752 673304429 -1041436883 1448572261 54709389 654497806 -251558877 2012458632 419316037 2020778823 2085518844 -1815979933 -1406507620 1181937061
REM
CELL 1.54180   50.00000   50.00000   50.00000   90.00000   90.00000   90.00000
LATT -1
SFAC C  
C      1  0.5575650000000  0.5259670000000  0.5915950000000 1.0
C      1  0.5520430000000  0.5256440000000  0.4077810000000 1.0
C      1  0.4779470000000  0.5771580000000  0.4348900000000 1.0
C      1  0.4755830000000  0.5727190000000  0.5622060000000 1.0
C      1  0.5854280000000  0.5194110000000  0.5212590000000 1.0
C      1  0.5844440000000  0.5155570000000  0.4776190000000 1.0
C      1  0.5061080000000  0.4129800000000  0.5642350000000 1.0
C      1  0.4921050000000  0.4074620000000  0.4355610000000 1.0
C      1  0.5220500000000  0.4912250000000  0.3961080000000 1.0
C      1  0.5252090000000  0.4946100000000  0.6055850000000 1.0
C      1  0.4169070000000  0.5395810000000  0.5214110000000 1.0
C      1  0.4161840000000  0.5418580000000  0.4698310000000 1.0
C      1  0.4262900000000  0.4888840000000  0.4601920000000 1.0
C      1  0.4255860000000  0.4822060000000  0.5333470000000 1.0
C      1  0.5279710000000  0.5789370000000  0.4485540000000 1.0
C      1  0.5253140000000  0.5732500000000  0.5508120000000 1.0
C      1  0.4655780000000  0.4163640000000  0.4413150000000 1.0
C      1  0.4800440000000  0.4214850000000  0.5618920000000 1.0
C      1  0.4975120000000  0.5802710000000  0.5414670000000 1.0
C      1  0.4989400000000  0.5835710000000  0.4567210000000 1.0
C      1  0.5085880000000  0.4465220000000  0.4254520000000 1.0
C      1  0.5151420000000  0.4487030000000  0.5904140000000 1.0
C      1  0.5532260000000  0.4429240000000  0.4443500000000 1.0
C      1  0.5543740000000  0.4482410000000  0.5586710000000 1.0
C      1  0.4308700000000  0.5622010000000  0.4331120000000 1.0
C      1  0.4279060000000  0.5585430000000  0.5600700000000 1.0
C      1  0.5907980000000  0.4448800000000  0.4763780000000 1.0
C      1  0.5848430000000  0.4366490000000  0.5249990000000 1.0
C      1  0.4377250000000  0.5348820000000  0.4229580000000 1.0
C      1  0.4341930000000  0.5310570000000  0.5696800000000 1.0
C      1  0.5087890000000  0.3906130000000  0.4735690000000 1.0
C      1  0.5146870000000  0.3938990000000  0.5223650000000 1.0
C      1  0.4148500000000  0.5189000000000  0.4244270000000 1.0
C      1  0.4120050000000  0.5149480000000  0.5648560000000 1.0
C      1  0.5431770000000  0.5024570000000  0.5504680000000 1.0
C      1  0.5420790000000  0.5051050000000  0.4524940000000 1.0
C      1  0.4604260000000  0.5580520000000  0.4728590000000 1.0
C      1  0.4600550000000  0.5575190000000  0.5219520000000 1.0
C      1  0.5213780000000  0.4606440000000  0.5320890000000 1.0
C      1  0.5178640000000  0.4682620000000  0.4735120000000 1.0
C      1  0.5413620000000  0.4561590000000  0.5836700000000 1.0
C      1  0.5357000000000  0.4565090000000  0.4257410000000 1.0
C      1  0.4524830000000  0.4440250000000  0.5231940000000 1.0
C      1  0.4513680000000  0.4500680000000  0.4733740000000 1.0
C      1  0.5432270000000  0.4798710000000  0.4101690000000 1.0
C      1  0.5479950000000  0.4820560000000  0.5945790000000 1.0
C      1  0.5546150000000  0.5507780000000  0.5798350000000 1.0
C      1  0.5545710000000  0.5510010000000  0.4186800000000 1.0
C      1  0.5555620000000  0.5027020000000  0.4249660000000 1.0
C      1  0.5600710000000  0.5021280000000  0.5757380000000 1.0
C      1  0.4628810000000  0.4222410000000  0.4715650000000 1.0
C      1  0.4627360000000  0.4164310000000  0.5162890000000 1.0
C      1  0.4932370000000  0.5583750000000  0.4724720000000 1.0
C      1  0.4916540000000  0.5576550000000  0.5231130000000 1.0
C      1  0.4444750000000  0.4551250000000  0.5685690000000 1.0
C      1  0.4365550000000  0.4576410000000  0.4310710000000 1.0
C      1  0.5258930000000  0.5586830000000  0.5762350000000 1.0
C      1  0.5274930000000  0.5624760000000  0.4232680000000 1.0
C      1  0.5082380000000  0.5391570000000  0.4281110000000 1.0
C      1  0.5078430000000  0.5357650000000  0.5683940000000 1.0
C      1  0.4719940000000  0.4708080000000  0.4645190000000 1.0
C      1  0.4735700000000  0.4650610000000  0.5330330000000 1.0
C      1  0.5134730000000  0.5384480000000  0.4581770000000 1.0
C      1  0.5082450000000  0.5338890000000  0.5370700000000 1.0
C      1  0.5670910000000  0.5501550000000  0.5530590000000 1.0
C      1  0.5666320000000  0.5476150000000  0.4453890000000 1.0
C      1  0.4995950000000  0.5034350000000  0.5976280000000 1.0
C      1  0.4981000000000  0.5020950000000  0.4055070000000 1.0
C      1  0.4059290000000  0.5569960000000  0.5424670000000 1.0
C      1  0.4078850000000  0.5611570000000  0.4492650000000 1.0
C      1  0.5048730000000  0.5043100000000  0.5277300000000 1.0
C      1  0.5060280000000  0.5099180000000  0.4836030000000 1.0
C      1  0.4975840000000  0.4511310000000  0.4620960000000 1.0
C      1  0.4958440000000  0.4439150000000  0.5348770000000 1.0
C      1  0.4537470000000  0.4800380000000  0.5535990000000 1.0
C      1  0.4514100000000  0.4822910000000  0.4426120000000 1.0
C      1  0.3989430000000  0.5156200000000  0.5182140000000 1.0
C      1  0.3962190000000  0.5191920000000  0.4693260000000 1.0
C      1  0.5817790000000  0.4528540000000  0.5493610000000 1.0
C      1  0.5791050000000  0.4536360000000  0.4529280000000 1.0
C      1  0.4611050000000  0.5249100000000  0.4392210000000 1.0
C      1  0.4594370000000  0.5220970000000  0.5562970000000 1.0
C      1  0.5444800000000  0.5567630000000  0.5321200000000 1.0
C      1  0.5421820000000  0.5542460000000  0.4655380000000 1.0
C      1  0.5580750000000  0.5038970000000  0.5248350000000 1.0
C      1  0.5584010000000  0.5012830000000  0.4763350000000 1.0
C      1  0.5899880000000  0.5290730000000  0.5491850000000 1.0
C      1  0.5887130000000  0.5246600000000  0.4489390000000 1.0
C      1  0.5151440000000  0.4943840000000  0.4589440000000 1.0
C      1  0.5172840000000  0.4876340000000  0.5482490000000 1.0
C      1  0.4874480000000  0.4966350000000  0.5675250000000 1.0
C      1  0.4884210000000  0.5003400000000  0.4358820000000 1.0
C      1  0.5848590000000  0.5007600000000  0.4302300000000 1.0
C      1  0.5883650000000  0.5020480000000  0.5635020000000 1.0
C      1  0.4923500000000  0.4244330000000  0.4802000000000 1.0
C      1  0.4914730000000  0.4223890000000  0.5118560000000 1.0
C      1  0.4498590000000  0.5296110000000  0.5253640000000 1.0
C      1  0.4481090000000  0.5307240000000  0.4683700000000 1.0
C      1  0.5373520000000  0.4237170000000  0.4601290000000 1.0
C      1  0.5436440000000  0.4296250000000  0.5382230000000 1.0
C      1  0.4888320000000  0.4583230000000  0.5896940000000 1.0
C      1  0.4828750000000  0.4587930000000  0.4216090000000 1.0
C      1  0.4791390000000  0.5433270000000  0.5690780000000 1.0
C      1  0.4800610000000  0.5477220000000  0.4276350000000 1.0
C      1  0.5165370000000  0.4041410000000  0.4497810000000 1.0
C      1  0.5253590000000  0.4071880000000  0.5451160000000 1.0
C      1  0.4940580000000  0.6052370000000  0.5237690000000 1.0
C      1  0.4932190000000  0.6072020000000  0.4753780000000 1.0
C      1  0.5911290000000  0.4800530000000  0.5421960000000 1.0
C      1  0.5909630000000  0.4753680000000  0.4402280000000 1.0
C      1  0.4102770000000  0.4546900000000  0.5319800000000 1.0
C      1  0.4049210000000  0.4638950000000  0.4809110000000 1.0
C      1  0.4811390000000  0.4820920000000  0.6030540000000 1.0
C      1  0.4793010000000  0.4804600000000  0.4035050000000 1.0
C      1  0.4600330000000  0.4408240000000  0.4242450000000 1.0
C      1  0.4686310000000  0.4413110000000  0.5788540000000 1.0
C      1  0.4523770000000  0.5753530000000  0.4489920000000 1.0
C      1  0.4505620000000  0.5728820000000  0.5466790000000 1.0
C      1  0.4045930000000  0.5005360000000  0.5423500000000 1.0
C      1  0.4051070000000  0.5038980000000  0.4458050000000 1.0
C      1  0.4248700000000  0.4499120000000  0.4584190000000 1.0
C      1  0.4318490000000  0.4400610000000  0.5458980000000 1.0
C      1  0.4844140000000  0.4874070000000  0.5159220000000 1.0
C      1  0.4783500000000  0.4953940000000  0.4890980000000 1.0
C      1  0.4466930000000  0.5676390000000  0.4973310000000 1.0
C      1  0.4759620000000  0.6041480000000  0.4998210000000 1.0
C      1  0.5995440000000  0.4785080000000  0.5128990000000 1.0
C      1  0.4330920000000  0.4884010000000  0.5031300000000 1.0
C      1  0.3978960000000  0.5003660000000  0.4920570000000 1.0
C      1  0.5082290000000  0.5605750000000  0.4981570000000 1.0
C      1  0.5976000000000  0.5412830000000  0.5030390000000 1.0
C      1  0.5780920000000  0.5572790000000  0.4904480000000 1.0
C      1  0.4533810000000  0.5119510000000  0.4954570000000 1.0
C      1  0.4450150000000  0.4603590000000  0.4992890000000 1.0
C      1  0.5283920000000  0.5830140000000  0.4964390000000 1.0
C      1  0.5512250000000  0.4400500000000  0.5076980000000 1.0
C      1  0.4460990000000  0.4082610000000  0.4932790000000 1.0
C      1  0.5444450000000  0.4955050000000  0.5008780000000 1.0
C      1  0.5502910000000  0.5809250000000  0.5150430000000 1.0
C      1  0.5542300000000  0.5388330000000  0.4987530000000 1.0
C      1  0.5438770000000  0.4184100000000  0.4881410000000 1.0
C      1  0.4192610000000  0.5560780000000  0.4963870000000 1.0
C      1  0.5313610000000  0.4681150000000  0.5013970000000 1.0
C      1  0.6049210000000  0.4993080000000  0.4936810000000 1.0
C      1  0.5140290000000  0.6086280000000  0.4988350000000 1.0
C      1  0.4046530000000  0.4431300000000  0.5040640000000 1.0
C      1  0.5934390000000  0.4521500000000  0.5030090000000 1.0
C      1  0.5247060000000  0.3981280000000  0.4958790000000 1.0
C      1  0.5755390000000  0.5824500000000  0.5026560000000 1.0
C      1  0.5228800000000  0.5340650000000  0.5007710000000 1.0
C      1  0.4203510000000  0.4196650000000  0.4979840000000 1.0
END
