TITL C-3577085-527-54 -1.84789089977541e-06 125000 -490.258329223748 0 0 79 (C1) n - 1
REM
REM in /home/bkarasulu/work/CARBON/AIRSS/Generating-Clusters/EDIP-Nigel-Params/with-SteepDescent/Higher-Symm/SD-CG/HFTN-CG
REM
REM
REM
REM
REM
REM ./C.cell (12c818d87b63d06a65506943cc24bca4)
REM
REM compiler GCC version 9.2.1 20190827 (Red Hat 9.2.1-1)
REM options -cpp -mtune=generic -march=x86-64 -g -O0 -fpre-include=/usr/include/finclude/math-vector-fortran.h
REM seed -1522254376 1941329921 -299633238 208802001 -490618250 616234695 1826892094 -1358561787 -1317526238 -1642806924 -987878993 1965925606 262171649 1951014211 1507305549 1369981026 -461887358 -1133950375 -1487645566 2087221788 1236069678 1261979481 -271387330 2029442163 -1195701249 -1743512490 1448916666 584278166 53465331 -641432295 -346653379 -2116241334 1965607568
REM
CELL 1.54180   50.00000   50.00000   50.00000   90.00000   90.00000   90.00000
LATT -1
SFAC C  
C      1  0.4659440000000  0.5131790000000  0.5585740000000 1.0
C      1  0.4504440000000  0.4444820000000  0.5480230000000 1.0
C      1  0.4455470000000  0.4264560000000  0.4785420000000 1.0
C      1  0.4521440000000  0.4794240000000  0.4300410000000 1.0
C      1  0.4403370000000  0.5473540000000  0.4444730000000 1.0
C      1  0.4482980000000  0.5677170000000  0.5159900000000 1.0
C      1  0.5657960000000  0.5299330000000  0.5695880000000 1.0
C      1  0.5510730000000  0.4577290000000  0.5602400000000 1.0
C      1  0.5297090000000  0.4389660000000  0.4937700000000 1.0
C      1  0.5522830000000  0.4748140000000  0.4331650000000 1.0
C      1  0.5583480000000  0.5492810000000  0.4471150000000 1.0
C      1  0.5632920000000  0.5744540000000  0.5104210000000 1.0
C      1  0.4593850000000  0.4668580000000  0.5615650000000 1.0
C      1  0.4470450000000  0.4219700000000  0.5058300000000 1.0
C      1  0.4522530000000  0.4537340000000  0.4397730000000 1.0
C      1  0.4566210000000  0.5273460000000  0.4333990000000 1.0
C      1  0.4454430000000  0.5717870000000  0.4874590000000 1.0
C      1  0.4684450000000  0.5387220000000  0.5493580000000 1.0
C      1  0.5543450000000  0.4827900000000  0.5744960000000 1.0
C      1  0.5283350000000  0.4384360000000  0.5212940000000 1.0
C      1  0.5418320000000  0.4528120000000  0.4483930000000 1.0
C      1  0.5552600000000  0.5250810000000  0.4309640000000 1.0
C      1  0.5451190000000  0.5697080000000  0.4898450000000 1.0
C      1  0.5636350000000  0.5552750000000  0.5557630000000 1.0
C      1  0.5690180000000  0.5019080000000  0.5309200000000 1.0
C      1  0.5565340000000  0.4794870000000  0.5176100000000 1.0
C      1  0.5609030000000  0.4746770000000  0.4891080000000 1.0
C      1  0.5683920000000  0.4986630000000  0.4728770000000 1.0
C      1  0.5656940000000  0.5241850000000  0.4871580000000 1.0
C      1  0.5714630000000  0.5265230000000  0.5153510000000 1.0
C      1  0.4395630000000  0.4941520000000  0.5249550000000 1.0
C      1  0.4304240000000  0.4699790000000  0.5107320000000 1.0
C      1  0.4272200000000  0.4722140000000  0.4804830000000 1.0
C      1  0.4278610000000  0.4999850000000  0.4673700000000 1.0
C      1  0.4291010000000  0.5238660000000  0.4857050000000 1.0
C      1  0.4417590000000  0.5195630000000  0.5116160000000 1.0
C      1  0.5105820000000  0.4204550000000  0.5324720000000 1.0
C      1  0.5212730000000  0.4519780000000  0.4284000000000 1.0
C      1  0.5300220000000  0.5384360000000  0.4232190000000 1.0
C      1  0.5193160000000  0.5786270000000  0.4934550000000 1.0
C      1  0.5374300000000  0.5563970000000  0.5688390000000 1.0
C      1  0.5295890000000  0.4746830000000  0.5877390000000 1.0
C      1  0.4657300000000  0.4036340000000  0.5149590000000 1.0
C      1  0.4726080000000  0.4375430000000  0.4305020000000 1.0
C      1  0.4834230000000  0.5352860000000  0.4331470000000 1.0
C      1  0.4708250000000  0.5859160000000  0.4901300000000 1.0
C      1  0.4921060000000  0.5498280000000  0.5570930000000 1.0
C      1  0.4818910000000  0.4643800000000  0.5775690000000 1.0
C      1  0.5538410000000  0.5071550000000  0.5556670000000 1.0
C      1  0.5373020000000  0.4636250000000  0.5349550000000 1.0
C      1  0.5366580000000  0.4610970000000  0.4772110000000 1.0
C      1  0.5504780000000  0.5001580000000  0.4482530000000 1.0
C      1  0.5475110000000  0.5443740000000  0.4740140000000 1.0
C      1  0.5627260000000  0.5518640000000  0.5267230000000 1.0
C      1  0.4626900000000  0.4897190000000  0.5431680000000 1.0
C      1  0.4508760000000  0.4481500000000  0.5192780000000 1.0
C      1  0.4493240000000  0.4536570000000  0.4693200000000 1.0
C      1  0.4522680000000  0.5014150000000  0.4483370000000 1.0
C      1  0.4469930000000  0.5448710000000  0.4729500000000 1.0
C      1  0.4609570000000  0.5415430000000  0.5209370000000 1.0
C      1  0.5246090000000  0.5143880000000  0.5433160000000 1.0
C      1  0.5133240000000  0.4831190000000  0.5437990000000 1.0
C      1  0.5149110000000  0.4827940000000  0.4782760000000 1.0
C      1  0.5230380000000  0.5034440000000  0.4599720000000 1.0
C      1  0.5183930000000  0.5311120000000  0.4706660000000 1.0
C      1  0.5110410000000  0.5240360000000  0.5081660000000 1.0
C      1  0.4882990000000  0.4819920000000  0.5251680000000 1.0
C      1  0.4779880000000  0.4585400000000  0.5095720000000 1.0
C      1  0.4742030000000  0.4664830000000  0.4810090000000 1.0
C      1  0.4751070000000  0.4995900000000  0.4704250000000 1.0
C      1  0.4755250000000  0.5320590000000  0.4760020000000 1.0
C      1  0.4866670000000  0.5420290000000  0.5020680000000 1.0
C      1  0.4894030000000  0.4049990000000  0.5273410000000 1.0
C      1  0.5089640000000  0.5417720000000  0.4428170000000 1.0
C      1  0.5063210000000  0.4761280000000  0.5716050000000 1.0
C      1  0.4934530000000  0.5706650000000  0.4983540000000 1.0
C      1  0.4991570000000  0.4360200000000  0.4291350000000 1.0
C      1  0.5167190000000  0.5380990000000  0.5607580000000 1.0
C      1  0.4990280000000  0.4975600000000  0.5008490000000 1.0
END
