TITL C-3578196-9646-329 4.33753575298886e-06 125000 -726.626659754762 0 0 118 (C1) n - 1
REM
REM in /home/bkarasulu/work/CARBON/AIRSS/Generating-Clusters/EDIP-Nigel-Params/with-SteepDescent/Higher-Symm/SD-CG/HFTN-CG
REM
REM
REM
REM
REM
REM ./C.cell (12c818d87b63d06a65506943cc24bca4)
REM
REM compiler GCC version 9.2.1 20190827 (Red Hat 9.2.1-1)
REM options -cpp -mtune=generic -march=x86-64 -g -O0 -fpre-include=/usr/include/finclude/math-vector-fortran.h
REM seed 1329223473 -330191349 1081124936 -1461732875 606562385 1779043501 1795146901 359085529 1415859802 -684560523 1124440561 -808723022 1218430970 -2017245276 1044742579 -1959586889 1137328159 1954725709 720334721 -1688376791 -442261470 1298451526 -1749568117 -943036076 -1353303035 1498950491 -898083450 -79510309 -2037756132 -1992146970 -799152185 -1289461796 1518576194
REM
CELL 1.54180   50.00000   50.00000   50.00000   90.00000   90.00000   90.00000
LATT -1
SFAC C  
C      1  0.5005550000000  0.4793640000000  0.4540920000000 1.0
C      1  0.4367190000000  0.5094020000000  0.5522500000000 1.0
C      1  0.4103940000000  0.4613520000000  0.5294560000000 1.0
C      1  0.5500530000000  0.5358760000000  0.5508290000000 1.0
C      1  0.5180530000000  0.4068050000000  0.4662760000000 1.0
C      1  0.5014170000000  0.5019800000000  0.5904720000000 1.0
C      1  0.4746100000000  0.4902740000000  0.5842760000000 1.0
C      1  0.5356890000000  0.5182320000000  0.4194090000000 1.0
C      1  0.4937620000000  0.5434710000000  0.4164980000000 1.0
C      1  0.4941850000000  0.3947650000000  0.4772570000000 1.0
C      1  0.4745390000000  0.5793920000000  0.5572590000000 1.0
C      1  0.4511340000000  0.4886150000000  0.4926360000000 1.0
C      1  0.4978910000000  0.5323210000000  0.5902620000000 1.0
C      1  0.5167530000000  0.5325300000000  0.4894280000000 1.0
C      1  0.5066120000000  0.4096150000000  0.5388890000000 1.0
C      1  0.4282870000000  0.4500300000000  0.5483540000000 1.0
C      1  0.5307680000000  0.4691960000000  0.5212010000000 1.0
C      1  0.4695430000000  0.4014840000000  0.4658020000000 1.0
C      1  0.5440640000000  0.5336390000000  0.4450630000000 1.0
C      1  0.5006120000000  0.4698340000000  0.4167850000000 1.0
C      1  0.5726390000000  0.4929620000000  0.5188890000000 1.0
C      1  0.4363720000000  0.5711240000000  0.4866900000000 1.0
C      1  0.4416850000000  0.4630360000000  0.5717970000000 1.0
C      1  0.5015630000000  0.5117260000000  0.5046060000000 1.0
C      1  0.5466710000000  0.4904470000000  0.4187870000000 1.0
C      1  0.4155470000000  0.5048880000000  0.5133600000000 1.0
C      1  0.5310400000000  0.5611480000000  0.4450290000000 1.0
C      1  0.4425430000000  0.5553060000000  0.5356300000000 1.0
C      1  0.4741790000000  0.6015070000000  0.4753950000000 1.0
C      1  0.4216120000000  0.5048380000000  0.4555460000000 1.0
C      1  0.4398020000000  0.5514910000000  0.4648220000000 1.0
C      1  0.5703310000000  0.4841600000000  0.4346400000000 1.0
C      1  0.4861530000000  0.4568040000000  0.5501120000000 1.0
C      1  0.4888760000000  0.4317190000000  0.4347430000000 1.0
C      1  0.4547440000000  0.4704080000000  0.4426990000000 1.0
C      1  0.5011750000000  0.5943320000000  0.4706070000000 1.0
C      1  0.5071820000000  0.4117700000000  0.5084160000000 1.0
C      1  0.5051930000000  0.5173980000000  0.4219040000000 1.0
C      1  0.4616230000000  0.5844260000000  0.4939330000000 1.0
C      1  0.5760670000000  0.5453420000000  0.5052590000000 1.0
C      1  0.5366210000000  0.4468020000000  0.4406940000000 1.0
C      1  0.4806710000000  0.5631300000000  0.5029930000000 1.0
C      1  0.5628730000000  0.4203320000000  0.4840940000000 1.0
C      1  0.5398890000000  0.4041700000000  0.4863510000000 1.0
C      1  0.5457180000000  0.4207150000000  0.5214530000000 1.0
C      1  0.5429010000000  0.4926010000000  0.4787010000000 1.0
C      1  0.4522470000000  0.4221580000000  0.4576960000000 1.0
C      1  0.4844930000000  0.5083300000000  0.5508550000000 1.0
C      1  0.4783860000000  0.4413040000000  0.4756970000000 1.0
C      1  0.4788690000000  0.5229890000000  0.4652440000000 1.0
C      1  0.4364860000000  0.4913260000000  0.5754000000000 1.0
C      1  0.4933590000000  0.4385710000000  0.5026250000000 1.0
C      1  0.4431000000000  0.4373870000000  0.5159050000000 1.0
C      1  0.5442890000000  0.5815240000000  0.4925580000000 1.0
C      1  0.4582860000000  0.4610910000000  0.5059440000000 1.0
C      1  0.4757930000000  0.5329080000000  0.5684400000000 1.0
C      1  0.4641410000000  0.4207330000000  0.5245890000000 1.0
C      1  0.5282520000000  0.4676400000000  0.4219040000000 1.0
C      1  0.5737270000000  0.5562420000000  0.4557450000000 1.0
C      1  0.5249260000000  0.5375080000000  0.5360150000000 1.0
C      1  0.4242450000000  0.5552150000000  0.5097860000000 1.0
C      1  0.5210850000000  0.4920750000000  0.5701710000000 1.0
C      1  0.4557210000000  0.5499400000000  0.4399440000000 1.0
C      1  0.4685400000000  0.5426090000000  0.5239320000000 1.0
C      1  0.5216860000000  0.4707870000000  0.4742480000000 1.0
C      1  0.4105010000000  0.5096990000000  0.5401930000000 1.0
C      1  0.4498830000000  0.5825300000000  0.5439210000000 1.0
C      1  0.4702440000000  0.4733200000000  0.5292400000000 1.0
C      1  0.5852660000000  0.4902750000000  0.4915770000000 1.0
C      1  0.5035080000000  0.5785320000000  0.5168050000000 1.0
C      1  0.5585480000000  0.4659780000000  0.4552340000000 1.0
C      1  0.4283770000000  0.4777860000000  0.4565240000000 1.0
C      1  0.4737240000000  0.4710800000000  0.4662850000000 1.0
C      1  0.5640720000000  0.5712820000000  0.5101010000000 1.0
C      1  0.5213050000000  0.5482460000000  0.5824460000000 1.0
C      1  0.4935760000000  0.5483750000000  0.4778710000000 1.0
C      1  0.5170470000000  0.4666070000000  0.5518410000000 1.0
C      1  0.5029040000000  0.5094350000000  0.4517340000000 1.0
C      1  0.4622470000000  0.4945020000000  0.4233260000000 1.0
C      1  0.5508570000000  0.5628510000000  0.5615050000000 1.0
C      1  0.5130720000000  0.4308900000000  0.4503730000000 1.0
C      1  0.4214400000000  0.4658730000000  0.4817560000000 1.0
C      1  0.5347950000000  0.4444010000000  0.5639070000000 1.0
C      1  0.5031040000000  0.5868660000000  0.5474500000000 1.0
C      1  0.4859160000000  0.5520780000000  0.5479710000000 1.0
C      1  0.5738320000000  0.4611830000000  0.5388260000000 1.0
C      1  0.4437100000000  0.5367020000000  0.5613640000000 1.0
C      1  0.5550090000000  0.4499400000000  0.5191960000000 1.0
C      1  0.4748580000000  0.5077800000000  0.4903880000000 1.0
C      1  0.5683600000000  0.4460160000000  0.4932810000000 1.0
C      1  0.5331700000000  0.5481850000000  0.5090890000000 1.0
C      1  0.5027910000000  0.5676650000000  0.4560340000000 1.0
C      1  0.4608920000000  0.5041960000000  0.5314630000000 1.0
C      1  0.4717020000000  0.4621040000000  0.5758130000000 1.0
C      1  0.4225470000000  0.5288480000000  0.4698100000000 1.0
C      1  0.4887530000000  0.4945820000000  0.4104100000000 1.0
C      1  0.4563350000000  0.5212310000000  0.4335230000000 1.0
C      1  0.4107130000000  0.4773820000000  0.5060560000000 1.0
C      1  0.5244760000000  0.5745300000000  0.5684410000000 1.0
C      1  0.4163420000000  0.5291280000000  0.4977060000000 1.0
C      1  0.5742880000000  0.5372890000000  0.4773270000000 1.0
C      1  0.5088690000000  0.5128360000000  0.5331150000000 1.0
C      1  0.5181210000000  0.5932030000000  0.4959210000000 1.0
C      1  0.4834640000000  0.4270380000000  0.5441740000000 1.0
C      1  0.5671000000000  0.4754240000000  0.5842610000000 1.0
C      1  0.5427430000000  0.4961460000000  0.5105980000000 1.0
C      1  0.5656830000000  0.5247310000000  0.5255100000000 1.0
C      1  0.5826290000000  0.5108310000000  0.4711840000000 1.0
C      1  0.5291480000000  0.5174090000000  0.4664120000000 1.0
C      1  0.5866960000000  0.4637250000000  0.4815570000000 1.0
C      1  0.5635590000000  0.4547280000000  0.5653730000000 1.0
C      1  0.5863300000000  0.5048160000000  0.4442170000000 1.0
C      1  0.5333160000000  0.4182470000000  0.5486230000000 1.0
C      1  0.5469650000000  0.4928850000000  0.5805460000000 1.0
C      1  0.4824370000000  0.5626680000000  0.4335690000000 1.0
C      1  0.5544670000000  0.5760060000000  0.4499140000000 1.0
C      1  0.5125380000000  0.4608550000000  0.5002980000000 1.0
C      1  0.4608300000000  0.4399870000000  0.4356010000000 1.0
END
