TITL C-3578196-9646-650 -6.13674376688865e-07 125000 -223.44041433972 0 0 37 (Cs) n - 1
REM
REM in /home/bkarasulu/work/CARBON/AIRSS/Generating-Clusters/EDIP-Nigel-Params/with-SteepDescent/Higher-Symm/SD-CG/HFTN-CG
REM
REM
REM
REM
REM
REM ./C.cell (12c818d87b63d06a65506943cc24bca4)
REM
REM compiler GCC version 9.2.1 20190827 (Red Hat 9.2.1-1)
REM options -cpp -mtune=generic -march=x86-64 -g -O0 -fpre-include=/usr/include/finclude/math-vector-fortran.h
REM seed 167218346 -2022039112 970264538 -96223914 1028389854 1734007828 1579442829 832875335 1486795482 -114904943 -1690164646 -317998941 -285149482 -4906193 383183439 -401036532 -120344185 -817260481 -1900273346 -529783692 -400612688 1085159370 503154215 -2000715156 1084467256 -1821734934 943947527 -1789741222 1987054286 -810378121 223682553 157030869 -2133595400
REM
CELL 1.54180   50.00000   50.00000   50.00000   90.00000   90.00000   90.00000
LATT -1
SFAC C  
C      1  0.4819690000000  0.5477610000000  0.4656420000000 1.0
C      1  0.4796870000000  0.4774420000000  0.5503460000000 1.0
C      1  0.5447890000000  0.4674710000000  0.4757420000000 1.0
C      1  0.4755440000000  0.4665020000000  0.5250990000000 1.0
C      1  0.5274860000000  0.4436550000000  0.4761250000000 1.0
C      1  0.5210760000000  0.5487470000000  0.5272860000000 1.0
C      1  0.4667890000000  0.5258940000000  0.4580390000000 1.0
C      1  0.5377330000000  0.5238720000000  0.5517050000000 1.0
C      1  0.5247830000000  0.4771910000000  0.4567620000000 1.0
C      1  0.5468210000000  0.5354160000000  0.5264180000000 1.0
C      1  0.4395610000000  0.5267080000000  0.4652900000000 1.0
C      1  0.4520430000000  0.4731420000000  0.5120590000000 1.0
C      1  0.5274770000000  0.5574300000000  0.4761290000000 1.0
C      1  0.5377370000000  0.4772090000000  0.5517040000000 1.0
C      1  0.4395650000000  0.4743640000000  0.4652880000000 1.0
C      1  0.5210840000000  0.4523330000000  0.5272830000000 1.0
C      1  0.4819770000000  0.4533180000000  0.4656380000000 1.0
C      1  0.4755390000000  0.5345710000000  0.5251010000000 1.0
C      1  0.5247790000000  0.5238950000000  0.4567640000000 1.0
C      1  0.4796840000000  0.5236300000000  0.5503480000000 1.0
C      1  0.4667930000000  0.4751820000000  0.4580370000000 1.0
C      1  0.4520390000000  0.5279290000000  0.5120610000000 1.0
C      1  0.5447840000000  0.5336170000000  0.4757440000000 1.0
C      1  0.5468260000000  0.4656680000000  0.5264150000000 1.0
C      1  0.5009510000000  0.5363610000000  0.5098630000000 1.0
C      1  0.5217970000000  0.5005390000000  0.5494340000000 1.0
C      1  0.5460870000000  0.5177360000000  0.5016830000000 1.0
C      1  0.5003720000000  0.4472150000000  0.4856260000000 1.0
C      1  0.5009560000000  0.4647180000000  0.5098600000000 1.0
C      1  0.5003630000000  0.5538650000000  0.4856300000000 1.0
C      1  0.5100840000000  0.5005420000000  0.4669370000000 1.0
C      1  0.4937350000000  0.5005370000000  0.5570730000000 1.0
C      1  0.5460900000000  0.4833510000000  0.5016820000000 1.0
C      1  0.4390780000000  0.4860080000000  0.4910440000000 1.0
C      1  0.4390750000000  0.5150620000000  0.4910450000000 1.0
C      1  0.4810190000000  0.5005400000000  0.4594660000000 1.0
C      1  0.5116810000000  0.5005410000000  0.4984120000000 1.0
END
