TITL C-3577081-279-236 3.50587947099618e-07 125000 -795.536470444332 0 0 127 (C1) n - 1
REM
REM in /home/bkarasulu/work/CARBON/AIRSS/Generating-Clusters/EDIP-Nigel-Params/with-SteepDescent/Higher-Symm/SD-CG/HFTN-CG
REM
REM
REM
REM
REM
REM ./C.cell (12c818d87b63d06a65506943cc24bca4)
REM
REM compiler GCC version 9.2.1 20190827 (Red Hat 9.2.1-1)
REM options -cpp -mtune=generic -march=x86-64 -g -O0 -fpre-include=/usr/include/finclude/math-vector-fortran.h
REM seed -1228086363 -794287229 253580904 1682736144 -64216305 249868331 320142043 -72789650 -1907290390 -1539973270 -17611743 814885233 107636259 443203248 973765357 1110619458 -1513742024 1198511840 -831570727 -935536725 344763437 -409852567 -2037279905 -1827933907 -1991973242 -687560656 101464440 1442468692 -1480064460 633461775 -1293948495 -1196731100 2039066983
REM
CELL 1.54180   50.00000   50.00000   50.00000   90.00000   90.00000   90.00000
LATT -1
SFAC C  
C      1  0.5154460000000  0.4299900000000  0.5152750000000 1.0
C      1  0.5170580000000  0.5702300000000  0.4838140000000 1.0
C      1  0.4841420000000  0.4260950000000  0.5143270000000 1.0
C      1  0.4843080000000  0.5723210000000  0.4814300000000 1.0
C      1  0.4785090000000  0.5268880000000  0.4532740000000 1.0
C      1  0.4819220000000  0.4611830000000  0.5496410000000 1.0
C      1  0.5096700000000  0.5249660000000  0.4530410000000 1.0
C      1  0.5088340000000  0.4740710000000  0.5491270000000 1.0
C      1  0.5896030000000  0.5340980000000  0.5210360000000 1.0
C      1  0.5811450000000  0.4715320000000  0.4827590000000 1.0
C      1  0.4133020000000  0.5318380000000  0.5200550000000 1.0
C      1  0.4100530000000  0.4647610000000  0.4841700000000 1.0
C      1  0.5320770000000  0.4883420000000  0.5902850000000 1.0
C      1  0.5330260000000  0.5110010000000  0.4135290000000 1.0
C      1  0.4699440000000  0.4905150000000  0.5921030000000 1.0
C      1  0.4732810000000  0.5059090000000  0.4150290000000 1.0
C      1  0.5149240000000  0.4089620000000  0.4687030000000 1.0
C      1  0.5164130000000  0.5925320000000  0.5302700000000 1.0
C      1  0.4861050000000  0.4127030000000  0.4650350000000 1.0
C      1  0.4853620000000  0.5958510000000  0.5295170000000 1.0
C      1  0.4293820000000  0.5310310000000  0.4316760000000 1.0
C      1  0.4278260000000  0.4627140000000  0.5747010000000 1.0
C      1  0.5676650000000  0.5387110000000  0.4355600000000 1.0
C      1  0.5701560000000  0.4641610000000  0.5694370000000 1.0
C      1  0.5283450000000  0.5731820000000  0.5120990000000 1.0
C      1  0.5269600000000  0.4265900000000  0.4875600000000 1.0
C      1  0.4705790000000  0.5805260000000  0.5088650000000 1.0
C      1  0.4715820000000  0.4248440000000  0.4869100000000 1.0
C      1  0.5501480000000  0.5566570000000  0.4521100000000 1.0
C      1  0.5489580000000  0.4464300000000  0.5600990000000 1.0
C      1  0.4425670000000  0.5567460000000  0.4301500000000 1.0
C      1  0.4449790000000  0.4392710000000  0.5712840000000 1.0
C      1  0.4468500000000  0.5064570000000  0.4298550000000 1.0
C      1  0.4425340000000  0.4886270000000  0.5781250000000 1.0
C      1  0.5582370000000  0.5118800000000  0.4293160000000 1.0
C      1  0.5600740000000  0.4909140000000  0.5779210000000 1.0
C      1  0.4347500000000  0.4349090000000  0.4564170000000 1.0
C      1  0.4423830000000  0.5600580000000  0.5455020000000 1.0
C      1  0.5608900000000  0.4407930000000  0.4539760000000 1.0
C      1  0.5635930000000  0.5627870000000  0.5459040000000 1.0
C      1  0.5277730000000  0.5267700000000  0.5629780000000 1.0
C      1  0.5333160000000  0.4618610000000  0.4044180000000 1.0
C      1  0.4731300000000  0.5364390000000  0.5760580000000 1.0
C      1  0.4766250000000  0.4597270000000  0.4104530000000 1.0
C      1  0.5438760000000  0.5286840000000  0.4941280000000 1.0
C      1  0.5376220000000  0.4730620000000  0.5075800000000 1.0
C      1  0.4559500000000  0.5349180000000  0.4962190000000 1.0
C      1  0.4576350000000  0.4685870000000  0.5074010000000 1.0
C      1  0.4180460000000  0.5550710000000  0.4736070000000 1.0
C      1  0.4202870000000  0.4430820000000  0.5286220000000 1.0
C      1  0.5855040000000  0.5563570000000  0.4788170000000 1.0
C      1  0.5766040000000  0.4449310000000  0.5247140000000 1.0
C      1  0.5626490000000  0.4566540000000  0.4999290000000 1.0
C      1  0.5692310000000  0.5455640000000  0.5023180000000 1.0
C      1  0.4316530000000  0.4523080000000  0.5011720000000 1.0
C      1  0.4298930000000  0.5484060000000  0.5017180000000 1.0
C      1  0.4335340000000  0.4866030000000  0.4484640000000 1.0
C      1  0.4272950000000  0.5086820000000  0.5611510000000 1.0
C      1  0.5782900000000  0.4921840000000  0.4405510000000 1.0
C      1  0.5684860000000  0.5108710000000  0.5561860000000 1.0
C      1  0.4264190000000  0.5348740000000  0.5458730000000 1.0
C      1  0.4223450000000  0.4604430000000  0.4575690000000 1.0
C      1  0.5780640000000  0.5381450000000  0.5479380000000 1.0
C      1  0.5715240000000  0.4672630000000  0.4560540000000 1.0
C      1  0.4873680000000  0.4278660000000  0.4397250000000 1.0
C      1  0.4836890000000  0.5830910000000  0.5581400000000 1.0
C      1  0.5152490000000  0.4225020000000  0.4329280000000 1.0
C      1  0.5142560000000  0.5812380000000  0.5595810000000 1.0
C      1  0.5038370000000  0.6105740000000  0.4598410000000 1.0
C      1  0.4857310000000  0.4004240000000  0.5302910000000 1.0
C      1  0.5259960000000  0.5939530000000  0.4657630000000 1.0
C      1  0.5140850000000  0.3950960000000  0.5314130000000 1.0
C      1  0.4883950000000  0.5756100000000  0.4315740000000 1.0
C      1  0.4888740000000  0.4209720000000  0.5760270000000 1.0
C      1  0.5160390000000  0.5665480000000  0.4251890000000 1.0
C      1  0.5173640000000  0.4265520000000  0.5736820000000 1.0
C      1  0.5081030000000  0.4944120000000  0.4589770000000 1.0
C      1  0.5115390000000  0.5093580000000  0.5426590000000 1.0
C      1  0.4768280000000  0.4884980000000  0.4559070000000 1.0
C      1  0.4830160000000  0.5219670000000  0.5411370000000 1.0
C      1  0.5905670000000  0.5373240000000  0.4551170000000 1.0
C      1  0.5855470000000  0.4661240000000  0.5442470000000 1.0
C      1  0.4122260000000  0.5311040000000  0.4560280000000 1.0
C      1  0.4113390000000  0.4638820000000  0.5493860000000 1.0
C      1  0.5151640000000  0.4651550000000  0.5793290000000 1.0
C      1  0.5141640000000  0.5336390000000  0.4226630000000 1.0
C      1  0.4742170000000  0.4463880000000  0.5746780000000 1.0
C      1  0.4717300000000  0.5511880000000  0.4276740000000 1.0
C      1  0.4424360000000  0.5637010000000  0.4590820000000 1.0
C      1  0.4442250000000  0.4325860000000  0.5417500000000 1.0
C      1  0.5680770000000  0.5749950000000  0.4663100000000 1.0
C      1  0.5588550000000  0.4274310000000  0.5397240000000 1.0
C      1  0.5943250000000  0.5083500000000  0.4609650000000 1.0
C      1  0.5808870000000  0.4933700000000  0.5365690000000 1.0
C      1  0.4184550000000  0.5046820000000  0.4661090000000 1.0
C      1  0.4107270000000  0.4925840000000  0.5425910000000 1.0
C      1  0.4701680000000  0.5564360000000  0.5547890000000 1.0
C      1  0.4761980000000  0.4552890000000  0.4380240000000 1.0
C      1  0.5230260000000  0.5545830000000  0.5625500000000 1.0
C      1  0.5288260000000  0.4372880000000  0.4140510000000 1.0
C      1  0.5167650000000  0.5137070000000  0.5868970000000 1.0
C      1  0.5193270000000  0.4854950000000  0.4080730000000 1.0
C      1  0.4870870000000  0.5125290000000  0.5837180000000 1.0
C      1  0.4899770000000  0.4838320000000  0.4072040000000 1.0
C      1  0.4100400000000  0.5036220000000  0.5157460000000 1.0
C      1  0.4047010000000  0.4931200000000  0.4888070000000 1.0
C      1  0.5946800000000  0.5061420000000  0.5147210000000 1.0
C      1  0.5873360000000  0.4985790000000  0.4875850000000 1.0
C      1  0.4431440000000  0.4307040000000  0.4831250000000 1.0
C      1  0.4425540000000  0.5715050000000  0.5175990000000 1.0
C      1  0.5534540000000  0.4355240000000  0.4811700000000 1.0
C      1  0.5563230000000  0.5670710000000  0.5186530000000 1.0
C      1  0.5373650000000  0.5809070000000  0.4405750000000 1.0
C      1  0.5287160000000  0.4090390000000  0.5515480000000 1.0
C      1  0.4830430000000  0.5914630000000  0.4570430000000 1.0
C      1  0.4788220000000  0.4026310000000  0.5573950000000 1.0
C      1  0.5294080000000  0.5434400000000  0.4715950000000 1.0
C      1  0.5268370000000  0.4564450000000  0.5301580000000 1.0
C      1  0.4665210000000  0.5484000000000  0.4723780000000 1.0
C      1  0.4677980000000  0.4477860000000  0.5281960000000 1.0
C      1  0.4748420000000  0.5193430000000  0.5125850000000 1.0
C      1  0.4774010000000  0.4827770000000  0.4879540000000 1.0
C      1  0.5236670000000  0.5146400000000  0.5130100000000 1.0
C      1  0.5163170000000  0.4805070000000  0.4861800000000 1.0
C      1  0.4860500000000  0.5311580000000  0.4100970000000 1.0
C      1  0.4856880000000  0.4654930000000  0.5948990000000 1.0
C      1  0.4986490000000  0.5140160000000  0.4969760000000 1.0
END
