TITL C-3577087-600-442 -2.13410184722955e-07 125000 -1131.7257953441 0 0 179 (C1) n - 1
REM
REM in /home/bkarasulu/work/CARBON/AIRSS/Generating-Clusters/EDIP-Nigel-Params/with-SteepDescent/Higher-Symm/SD-CG/HFTN-CG
REM
REM
REM
REM
REM
REM ./C.cell (12c818d87b63d06a65506943cc24bca4)
REM
REM compiler GCC version 9.2.1 20190827 (Red Hat 9.2.1-1)
REM options -cpp -mtune=generic -march=x86-64 -g -O0 -fpre-include=/usr/include/finclude/math-vector-fortran.h
REM seed 2035121591 859858885 2113030347 -730547497 358432361 -1305498119 -2122081923 -1993315285 -201741490 -2063440423 2115112445 1077684662 195841037 895199657 -1162231666 -2134892560 2045673438 -1996573000 103595284 1501461808 -1976905256 4622610 73722253 1991256387 916795566 1301298891 -787027798 1233408531 -2121489208 -963124785 1744080371 -162769547 566111112
REM
CELL 1.54180   50.00000   50.00000   50.00000   90.00000   90.00000   90.00000
LATT -1
SFAC C  
C      1  0.5113460000000  0.5954660000000  0.5268500000000 1.0
C      1  0.5165500000000  0.5572950000000  0.4167510000000 1.0
C      1  0.5124970000000  0.4434040000000  0.4205920000000 1.0
C      1  0.5119260000000  0.4047200000000  0.5312500000000 1.0
C      1  0.5177960000000  0.4983250000000  0.6030860000000 1.0
C      1  0.4815200000000  0.5962500000000  0.5275410000000 1.0
C      1  0.4867130000000  0.5590710000000  0.4173260000000 1.0
C      1  0.4818990000000  0.4434090000000  0.4234480000000 1.0
C      1  0.4818220000000  0.4065900000000  0.5317260000000 1.0
C      1  0.4883340000000  0.4994960000000  0.6063360000000 1.0
C      1  0.4529180000000  0.4600100000000  0.5341390000000 1.0
C      1  0.4495440000000  0.5137680000000  0.5396040000000 1.0
C      1  0.4412270000000  0.5483670000000  0.5014130000000 1.0
C      1  0.4522460000000  0.5206280000000  0.4540860000000 1.0
C      1  0.4725300000000  0.4502660000000  0.4737220000000 1.0
C      1  0.5558880000000  0.4599820000000  0.5260010000000 1.0
C      1  0.5531610000000  0.5109680000000  0.5423960000000 1.0
C      1  0.5442200000000  0.5570900000000  0.4930430000000 1.0
C      1  0.5495400000000  0.5107180000000  0.4528260000000 1.0
C      1  0.5624480000000  0.4665220000000  0.4688570000000 1.0
C      1  0.5106940000000  0.4829980000000  0.5589690000000 1.0
C      1  0.5103170000000  0.5518570000000  0.5337080000000 1.0
C      1  0.5250230000000  0.5521790000000  0.4595820000000 1.0
C      1  0.5209490000000  0.4691810000000  0.4358010000000 1.0
C      1  0.5158510000000  0.4410160000000  0.4999050000000 1.0
C      1  0.4820960000000  0.4957290000000  0.5639670000000 1.0
C      1  0.4794190000000  0.5573150000000  0.5311370000000 1.0
C      1  0.4915320000000  0.5528380000000  0.4603540000000 1.0
C      1  0.4947350000000  0.4827660000000  0.4446230000000 1.0
C      1  0.4835050000000  0.4400480000000  0.5005300000000 1.0
C      1  0.4621930000000  0.4807920000000  0.5855230000000 1.0
C      1  0.4597040000000  0.5730550000000  0.5496000000000 1.0
C      1  0.4693570000000  0.5733920000000  0.4365750000000 1.0
C      1  0.4708280000000  0.4715810000000  0.4265080000000 1.0
C      1  0.4675150000000  0.4146290000000  0.5064300000000 1.0
C      1  0.5290190000000  0.4754930000000  0.5841170000000 1.0
C      1  0.5240160000000  0.5846150000000  0.5500440000000 1.0
C      1  0.5365680000000  0.5750160000000  0.4302550000000 1.0
C      1  0.5255000000000  0.4586370000000  0.3981960000000 1.0
C      1  0.5317050000000  0.4130840000000  0.5027260000000 1.0
C      1  0.5637390000000  0.4965330000000  0.4734930000000 1.0
C      1  0.5709200000000  0.4527060000000  0.4971980000000 1.0
C      1  0.5655510000000  0.4829980000000  0.5454460000000 1.0
C      1  0.5610820000000  0.5260230000000  0.5162780000000 1.0
C      1  0.5634840000000  0.5400940000000  0.4730740000000 1.0
C      1  0.4406810000000  0.4938960000000  0.4643080000000 1.0
C      1  0.4403980000000  0.4585560000000  0.5031090000000 1.0
C      1  0.4378110000000  0.4863480000000  0.5455510000000 1.0
C      1  0.4312980000000  0.5352950000000  0.5280490000000 1.0
C      1  0.4307850000000  0.5353490000000  0.4751060000000 1.0
C      1  0.4375550000000  0.6000530000000  0.4668420000000 1.0
C      1  0.4415120000000  0.5001160000000  0.4012240000000 1.0
C      1  0.4396890000000  0.4015880000000  0.4684890000000 1.0
C      1  0.4389150000000  0.4373390000000  0.5853210000000 1.0
C      1  0.4388370000000  0.5561220000000  0.5897350000000 1.0
C      1  0.5596910000000  0.5990860000000  0.4657300000000 1.0
C      1  0.5603220000000  0.4972500000000  0.4003930000000 1.0
C      1  0.5577990000000  0.3969470000000  0.4647960000000 1.0
C      1  0.5556970000000  0.4329760000000  0.5863260000000 1.0
C      1  0.5565780000000  0.5584660000000  0.5770350000000 1.0
C      1  0.4208130000000  0.4154650000000  0.4872790000000 1.0
C      1  0.4185470000000  0.4580740000000  0.5779850000000 1.0
C      1  0.4173420000000  0.5572040000000  0.5690100000000 1.0
C      1  0.4174200000000  0.5782850000000  0.4615150000000 1.0
C      1  0.4230080000000  0.4874580000000  0.4204800000000 1.0
C      1  0.5785120000000  0.4065410000000  0.4842880000000 1.0
C      1  0.5758750000000  0.4542180000000  0.5809300000000 1.0
C      1  0.5757010000000  0.5582090000000  0.5542950000000 1.0
C      1  0.5809670000000  0.5784990000000  0.4589020000000 1.0
C      1  0.5818950000000  0.4874860000000  0.4185980000000 1.0
C      1  0.5120800000000  0.5475110000000  0.5858670000000 1.0
C      1  0.5128520000000  0.5957360000000  0.4757530000000 1.0
C      1  0.5150740000000  0.5101090000000  0.3961910000000 1.0
C      1  0.5133510000000  0.4074700000000  0.4573990000000 1.0
C      1  0.5097740000000  0.4276860000000  0.5778910000000 1.0
C      1  0.4839940000000  0.5443480000000  0.5838460000000 1.0
C      1  0.4838880000000  0.5999640000000  0.4764820000000 1.0
C      1  0.4863540000000  0.5112320000000  0.3982860000000 1.0
C      1  0.4844730000000  0.4061340000000  0.4582740000000 1.0
C      1  0.4842280000000  0.4394540000000  0.5708340000000 1.0
C      1  0.4703710000000  0.5482380000000  0.5047700000000 1.0
C      1  0.4798390000000  0.5256940000000  0.4611920000000 1.0
C      1  0.4906620000000  0.4741840000000  0.4727890000000 1.0
C      1  0.4808020000000  0.4638660000000  0.5217190000000 1.0
C      1  0.4771520000000  0.5129960000000  0.5299320000000 1.0
C      1  0.5174310000000  0.5453630000000  0.5030710000000 1.0
C      1  0.5242530000000  0.5210010000000  0.4618650000000 1.0
C      1  0.5352640000000  0.4596850000000  0.4599580000000 1.0
C      1  0.5267150000000  0.4558640000000  0.5228530000000 1.0
C      1  0.5240540000000  0.5056840000000  0.5444490000000 1.0
C      1  0.4236690000000  0.5820890000000  0.5095880000000 1.0
C      1  0.4221500000000  0.5371750000000  0.4266490000000 1.0
C      1  0.4269870000000  0.4451370000000  0.4489210000000 1.0
C      1  0.4240570000000  0.4270130000000  0.5397450000000 1.0
C      1  0.4216600000000  0.5111070000000  0.5855950000000 1.0
C      1  0.5769900000000  0.5823030000000  0.5076580000000 1.0
C      1  0.5782260000000  0.5368670000000  0.4232340000000 1.0
C      1  0.5800810000000  0.4351210000000  0.4447980000000 1.0
C      1  0.5720700000000  0.4279460000000  0.5408590000000 1.0
C      1  0.5735410000000  0.5147550000000  0.5754060000000 1.0
C      1  0.5895780000000  0.5323070000000  0.5570500000000 1.0
C      1  0.5935870000000  0.5700000000000  0.4854190000000 1.0
C      1  0.5942040000000  0.5118590000000  0.4307500000000 1.0
C      1  0.5946540000000  0.4273160000000  0.4697480000000 1.0
C      1  0.5907680000000  0.4475870000000  0.5557120000000 1.0
C      1  0.4046620000000  0.5300520000000  0.5684390000000 1.0
C      1  0.4055450000000  0.5712910000000  0.4882150000000 1.0
C      1  0.4077430000000  0.5103980000000  0.4334860000000 1.0
C      1  0.4098180000000  0.4390630000000  0.4724640000000 1.0
C      1  0.4079530000000  0.4502070000000  0.5510860000000 1.0
C      1  0.5564210000000  0.4166200000000  0.4420560000000 1.0
C      1  0.5532770000000  0.4167480000000  0.5612350000000 1.0
C      1  0.5566490000000  0.5323220000000  0.5915280000000 1.0
C      1  0.5558120000000  0.5992440000000  0.4952560000000 1.0
C      1  0.5581170000000  0.5268550000000  0.4033360000000 1.0
C      1  0.4438750000000  0.4215890000000  0.4459070000000 1.0
C      1  0.4420710000000  0.4187220000000  0.5614540000000 1.0
C      1  0.4424870000000  0.5277650000000  0.5992380000000 1.0
C      1  0.4407670000000  0.6029880000000  0.4966790000000 1.0
C      1  0.4453980000000  0.5273950000000  0.4110780000000 1.0
C      1  0.4335710000000  0.4844840000000  0.5752340000000 1.0
C      1  0.4313010000000  0.5635040000000  0.5422310000000 1.0
C      1  0.4325030000000  0.5543760000000  0.4502100000000 1.0
C      1  0.4405620000000  0.4728740000000  0.4408780000000 1.0
C      1  0.4374090000000  0.4260950000000  0.5102770000000 1.0
C      1  0.5597350000000  0.4790020000000  0.5756660000000 1.0
C      1  0.5638240000000  0.5633240000000  0.5264770000000 1.0
C      1  0.5658710000000  0.5555650000000  0.4455180000000 1.0
C      1  0.5812890000000  0.4629250000000  0.4353200000000 1.0
C      1  0.5627190000000  0.4214990000000  0.5055370000000 1.0
C      1  0.3794480000000  0.5010280000000  0.4774870000000 1.0
C      1  0.3799950000000  0.4760170000000  0.4936040000000 1.0
C      1  0.3786700000000  0.4832800000000  0.5222180000000 1.0
C      1  0.3760890000000  0.5127970000000  0.5241380000000 1.0
C      1  0.3761240000000  0.5238570000000  0.4961990000000 1.0
C      1  0.6168190000000  0.4969940000000  0.4767360000000 1.0
C      1  0.6089230000000  0.4745450000000  0.4942930000000 1.0
C      1  0.6173760000000  0.4812130000000  0.5212640000000 1.0
C      1  0.6203250000000  0.5108260000000  0.5216550000000 1.0
C      1  0.6208440000000  0.5213550000000  0.4938520000000 1.0
C      1  0.4028420000000  0.4739310000000  0.5351720000000 1.0
C      1  0.3970530000000  0.5236730000000  0.5408730000000 1.0
C      1  0.3961100000000  0.5440850000000  0.4905630000000 1.0
C      1  0.4037410000000  0.5040740000000  0.4617640000000 1.0
C      1  0.4042290000000  0.4610080000000  0.4897470000000 1.0
C      1  0.6024630000000  0.4720260000000  0.5442590000000 1.0
C      1  0.5965030000000  0.5229390000000  0.5312700000000 1.0
C      1  0.5985830000000  0.5409260000000  0.4884970000000 1.0
C      1  0.5971750000000  0.5083060000000  0.4590450000000 1.0
C      1  0.6081480000000  0.4467870000000  0.4870730000000 1.0
C      1  0.5265930000000  0.5964930000000  0.5013010000000 1.0
C      1  0.5292710000000  0.5345530000000  0.4027720000000 1.0
C      1  0.5272470000000  0.4196750000000  0.4345830000000 1.0
C      1  0.5245060000000  0.4142760000000  0.5562410000000 1.0
C      1  0.5282520000000  0.5254320000000  0.5956570000000 1.0
C      1  0.4697360000000  0.6044900000000  0.5017180000000 1.0
C      1  0.4727110000000  0.5362460000000  0.4050460000000 1.0
C      1  0.4714690000000  0.4310300000000  0.4492940000000 1.0
C      1  0.4674870000000  0.4278280000000  0.5494450000000 1.0
C      1  0.4719430000000  0.5222510000000  0.5975840000000 1.0
C      1  0.5291360000000  0.5655750000000  0.5709130000000 1.0
C      1  0.5325850000000  0.5950290000000  0.4530220000000 1.0
C      1  0.5328590000000  0.4867570000000  0.3975480000000 1.0
C      1  0.5305430000000  0.3956870000000  0.4776020000000 1.0
C      1  0.5284940000000  0.4450910000000  0.5929240000000 1.0
C      1  0.4648290000000  0.5656330000000  0.5782220000000 1.0
C      1  0.4649760000000  0.5959570000000  0.4545610000000 1.0
C      1  0.4686230000000  0.4873920000000  0.4002230000000 1.0
C      1  0.4674400000000  0.3962780000000  0.4812480000000 1.0
C      1  0.4658070000000  0.4511460000000  0.5900700000000 1.0
C      1  0.4927260000000  0.5583860000000  0.4888870000000 1.0
C      1  0.5172200000000  0.4632250000000  0.4803750000000 1.0
C      1  0.4996940000000  0.5110740000000  0.4478290000000 1.0
C      1  0.5051880000000  0.4624190000000  0.5393810000000 1.0
C      1  0.5028320000000  0.5255650000000  0.5487500000000 1.0
C      1  0.5491240000000  0.5063040000000  0.4980280000000 1.0
C      1  0.4518740000000  0.4849210000000  0.4913590000000 1.0
C      1  0.4789310000000  0.4905350000000  0.5055940000000 1.0
C      1  0.5225050000000  0.5170180000000  0.4917670000000 1.0
END
