TITL C-3578201-9217-523 -1.96186665706915e-06 125000 -1210.14714672847 0 0 191 (C1) n - 1
REM
REM in /home/bkarasulu/work/CARBON/AIRSS/Generating-Clusters/EDIP-Nigel-Params/with-SteepDescent/Higher-Symm/SD-CG/HFTN-CG
REM
REM
REM
REM
REM
REM ./C.cell (12c818d87b63d06a65506943cc24bca4)
REM
REM compiler GCC version 9.2.1 20190827 (Red Hat 9.2.1-1)
REM options -cpp -mtune=generic -march=x86-64 -g -O0 -fpre-include=/usr/include/finclude/math-vector-fortran.h
REM seed 1128933030 -1484151772 -1971545281 -811510047 -1940051664 975966442 1613686064 1483855188 946273692 -1306876558 984780095 -980644470 558261065 -1135492540 -1618218994 1611485234 1194153301 -1257715665 960547159 1053085451 -313048392 1085278786 996289070 -927586912 -118428344 1239947660 -578763521 -1033135382 -889983169 -2052097968 574015890 424172395 72338427
REM
CELL 1.54180   50.00000   50.00000   50.00000   90.00000   90.00000   90.00000
LATT -1
SFAC C  
C      1  0.5657640000000  0.5714410000000  0.5576480000000 1.0
C      1  0.5734880000000  0.5170250000000  0.4061690000000 1.0
C      1  0.5702150000000  0.4114900000000  0.5277960000000 1.0
C      1  0.4280160000000  0.5694300000000  0.5608300000000 1.0
C      1  0.4313030000000  0.5214400000000  0.4107120000000 1.0
C      1  0.4319480000000  0.4122760000000  0.5324800000000 1.0
C      1  0.5682680000000  0.4278580000000  0.4384770000000 1.0
C      1  0.5656040000000  0.4846100000000  0.5892600000000 1.0
C      1  0.5723420000000  0.5837430000000  0.4605790000000 1.0
C      1  0.4349060000000  0.4307580000000  0.4429470000000 1.0
C      1  0.4275090000000  0.4894260000000  0.5908400000000 1.0
C      1  0.4348440000000  0.5897740000000  0.4694820000000 1.0
C      1  0.5472530000000  0.4797280000000  0.5428880000000 1.0
C      1  0.5465650000000  0.5489580000000  0.4884150000000 1.0
C      1  0.5503680000000  0.4695180000000  0.4592810000000 1.0
C      1  0.4520970000000  0.4809200000000  0.5443240000000 1.0
C      1  0.4508740000000  0.5509330000000  0.4915300000000 1.0
C      1  0.4534780000000  0.4739690000000  0.4617780000000 1.0
C      1  0.4858810000000  0.4413930000000  0.4358340000000 1.0
C      1  0.4825970000000  0.4714000000000  0.5831930000000 1.0
C      1  0.4868810000000  0.5908340000000  0.4819200000000 1.0
C      1  0.5160820000000  0.4404220000000  0.4342400000000 1.0
C      1  0.5137310000000  0.4720400000000  0.5850370000000 1.0
C      1  0.5177050000000  0.5893380000000  0.4799950000000 1.0
C      1  0.4457210000000  0.4450570000000  0.4157160000000 1.0
C      1  0.4295830000000  0.4619370000000  0.5951860000000 1.0
C      1  0.4462730000000  0.6050340000000  0.4953440000000 1.0
C      1  0.5561390000000  0.4418410000000  0.4120230000000 1.0
C      1  0.5546380000000  0.4543830000000  0.5915920000000 1.0
C      1  0.5705080000000  0.6004080000000  0.4828360000000 1.0
C      1  0.3989570000000  0.4884730000000  0.4444020000000 1.0
C      1  0.3997360000000  0.4549550000000  0.5412760000000 1.0
C      1  0.3954120000000  0.5560560000000  0.5221500000000 1.0
C      1  0.6041100000000  0.4898790000000  0.4400810000000 1.0
C      1  0.5994760000000  0.4567000000000  0.5370260000000 1.0
C      1  0.5938040000000  0.5556110000000  0.5171840000000 1.0
C      1  0.4407570000000  0.5931430000000  0.5224800000000 1.0
C      1  0.4433030000000  0.4748670000000  0.4109960000000 1.0
C      1  0.4392030000000  0.4408810000000  0.5791560000000 1.0
C      1  0.5616510000000  0.5971550000000  0.5090730000000 1.0
C      1  0.5599480000000  0.4713630000000  0.4069460000000 1.0
C      1  0.5590680000000  0.4351370000000  0.5687720000000 1.0
C      1  0.5258820000000  0.5953350000000  0.4501940000000 1.0
C      1  0.5233070000000  0.4171440000000  0.4513800000000 1.0
C      1  0.5205760000000  0.4989780000000  0.5959590000000 1.0
C      1  0.4802940000000  0.5934700000000  0.4525790000000 1.0
C      1  0.4789990000000  0.4189040000000  0.4543310000000 1.0
C      1  0.4745660000000  0.4990350000000  0.5941620000000 1.0
C      1  0.5494020000000  0.5514270000000  0.5183210000000 1.0
C      1  0.5603430000000  0.4925730000000  0.4458890000000 1.0
C      1  0.5561170000000  0.4553800000000  0.5269410000000 1.0
C      1  0.4388390000000  0.5488290000000  0.5175470000000 1.0
C      1  0.4418650000000  0.4976710000000  0.4488820000000 1.0
C      1  0.4429860000000  0.4567370000000  0.5330430000000 1.0
C      1  0.4714730000000  0.4238500000000  0.5561160000000 1.0
C      1  0.4665350000000  0.5879400000000  0.5387400000000 1.0
C      1  0.4703680000000  0.4905920000000  0.4064140000000 1.0
C      1  0.5329190000000  0.4214400000000  0.5601290000000 1.0
C      1  0.5269360000000  0.5822690000000  0.5386470000000 1.0
C      1  0.5332790000000  0.4873140000000  0.4023300000000 1.0
C      1  0.3908640000000  0.5044430000000  0.5303140000000 1.0
C      1  0.3895070000000  0.5217830000000  0.4844980000000 1.0
C      1  0.3927680000000  0.4724080000000  0.4922610000000 1.0
C      1  0.6026160000000  0.5063650000000  0.5264460000000 1.0
C      1  0.6099330000000  0.5235960000000  0.4805500000000 1.0
C      1  0.6105130000000  0.4745220000000  0.4884900000000 1.0
C      1  0.4567730000000  0.5227500000000  0.4818780000000 1.0
C      1  0.4606380000000  0.4805910000000  0.4917550000000 1.0
C      1  0.4557800000000  0.5001050000000  0.5198730000000 1.0
C      1  0.5471080000000  0.5184700000000  0.4852160000000 1.0
C      1  0.5449680000000  0.4774880000000  0.4884560000000 1.0
C      1  0.5397770000000  0.5011710000000  0.5221140000000 1.0
C      1  0.5502050000000  0.4065840000000  0.4528950000000 1.0
C      1  0.5480420000000  0.5074550000000  0.6005680000000 1.0
C      1  0.5499910000000  0.5804430000000  0.4408080000000 1.0
C      1  0.4521610000000  0.4090260000000  0.4574280000000 1.0
C      1  0.4479110000000  0.5086900000000  0.6012350000000 1.0
C      1  0.4535730000000  0.5852140000000  0.4461080000000 1.0
C      1  0.5388790000000  0.5789790000000  0.5668290000000 1.0
C      1  0.5455930000000  0.5171120000000  0.3956480000000 1.0
C      1  0.5451510000000  0.3991240000000  0.5379630000000 1.0
C      1  0.4558030000000  0.5785230000000  0.5672080000000 1.0
C      1  0.4598160000000  0.5209940000000  0.4022400000000 1.0
C      1  0.4597510000000  0.4026990000000  0.5362010000000 1.0
C      1  0.5225520000000  0.4701170000000  0.5564230000000 1.0
C      1  0.5212470000000  0.5599220000000  0.4766250000000 1.0
C      1  0.5243180000000  0.4667000000000  0.4460910000000 1.0
C      1  0.4784120000000  0.4720870000000  0.5541480000000 1.0
C      1  0.4771930000000  0.5646620000000  0.4961210000000 1.0
C      1  0.4797470000000  0.4680580000000  0.4485060000000 1.0
C      1  0.4819450000000  0.5133730000000  0.5275690000000 1.0
C      1  0.4945320000000  0.5155160000000  0.4775330000000 1.0
C      1  0.4887580000000  0.4666250000000  0.4955970000000 1.0
C      1  0.5114580000000  0.5122310000000  0.5281980000000 1.0
C      1  0.5224470000000  0.5111710000000  0.4700590000000 1.0
C      1  0.5183290000000  0.4662830000000  0.5001020000000 1.0
C      1  0.5226540000000  0.5355760000000  0.5421470000000 1.0
C      1  0.5316350000000  0.5255500000000  0.4442220000000 1.0
C      1  0.5278400000000  0.4439510000000  0.5171510000000 1.0
C      1  0.4705170000000  0.5351010000000  0.5433880000000 1.0
C      1  0.4803710000000  0.5176600000000  0.4520670000000 1.0
C      1  0.4764350000000  0.4430730000000  0.5083000000000 1.0
C      1  0.5156570000000  0.4440430000000  0.5443470000000 1.0
C      1  0.5090280000000  0.5603460000000  0.5328930000000 1.0
C      1  0.5189980000000  0.4925130000000  0.4303670000000 1.0
C      1  0.4853080000000  0.4455370000000  0.5403870000000 1.0
C      1  0.4801400000000  0.5624490000000  0.5268880000000 1.0
C      1  0.4873140000000  0.4925960000000  0.4333720000000 1.0
C      1  0.6082400000000  0.5159710000000  0.4528050000000 1.0
C      1  0.6078300000000  0.4546600000000  0.5093040000000 1.0
C      1  0.5992960000000  0.5334130000000  0.5345160000000 1.0
C      1  0.3916030000000  0.5137590000000  0.4569650000000 1.0
C      1  0.3958980000000  0.4520530000000  0.5123480000000 1.0
C      1  0.3950320000000  0.5315830000000  0.5380740000000 1.0
C      1  0.5328600000000  0.3940720000000  0.5100750000000 1.0
C      1  0.5292150000000  0.5567340000000  0.5864230000000 1.0
C      1  0.5348690000000  0.5435610000000  0.4037160000000 1.0
C      1  0.4710080000000  0.3956580000000  0.5076900000000 1.0
C      1  0.4668930000000  0.5569260000000  0.5867790000000 1.0
C      1  0.4719500000000  0.5476690000000  0.4133720000000 1.0
C      1  0.5708340000000  0.4132340000000  0.4978400000000 1.0
C      1  0.5714320000000  0.5443100000000  0.5714280000000 1.0
C      1  0.5772390000000  0.5426590000000  0.4213410000000 1.0
C      1  0.4281830000000  0.4147400000000  0.5020820000000 1.0
C      1  0.4236200000000  0.5429770000000  0.5735410000000 1.0
C      1  0.4269520000000  0.5474740000000  0.4256470000000 1.0
C      1  0.4742530000000  0.4401090000000  0.4079860000000 1.0
C      1  0.4688010000000  0.4428260000000  0.5901400000000 1.0
C      1  0.4758760000000  0.6141210000000  0.4977320000000 1.0
C      1  0.5265700000000  0.4384910000000  0.4059640000000 1.0
C      1  0.5255290000000  0.4484520000000  0.6002510000000 1.0
C      1  0.5322120000000  0.6027530000000  0.5059160000000 1.0
C      1  0.4876760000000  0.5424390000000  0.4388440000000 1.0
C      1  0.4893560000000  0.4177390000000  0.4968870000000 1.0
C      1  0.4824970000000  0.5360080000000  0.5715880000000 1.0
C      1  0.5153840000000  0.5530540000000  0.4462990000000 1.0
C      1  0.5175050000000  0.4183590000000  0.5059960000000 1.0
C      1  0.5139990000000  0.5349580000000  0.5717540000000 1.0
C      1  0.4326760000000  0.4631930000000  0.5078050000000 1.0
C      1  0.4307050000000  0.5224360000000  0.5252760000000 1.0
C      1  0.4293680000000  0.5161540000000  0.4668630000000 1.0
C      1  0.5703950000000  0.4637870000000  0.5029170000000 1.0
C      1  0.5620020000000  0.5246750000000  0.5264020000000 1.0
C      1  0.5713320000000  0.5110490000000  0.4642620000000 1.0
C      1  0.5695260000000  0.4921210000000  0.5603220000000 1.0
C      1  0.5721390000000  0.5565550000000  0.4717060000000 1.0
C      1  0.5747830000000  0.4496350000000  0.4585610000000 1.0
C      1  0.4285180000000  0.4934890000000  0.5616950000000 1.0
C      1  0.4253480000000  0.5624390000000  0.4772850000000 1.0
C      1  0.4317120000000  0.4517580000000  0.4639270000000 1.0
C      1  0.4253030000000  0.4943580000000  0.4252930000000 1.0
C      1  0.4267600000000  0.4388120000000  0.5491990000000 1.0
C      1  0.4226490000000  0.5701940000000  0.5303050000000 1.0
C      1  0.5777170000000  0.4907730000000  0.4221760000000 1.0
C      1  0.5745180000000  0.4377500000000  0.5428700000000 1.0
C      1  0.5694460000000  0.5721210000000  0.5261540000000 1.0
C      1  0.5138670000000  0.3724640000000  0.5099170000000 1.0
C      1  0.5116010000000  0.5667120000000  0.6069240000000 1.0
C      1  0.5143560000000  0.5546060000000  0.3890660000000 1.0
C      1  0.4869530000000  0.3716830000000  0.5080050000000 1.0
C      1  0.4846440000000  0.5673490000000  0.6069170000000 1.0
C      1  0.4885720000000  0.5595880000000  0.3934430000000 1.0
C      1  0.5547700000000  0.5624110000000  0.4151820000000 1.0
C      1  0.5565090000000  0.3948440000000  0.4805780000000 1.0
C      1  0.5539490000000  0.5395580000000  0.5954360000000 1.0
C      1  0.4491300000000  0.5667490000000  0.4217470000000 1.0
C      1  0.4466750000000  0.3966880000000  0.4868250000000 1.0
C      1  0.4426760000000  0.5392700000000  0.5963570000000 1.0
C      1  0.5141170000000  0.6099950000000  0.5313530000000 1.0
C      1  0.5157250000000  0.4627670000000  0.3909530000000 1.0
C      1  0.5169430000000  0.4217090000000  0.5869880000000 1.0
C      1  0.4842540000000  0.6119290000000  0.5272520000000 1.0
C      1  0.4856270000000  0.4638990000000  0.3926710000000 1.0
C      1  0.4871100000000  0.4178310000000  0.5835910000000 1.0
C      1  0.5621420000000  0.5213450000000  0.5556640000000 1.0
C      1  0.5660610000000  0.5364690000000  0.4490380000000 1.0
C      1  0.5732230000000  0.4396710000000  0.4862140000000 1.0
C      1  0.4356760000000  0.5225900000000  0.5552670000000 1.0
C      1  0.4243880000000  0.5431740000000  0.4546640000000 1.0
C      1  0.4411960000000  0.4402090000000  0.4918940000000 1.0
C      1  0.5964100000000  0.5491040000000  0.4883210000000 1.0
C      1  0.6022810000000  0.4673410000000  0.4598310000000 1.0
C      1  0.5954730000000  0.4850830000000  0.5456970000000 1.0
C      1  0.3960580000000  0.5501290000000  0.4929910000000 1.0
C      1  0.4035830000000  0.4665170000000  0.4648390000000 1.0
C      1  0.4019480000000  0.4843250000000  0.5489510000000 1.0
C      1  0.5025470000000  0.5875150000000  0.4353360000000 1.0
C      1  0.4974940000000  0.5151240000000  0.6012810000000 1.0
C      1  0.5011350000000  0.4040020000000  0.4631380000000 1.0
C      1  0.6084410000000  0.5014440000000  0.4987440000000 1.0
C      1  0.3917910000000  0.4995040000000  0.5022470000000 1.0
END
