TITL C-3578196-9646-552 -2.43615216120814e-06 125000 -233.776148509986 0 0 40 (C2) n - 1
REM
REM in /home/bkarasulu/work/CARBON/AIRSS/Generating-Clusters/EDIP-Nigel-Params/with-SteepDescent/Higher-Symm/SD-CG/HFTN-CG
REM
REM
REM
REM
REM
REM ./C.cell (12c818d87b63d06a65506943cc24bca4)
REM
REM compiler GCC version 9.2.1 20190827 (Red Hat 9.2.1-1)
REM options -cpp -mtune=generic -march=x86-64 -g -O0 -fpre-include=/usr/include/finclude/math-vector-fortran.h
REM seed -1226460435 -1470233373 536978274 564157711 1953978216 -651081314 -212410959 669356675 -1470067413 -1783863216 -1935757137 238439462 -1420801675 1417449975 -1977436601 2145347108 1005505314 -1879546042 237102510 -1773778126 -1893380505 36016928 1794830192 1295512787 1061033059 -912275664 -1427176447 1556064871 221148357 -1464214863 2010839847 1300249579 -117062722
REM
CELL 1.54180   50.00000   50.00000   50.00000   90.00000   90.00000   90.00000
LATT -1
SFAC C  
C      1  0.4712640000000  0.4657830000000  0.4554700000000 1.0
C      1  0.5453650000000  0.5310350000000  0.4588760000000 1.0
C      1  0.5289500000000  0.4661430000000  0.5446670000000 1.0
C      1  0.4544400000000  0.5309140000000  0.5410000000000 1.0
C      1  0.4928210000000  0.4989040000000  0.5364940000000 1.0
C      1  0.4372790000000  0.4980760000000  0.4965280000000 1.0
C      1  0.5071870000000  0.4988030000000  0.4635100000000 1.0
C      1  0.5627320000000  0.4984850000000  0.5034790000000 1.0
C      1  0.4654420000000  0.4907580000000  0.4912010000000 1.0
C      1  0.5133380000000  0.5082200000000  0.4928110000000 1.0
C      1  0.5346150000000  0.4910110000000  0.5088360000000 1.0
C      1  0.4866100000000  0.5081650000000  0.5071560000000 1.0
C      1  0.4687120000000  0.5454180000000  0.5217000000000 1.0
C      1  0.4917020000000  0.4589140000000  0.4749180000000 1.0
C      1  0.5310020000000  0.5455260000000  0.4781180000000 1.0
C      1  0.5085560000000  0.4590690000000  0.5252470000000 1.0
C      1  0.4357900000000  0.4858200000000  0.5232610000000 1.0
C      1  0.4828110000000  0.5137010000000  0.4531410000000 1.0
C      1  0.5642980000000  0.4861300000000  0.4767950000000 1.0
C      1  0.5171020000000  0.5139980000000  0.5468030000000 1.0
C      1  0.5383170000000  0.5353250000000  0.5052420000000 1.0
C      1  0.4805720000000  0.4603940000000  0.5364430000000 1.0
C      1  0.4614620000000  0.5350620000000  0.4946170000000 1.0
C      1  0.5196770000000  0.4603710000000  0.4637170000000 1.0
C      1  0.4422450000000  0.5065320000000  0.5414970000000 1.0
C      1  0.4633910000000  0.4931770000000  0.4608200000000 1.0
C      1  0.5577140000000  0.5067290000000  0.4584770000000 1.0
C      1  0.5366510000000  0.4935650000000  0.5392060000000 1.0
C      1  0.5326740000000  0.4484510000000  0.5106360000000 1.0
C      1  0.4955870000000  0.5508640000000  0.5264330000000 1.0
C      1  0.4676510000000  0.4482040000000  0.4895720000000 1.0
C      1  0.5040930000000  0.5507840000000  0.4733630000000 1.0
C      1  0.4582390000000  0.4611230000000  0.5160130000000 1.0
C      1  0.4790580000000  0.5388340000000  0.4693230000000 1.0
C      1  0.5420050000000  0.4613220000000  0.4841430000000 1.0
C      1  0.5206970000000  0.5390880000000  0.5305200000000 1.0
C      1  0.5220640000000  0.4815230000000  0.4443580000000 1.0
C      1  0.5660590000000  0.5263060000000  0.5064590000000 1.0
C      1  0.4780520000000  0.4816090000000  0.5557160000000 1.0
C      1  0.4337760000000  0.5258640000000  0.4934360000000 1.0
END
