TITL C-3578197-9521-24 -1.31146380594611e-06 125000 -1214.90200808381 0 0 194 (C1) n - 1
REM
REM in /home/bkarasulu/work/CARBON/AIRSS/Generating-Clusters/EDIP-Nigel-Params/with-SteepDescent/Higher-Symm/SD-CG/HFTN-CG
REM
REM
REM
REM
REM
REM ./C.cell (12c818d87b63d06a65506943cc24bca4)
REM
REM compiler GCC version 9.2.1 20190827 (Red Hat 9.2.1-1)
REM options -cpp -mtune=generic -march=x86-64 -g -O0 -fpre-include=/usr/include/finclude/math-vector-fortran.h
REM seed -1038258367 51442060 1980956312 -1930321088 -1280513037 1361721637 -1259532651 772782160 899641518 1115446819 -1682893580 -1152546534 -1668509149 -910744247 731895774 -546875753 1216524708 -1326970534 -778731516 247166586 640350536 -923195380 547232225 1640892575 -2047019817 -178269455 -726346858 -1636452958 -407395257 1275457376 -1595952797 1763334441 1948276372
REM
CELL 1.54180   50.00000   50.00000   50.00000   90.00000   90.00000   90.00000
LATT -1
SFAC C  
C      1  0.4983890000000  0.4872380000000  0.4754370000000 1.0
C      1  0.4864020000000  0.5128060000000  0.4716980000000 1.0
C      1  0.5025310000000  0.5361840000000  0.4628870000000 1.0
C      1  0.5279370000000  0.4856060000000  0.4675280000000 1.0
C      1  0.5009770000000  0.4837650000000  0.5237290000000 1.0
C      1  0.4840010000000  0.5070950000000  0.5251560000000 1.0
C      1  0.5009640000000  0.5284570000000  0.5240160000000 1.0
C      1  0.5304920000000  0.4874130000000  0.5324950000000 1.0
C      1  0.5625890000000  0.4484210000000  0.5592600000000 1.0
C      1  0.4502370000000  0.4446570000000  0.5750320000000 1.0
C      1  0.4421500000000  0.5525850000000  0.5740020000000 1.0
C      1  0.5506100000000  0.5562500000000  0.5752150000000 1.0
C      1  0.5607000000000  0.4480640000000  0.4429720000000 1.0
C      1  0.4457150000000  0.4365770000000  0.4415210000000 1.0
C      1  0.4420490000000  0.5541850000000  0.4212080000000 1.0
C      1  0.5434690000000  0.5585990000000  0.4416540000000 1.0
C      1  0.5907490000000  0.4977820000000  0.4437350000000 1.0
C      1  0.5044040000000  0.4019110000000  0.4396820000000 1.0
C      1  0.4028960000000  0.4964370000000  0.4399500000000 1.0
C      1  0.5030520000000  0.5971630000000  0.4456250000000 1.0
C      1  0.5972450000000  0.4980010000000  0.5555610000000 1.0
C      1  0.5077200000000  0.3995460000000  0.5613620000000 1.0
C      1  0.3962990000000  0.4966960000000  0.5583560000000 1.0
C      1  0.4972440000000  0.6059250000000  0.5629190000000 1.0
C      1  0.4653450000000  0.3955150000000  0.5420310000000 1.0
C      1  0.4007920000000  0.5359860000000  0.5372770000000 1.0
C      1  0.5392830000000  0.6098730000000  0.5427320000000 1.0
C      1  0.6109890000000  0.4567920000000  0.5391290000000 1.0
C      1  0.4644260000000  0.3921200000000  0.4611030000000 1.0
C      1  0.3928350000000  0.5374860000000  0.4573170000000 1.0
C      1  0.5451880000000  0.6111430000000  0.4617390000000 1.0
C      1  0.6106110000000  0.4566870000000  0.4594010000000 1.0
C      1  0.6084670000000  0.4352230000000  0.5191500000000 1.0
C      1  0.4474130000000  0.4013640000000  0.5206300000000 1.0
C      1  0.3999930000000  0.5562570000000  0.5166860000000 1.0
C      1  0.5563740000000  0.6052650000000  0.5198010000000 1.0
C      1  0.6099460000000  0.4363370000000  0.4808020000000 1.0
C      1  0.4463340000000  0.3975740000000  0.4824970000000 1.0
C      1  0.3965550000000  0.5565640000000  0.4784630000000 1.0
C      1  0.5648700000000  0.6050280000000  0.4824540000000 1.0
C      1  0.5271460000000  0.4678630000000  0.4435700000000 1.0
C      1  0.4637250000000  0.4648980000000  0.4445450000000 1.0
C      1  0.4568980000000  0.5384900000000  0.4440040000000 1.0
C      1  0.5253610000000  0.5294540000000  0.4428930000000 1.0
C      1  0.5308950000000  0.4693110000000  0.5561870000000 1.0
C      1  0.4614890000000  0.4636410000000  0.5526340000000 1.0
C      1  0.4614830000000  0.5437550000000  0.5504040000000 1.0
C      1  0.5360810000000  0.5413170000000  0.5513560000000 1.0
C      1  0.4387730000000  0.5307350000000  0.4683370000000 1.0
C      1  0.5354000000000  0.5688120000000  0.4717570000000 1.0
C      1  0.5683640000000  0.4584620000000  0.4722050000000 1.0
C      1  0.4730020000000  0.4390390000000  0.4692150000000 1.0
C      1  0.4440900000000  0.5354950000000  0.5280750000000 1.0
C      1  0.5319170000000  0.5618760000000  0.5293080000000 1.0
C      1  0.5617520000000  0.4502630000000  0.5285310000000 1.0
C      1  0.4675790000000  0.4471680000000  0.5291030000000 1.0
C      1  0.5809220000000  0.4339280000000  0.4844240000000 1.0
C      1  0.4471430000000  0.4269240000000  0.4840610000000 1.0
C      1  0.4259910000000  0.5562090000000  0.4806910000000 1.0
C      1  0.5608090000000  0.5757630000000  0.4868170000000 1.0
C      1  0.5791500000000  0.4307440000000  0.5144280000000 1.0
C      1  0.4450770000000  0.4304190000000  0.5154050000000 1.0
C      1  0.4295000000000  0.5583660000000  0.5121650000000 1.0
C      1  0.5569080000000  0.5756330000000  0.5174260000000 1.0
C      1  0.5851540000000  0.5577270000000  0.4871680000000 1.0
C      1  0.5623620000000  0.3997900000000  0.4838010000000 1.0
C      1  0.4105900000000  0.4398740000000  0.4837990000000 1.0
C      1  0.4427970000000  0.5904730000000  0.4862910000000 1.0
C      1  0.5911230000000  0.5575900000000  0.5154580000000 1.0
C      1  0.5656220000000  0.4034600000000  0.5128320000000 1.0
C      1  0.4152340000000  0.4392710000000  0.5124550000000 1.0
C      1  0.4412070000000  0.5944000000000  0.5149100000000 1.0
C      1  0.4064450000000  0.5438090000000  0.4318680000000 1.0
C      1  0.5473680000000  0.5953180000000  0.4359900000000 1.0
C      1  0.5909900000000  0.4518760000000  0.4349080000000 1.0
C      1  0.4569220000000  0.4078710000000  0.4360520000000 1.0
C      1  0.4089980000000  0.5435610000000  0.5647810000000 1.0
C      1  0.5439380000000  0.5931260000000  0.5668470000000 1.0
C      1  0.5938610000000  0.4523190000000  0.5646710000000 1.0
C      1  0.4598410000000  0.4086340000000  0.5673660000000 1.0
C      1  0.5429500000000  0.4343580000000  0.5897410000000 1.0
C      1  0.4251900000000  0.4606380000000  0.5818590000000 1.0
C      1  0.4597860000000  0.5768380000000  0.5824370000000 1.0
C      1  0.5720030000000  0.5343330000000  0.5789710000000 1.0
C      1  0.5388770000000  0.4387250000000  0.4122280000000 1.0
C      1  0.4345370000000  0.4586490000000  0.4119840000000 1.0
C      1  0.4650260000000  0.5754100000000  0.4197000000000 1.0
C      1  0.5656340000000  0.5356580000000  0.4201750000000 1.0
C      1  0.5855720000000  0.4788650000000  0.4229420000000 1.0
C      1  0.4826600000000  0.4107200000000  0.4213960000000 1.0
C      1  0.4095100000000  0.5170750000000  0.4203100000000 1.0
C      1  0.5207630000000  0.5914500000000  0.4236820000000 1.0
C      1  0.5889270000000  0.4795650000000  0.5756580000000 1.0
C      1  0.4863390000000  0.4097350000000  0.5791920000000 1.0
C      1  0.4072640000000  0.5167340000000  0.5769430000000 1.0
C      1  0.5174250000000  0.5928200000000  0.5792110000000 1.0
C      1  0.4795710000000  0.4649700000000  0.4862270000000 1.0
C      1  0.4626450000000  0.5247820000000  0.4867480000000 1.0
C      1  0.5214230000000  0.5459490000000  0.4851590000000 1.0
C      1  0.5438530000000  0.4675050000000  0.4869740000000 1.0
C      1  0.4897200000000  0.4576360000000  0.5134300000000 1.0
C      1  0.4568040000000  0.5136220000000  0.5136620000000 1.0
C      1  0.5105020000000  0.5520640000000  0.5119320000000 1.0
C      1  0.5500410000000  0.4733740000000  0.5150970000000 1.0
C      1  0.3996510000000  0.5097880000000  0.4651180000000 1.0
C      1  0.5184770000000  0.5966930000000  0.4710340000000 1.0
C      1  0.5979320000000  0.4841070000000  0.4682780000000 1.0
C      1  0.4923890000000  0.3997360000000  0.4659840000000 1.0
C      1  0.3913010000000  0.5086150000000  0.5318130000000 1.0
C      1  0.5095550000000  0.6139230000000  0.5380850000000 1.0
C      1  0.6058670000000  0.4855690000000  0.5310840000000 1.0
C      1  0.4943830000000  0.3929190000000  0.5358820000000 1.0
C      1  0.4833670000000  0.5205870000000  0.5672160000000 1.0
C      1  0.5140700000000  0.5240830000000  0.5657550000000 1.0
C      1  0.5123670000000  0.4817350000000  0.5783190000000 1.0
C      1  0.4814770000000  0.4871250000000  0.5710320000000 1.0
C      1  0.4734870000000  0.5159760000000  0.4294590000000 1.0
C      1  0.5159820000000  0.5134580000000  0.4184300000000 1.0
C      1  0.5100420000000  0.4829000000000  0.4212030000000 1.0
C      1  0.4791180000000  0.4853850000000  0.4239620000000 1.0
C      1  0.6028640000000  0.5095350000000  0.4849790000000 1.0
C      1  0.5129760000000  0.3921020000000  0.4855750000000 1.0
C      1  0.3935800000000  0.4873770000000  0.4835400000000 1.0
C      1  0.4905310000000  0.5970760000000  0.4943280000000 1.0
C      1  0.6071580000000  0.5099000000000  0.5138530000000 1.0
C      1  0.5133870000000  0.4037470000000  0.5140560000000 1.0
C      1  0.4038710000000  0.4882850000000  0.5119320000000 1.0
C      1  0.4871540000000  0.6162720000000  0.5174860000000 1.0
C      1  0.5416530000000  0.5254720000000  0.4870770000000 1.0
C      1  0.5280700000000  0.4432210000000  0.4870710000000 1.0
C      1  0.4505860000000  0.4742760000000  0.4885660000000 1.0
C      1  0.4693670000000  0.5554170000000  0.4886700000000 1.0
C      1  0.5525970000000  0.5174870000000  0.5112790000000 1.0
C      1  0.5126570000000  0.4366910000000  0.5131760000000 1.0
C      1  0.4383780000000  0.4893090000000  0.5124330000000 1.0
C      1  0.4860520000000  0.5693820000000  0.5094320000000 1.0
C      1  0.4480860000000  0.5343900000000  0.3981890000000 1.0
C      1  0.5359830000000  0.5511570000000  0.3997660000000 1.0
C      1  0.5472020000000  0.4658920000000  0.3963300000000 1.0
C      1  0.4637010000000  0.4494970000000  0.3983160000000 1.0
C      1  0.4476500000000  0.5317710000000  0.5951240000000 1.0
C      1  0.5302820000000  0.5507580000000  0.5974300000000 1.0
C      1  0.5510810000000  0.4641020000000  0.5991410000000 1.0
C      1  0.4687910000000  0.4499230000000  0.5977750000000 1.0
C      1  0.4198720000000  0.4713130000000  0.4451050000000 1.0
C      1  0.4760710000000  0.5855450000000  0.4477490000000 1.0
C      1  0.5727760000000  0.5210650000000  0.4481400000000 1.0
C      1  0.5300570000000  0.4179840000000  0.4439170000000 1.0
C      1  0.4137250000000  0.4719010000000  0.5546910000000 1.0
C      1  0.4713120000000  0.5918440000000  0.5567570000000 1.0
C      1  0.5814900000000  0.5228230000000  0.5520910000000 1.0
C      1  0.5330780000000  0.4174720000000  0.5560960000000 1.0
C      1  0.4816130000000  0.5610270000000  0.5969480000000 1.0
C      1  0.5554190000000  0.5123280000000  0.5914670000000 1.0
C      1  0.5153970000000  0.4390930000000  0.6045650000000 1.0
C      1  0.4388220000000  0.4832340000000  0.5973630000000 1.0
C      1  0.4864620000000  0.5589990000000  0.4065830000000 1.0
C      1  0.5581570000000  0.5129740000000  0.4013470000000 1.0
C      1  0.5105890000000  0.4416870000000  0.3978690000000 1.0
C      1  0.4394570000000  0.4861770000000  0.3960090000000 1.0
C      1  0.5403710000000  0.4006570000000  0.5288310000000 1.0
C      1  0.4016920000000  0.4611790000000  0.5271270000000 1.0
C      1  0.4608100000000  0.6088070000000  0.5317050000000 1.0
C      1  0.5992140000000  0.5341420000000  0.5295870000000 1.0
C      1  0.5374450000000  0.3979800000000  0.4692240000000 1.0
C      1  0.4010520000000  0.4622840000000  0.4684440000000 1.0
C      1  0.4672110000000  0.5989680000000  0.4743150000000 1.0
C      1  0.5889940000000  0.5323440000000  0.4720670000000 1.0
C      1  0.4918760000000  0.4354970000000  0.5898850000000 1.0
C      1  0.4329210000000  0.5091210000000  0.5870130000000 1.0
C      1  0.5086360000000  0.5678360000000  0.5899140000000 1.0
C      1  0.5618910000000  0.4850790000000  0.5835260000000 1.0
C      1  0.4859840000000  0.4369980000000  0.4108810000000 1.0
C      1  0.4346590000000  0.5112690000000  0.4083840000000 1.0
C      1  0.5141910000000  0.5665560000000  0.4100780000000 1.0
C      1  0.5603680000000  0.4860340000000  0.4111530000000 1.0
C      1  0.4758310000000  0.5678320000000  0.5392920000000 1.0
C      1  0.5530140000000  0.5184510000000  0.5398550000000 1.0
C      1  0.5212940000000  0.4423750000000  0.5440470000000 1.0
C      1  0.4395390000000  0.4793210000000  0.5414950000000 1.0
C      1  0.4784190000000  0.5566720000000  0.4587600000000 1.0
C      1  0.5437760000000  0.5124320000000  0.4608280000000 1.0
C      1  0.5195660000000  0.4418650000000  0.4581190000000 1.0
C      1  0.4446540000000  0.4808170000000  0.4604540000000 1.0
C      1  0.4779440000000  0.5297810000000  0.4023130000000 1.0
C      1  0.5313950000000  0.5225870000000  0.3939880000000 1.0
C      1  0.5166820000000  0.4715030000000  0.3934080000000 1.0
C      1  0.4691700000000  0.4796570000000  0.3948460000000 1.0
C      1  0.4769940000000  0.5305960000000  0.5964370000000 1.0
C      1  0.5257420000000  0.5211020000000  0.5933310000000 1.0
C      1  0.5214540000000  0.4691500000000  0.6057430000000 1.0
C      1  0.4691220000000  0.4796870000000  0.5992600000000 1.0
C      1  0.4965360000000  0.5057310000000  0.3855060000000 1.0
C      1  0.4988670000000  0.5033330000000  0.6083120000000 1.0
END
