TITL C-3578194-7807-757 -1.04595876817017e-06 125000 -373.266310623856 0 0 61 (C1) n - 1
REM
REM in /home/bkarasulu/work/CARBON/AIRSS/Generating-Clusters/EDIP-Nigel-Params/with-SteepDescent/Higher-Symm/SD-CG/HFTN-CG
REM
REM
REM
REM
REM
REM ./C.cell (12c818d87b63d06a65506943cc24bca4)
REM
REM compiler GCC version 9.2.1 20190827 (Red Hat 9.2.1-1)
REM options -cpp -mtune=generic -march=x86-64 -g -O0 -fpre-include=/usr/include/finclude/math-vector-fortran.h
REM seed -1032065087 -842466508 -511701749 -487178634 2008487672 672318586 1628626773 -992158741 878291490 196634252 -20298263 1545300942 2077159421 1623618360 1545905849 867042740 -255234449 668486135 474381099 -1841161964 -34269523 791710596 1565093580 842220954 -1068671965 1323056891 -1293270931 1989394039 1647368271 952714010 478249851 -1734859556 736855470
REM
CELL 1.54180   50.00000   50.00000   50.00000   90.00000   90.00000   90.00000
LATT -1
SFAC C  
C      1  0.5358650000000  0.5573360000000  0.4772260000000 1.0
C      1  0.5234290000000  0.4609560000000  0.4972390000000 1.0
C      1  0.4880480000000  0.4341300000000  0.4495940000000 1.0
C      1  0.4658180000000  0.5421500000000  0.5039450000000 1.0
C      1  0.4778780000000  0.4536920000000  0.5377940000000 1.0
C      1  0.4851420000000  0.4892450000000  0.4757830000000 1.0
C      1  0.5084490000000  0.5067100000000  0.4245580000000 1.0
C      1  0.4837790000000  0.5400960000000  0.5509070000000 1.0
C      1  0.5577960000000  0.5271420000000  0.5050500000000 1.0
C      1  0.4567560000000  0.5296050000000  0.5572260000000 1.0
C      1  0.4891910000000  0.4634300000000  0.4400300000000 1.0
C      1  0.4427390000000  0.4909400000000  0.5023320000000 1.0
C      1  0.4939010000000  0.5328170000000  0.4614850000000 1.0
C      1  0.4382520000000  0.5389660000000  0.5128730000000 1.0
C      1  0.4922890000000  0.4843880000000  0.5187780000000 1.0
C      1  0.5484720000000  0.5304540000000  0.4780060000000 1.0
C      1  0.4538530000000  0.4505340000000  0.5216650000000 1.0
C      1  0.5412230000000  0.4822570000000  0.5571780000000 1.0
C      1  0.5246390000000  0.4958780000000  0.4460710000000 1.0
C      1  0.5133230000000  0.5046510000000  0.5316850000000 1.0
C      1  0.5663740000000  0.4898200000000  0.4585890000000 1.0
C      1  0.5463760000000  0.4501440000000  0.4795630000000 1.0
C      1  0.4351880000000  0.5364660000000  0.5405440000000 1.0
C      1  0.4945870000000  0.4603760000000  0.4835220000000 1.0
C      1  0.4434020000000  0.5203300000000  0.4677650000000 1.0
C      1  0.5390820000000  0.5422150000000  0.5225970000000 1.0
C      1  0.5336560000000  0.4446960000000  0.4531990000000 1.0
C      1  0.5169950000000  0.4677840000000  0.4460280000000 1.0
C      1  0.5621990000000  0.5014510000000  0.5172940000000 1.0
C      1  0.5123780000000  0.5301440000000  0.5165080000000 1.0
C      1  0.4510820000000  0.4929290000000  0.4571080000000 1.0
C      1  0.4362660000000  0.4737810000000  0.5273250000000 1.0
C      1  0.5616790000000  0.5166340000000  0.4575000000000 1.0
C      1  0.4738200000000  0.4911900000000  0.4342550000000 1.0
C      1  0.4408480000000  0.4839600000000  0.5529840000000 1.0
C      1  0.4581260000000  0.5015550000000  0.5662690000000 1.0
C      1  0.4578620000000  0.4497150000000  0.4909510000000 1.0
C      1  0.5256550000000  0.5281690000000  0.5728000000000 1.0
C      1  0.5033820000000  0.5746360000000  0.5088880000000 1.0
C      1  0.5239920000000  0.4918920000000  0.4985860000000 1.0
C      1  0.5686710000000  0.4700420000000  0.4786470000000 1.0
C      1  0.5242030000000  0.4514890000000  0.5245760000000 1.0
C      1  0.4723250000000  0.4984760000000  0.5018210000000 1.0
C      1  0.5326930000000  0.5681580000000  0.5061410000000 1.0
C      1  0.4870150000000  0.5225260000000  0.4338590000000 1.0
C      1  0.4732330000000  0.4297620000000  0.4744620000000 1.0
C      1  0.4942690000000  0.4664560000000  0.5587990000000 1.0
C      1  0.5147690000000  0.4233350000000  0.4513390000000 1.0
C      1  0.4954460000000  0.5787000000000  0.4817190000000 1.0
C      1  0.5088050000000  0.5597400000000  0.4650410000000 1.0
C      1  0.5222750000000  0.4632290000000  0.5500060000000 1.0
C      1  0.5749810000000  0.4804390000000  0.5039360000000 1.0
C      1  0.5449440000000  0.5299850000000  0.5519370000000 1.0
C      1  0.4678680000000  0.5345130000000  0.4762820000000 1.0
C      1  0.5552860000000  0.5032280000000  0.5455160000000 1.0
C      1  0.5026890000000  0.5172390000000  0.5585220000000 1.0
C      1  0.4416160000000  0.4719070000000  0.4779010000000 1.0
C      1  0.4896070000000  0.5492050000000  0.5213680000000 1.0
C      1  0.4276610000000  0.5176380000000  0.4945460000000 1.0
C      1  0.4865840000000  0.4938600000000  0.5702760000000 1.0
C      1  0.5112700000000  0.5068100000000  0.4716030000000 1.0
END
