TITL C-3578199-7832-618 -2.50450368873966e-06 125000 -596.56285247478 0 0 94 (C1) n - 1
REM
REM in /home/bkarasulu/work/CARBON/AIRSS/Generating-Clusters/EDIP-Nigel-Params/with-SteepDescent/Higher-Symm/SD-CG/HFTN-CG
REM
REM
REM
REM
REM
REM ./C.cell (12c818d87b63d06a65506943cc24bca4)
REM
REM compiler GCC version 9.2.1 20190827 (Red Hat 9.2.1-1)
REM options -cpp -mtune=generic -march=x86-64 -g -O0 -fpre-include=/usr/include/finclude/math-vector-fortran.h
REM seed 487570728 -1716314762 2096993545 -2001266399 -1293105919 934670381 -1483131548 1902354449 -1818524244 -117681667 -1654247794 1238003389 59634387 1960186758 -801586882 -243740229 1927200906 -1870406914 672728622 -868583855 400185925 103649901 -1828050135 360539846 377384804 -225051593 -1669382568 1538911863 731877068 -2055997222 997477024 -206941322 -363536523
REM
CELL 1.54180   50.00000   50.00000   50.00000   90.00000   90.00000   90.00000
LATT -1
SFAC C  
C      1  0.5319130000000  0.4969900000000  0.5240330000000 1.0
C      1  0.5275190000000  0.4734820000000  0.5080090000000 1.0
C      1  0.5167270000000  0.4823360000000  0.4809970000000 1.0
C      1  0.5158870000000  0.5146070000000  0.4834810000000 1.0
C      1  0.5235120000000  0.5218680000000  0.5121390000000 1.0
C      1  0.4654020000000  0.5000580000000  0.5252500000000 1.0
C      1  0.4675210000000  0.4763630000000  0.5085610000000 1.0
C      1  0.4778170000000  0.4836310000000  0.4811750000000 1.0
C      1  0.4777270000000  0.5161300000000  0.4806620000000 1.0
C      1  0.4676290000000  0.5241670000000  0.5088540000000 1.0
C      1  0.5664320000000  0.5220980000000  0.5462600000000 1.0
C      1  0.5651670000000  0.4512840000000  0.5363540000000 1.0
C      1  0.5592230000000  0.4484700000000  0.4650060000000 1.0
C      1  0.5587280000000  0.5101430000000  0.4517230000000 1.0
C      1  0.5587660000000  0.5610000000000  0.5051030000000 1.0
C      1  0.4333370000000  0.5225550000000  0.5583370000000 1.0
C      1  0.4339130000000  0.4540650000000  0.5391490000000 1.0
C      1  0.4369060000000  0.4494370000000  0.4690980000000 1.0
C      1  0.4366810000000  0.5127750000000  0.4397720000000 1.0
C      1  0.4326430000000  0.5582570000000  0.4943680000000 1.0
C      1  0.5424160000000  0.5288150000000  0.4688940000000 1.0
C      1  0.5385220000000  0.5474680000000  0.5234620000000 1.0
C      1  0.5505510000000  0.4966880000000  0.5476640000000 1.0
C      1  0.5472200000000  0.4494970000000  0.5119650000000 1.0
C      1  0.5396990000000  0.4732930000000  0.4587020000000 1.0
C      1  0.4551120000000  0.5298890000000  0.4591550000000 1.0
C      1  0.4472930000000  0.5465030000000  0.5177120000000 1.0
C      1  0.4493270000000  0.4980630000000  0.5515720000000 1.0
C      1  0.4498630000000  0.4514440000000  0.5139610000000 1.0
C      1  0.4541410000000  0.4723320000000  0.4606250000000 1.0
C      1  0.4819850000000  0.5585650000000  0.5527800000000 1.0
C      1  0.4868620000000  0.4673450000000  0.5693820000000 1.0
C      1  0.4841960000000  0.4229470000000  0.4885230000000 1.0
C      1  0.4866560000000  0.4850190000000  0.4224960000000 1.0
C      1  0.4833080000000  0.5735430000000  0.4587780000000 1.0
C      1  0.5103140000000  0.5632710000000  0.5533640000000 1.0
C      1  0.5160340000000  0.4669320000000  0.5702910000000 1.0
C      1  0.5129620000000  0.4184460000000  0.4882550000000 1.0
C      1  0.5153650000000  0.4841910000000  0.4233610000000 1.0
C      1  0.5113240000000  0.5688380000000  0.4651120000000 1.0
C      1  0.4733790000000  0.4426470000000  0.5613980000000 1.0
C      1  0.4712720000000  0.4225630000000  0.4618170000000 1.0
C      1  0.4739130000000  0.5102020000000  0.4160960000000 1.0
C      1  0.4673880000000  0.5829230000000  0.4818470000000 1.0
C      1  0.4709250000000  0.5409310000000  0.5730840000000 1.0
C      1  0.5286850000000  0.4420580000000  0.5597430000000 1.0
C      1  0.5251870000000  0.4206660000000  0.4611970000000 1.0
C      1  0.5287550000000  0.5099070000000  0.4193390000000 1.0
C      1  0.5232910000000  0.5858200000000  0.4855400000000 1.0
C      1  0.5270190000000  0.5432120000000  0.5660470000000 1.0
C      1  0.5530900000000  0.4213040000000  0.4604360000000 1.0
C      1  0.5564560000000  0.5106260000000  0.4235940000000 1.0
C      1  0.5506900000000  0.5826890000000  0.4895210000000 1.0
C      1  0.5545620000000  0.5451880000000  0.5579830000000 1.0
C      1  0.5565240000000  0.4393300000000  0.5600910000000 1.0
C      1  0.4432730000000  0.4239790000000  0.4600060000000 1.0
C      1  0.4461780000000  0.5066510000000  0.4142960000000 1.0
C      1  0.4395680000000  0.5821180000000  0.4813880000000 1.0
C      1  0.4431650000000  0.5414930000000  0.5761180000000 1.0
C      1  0.4454750000000  0.4428400000000  0.5617780000000 1.0
C      1  0.5298270000000  0.4236460000000  0.5126340000000 1.0
C      1  0.5275650000000  0.4583590000000  0.4258880000000 1.0
C      1  0.5288350000000  0.5499720000000  0.4505300000000 1.0
C      1  0.5221940000000  0.5804900000000  0.5340930000000 1.0
C      1  0.5316320000000  0.4926120000000  0.5719720000000 1.0
C      1  0.4689760000000  0.4271420000000  0.5136770000000 1.0
C      1  0.4692990000000  0.4640060000000  0.4343860000000 1.0
C      1  0.4707060000000  0.5570780000000  0.4384660000000 1.0
C      1  0.4647910000000  0.5687280000000  0.5308790000000 1.0
C      1  0.4702720000000  0.4912370000000  0.5744000000000 1.0
C      1  0.5148600000000  0.5170250000000  0.5728910000000 1.0
C      1  0.5145850000000  0.4269300000000  0.5383010000000 1.0
C      1  0.5129800000000  0.4410160000000  0.4439650000000 1.0
C      1  0.5148090000000  0.5340650000000  0.4295540000000 1.0
C      1  0.5079580000000  0.5875430000000  0.5103570000000 1.0
C      1  0.4860900000000  0.5161410000000  0.5791450000000 1.0
C      1  0.4854640000000  0.4291660000000  0.5381830000000 1.0
C      1  0.4843650000000  0.4391450000000  0.4411080000000 1.0
C      1  0.4858530000000  0.5344770000000  0.4277800000000 1.0
C      1  0.4798500000000  0.5810020000000  0.5083110000000 1.0
C      1  0.4257630000000  0.4813970000000  0.5430510000000 1.0
C      1  0.4286530000000  0.4496360000000  0.4950510000000 1.0
C      1  0.4316220000000  0.4929490000000  0.4609100000000 1.0
C      1  0.4291730000000  0.5362590000000  0.4763370000000 1.0
C      1  0.4243750000000  0.5315240000000  0.5322600000000 1.0
C      1  0.5746460000000  0.4786140000000  0.5408450000000 1.0
C      1  0.5687470000000  0.4529330000000  0.4916030000000 1.0
C      1  0.5744970000000  0.4899730000000  0.4637190000000 1.0
C      1  0.5633360000000  0.5371830000000  0.4903730000000 1.0
C      1  0.5804350000000  0.5214610000000  0.5200480000000 1.0
C      1  0.4174840000000  0.5067340000000  0.5168820000000 1.0
C      1  0.5853560000000  0.4927570000000  0.5158220000000 1.0
C      1  0.4243660000000  0.5087230000000  0.4872960000000 1.0
C      1  0.5746670000000  0.4810980000000  0.4909620000000 1.0
END
