TITL C-3578206-1180-191 4.82422118066743e-07 125000 -138.490157480555 0 0 25 (S4) n - 1
REM
REM in /home/bkarasulu/work/CARBON/AIRSS/Generating-Clusters/EDIP-Nigel-Params/with-SteepDescent/Higher-Symm/SD-CG/HFTN-CG
REM
REM
REM
REM
REM
REM ./C.cell (12c818d87b63d06a65506943cc24bca4)
REM
REM compiler GCC version 9.2.1 20190827 (Red Hat 9.2.1-1)
REM options -cpp -mtune=generic -march=x86-64 -g -O0 -fpre-include=/usr/include/finclude/math-vector-fortran.h
REM seed -886323762 -269593031 269775452 179594228 1116906998 -934153760 434822640 1506109511 -784154334 -1548273807 -25771554 486277316 -1814636144 -1174284285 -922276414 -985500793 1941414296 1082951362 -1923826365 -1287059958 -1780586027 -450986368 -48095488 -300201471 942313701 -1630017109 -309333394 -870972966 271026456 -775385189 -2097627489 1696792917 -284865863
REM
CELL 1.54180   50.00000   50.00000   50.00000   90.00000   90.00000   90.00000
LATT -1
SFAC C  
C      1  0.4804980000000  0.5335550000000  0.4629520000000 1.0
C      1  0.4620750000000  0.4660540000000  0.5198080000000 1.0
C      1  0.5191040000000  0.5333820000000  0.5383310000000 1.0
C      1  0.5374540000000  0.4660920000000  0.4812010000000 1.0
C      1  0.5152040000000  0.5130800000000  0.5612970000000 1.0
C      1  0.5604730000000  0.4863290000000  0.4851310000000 1.0
C      1  0.4843760000000  0.5133430000000  0.4399030000000 1.0
C      1  0.4390790000000  0.4863320000000  0.5159590000000 1.0
C      1  0.4784580000000  0.5178040000000  0.5133860000000 1.0
C      1  0.5125500000000  0.4816730000000  0.5218700000000 1.0
C      1  0.5211270000000  0.5178330000000  0.4878330000000 1.0
C      1  0.4869970000000  0.4817740000000  0.4792020000000 1.0
C      1  0.4895910000000  0.5359950000000  0.5335390000000 1.0
C      1  0.5326560000000  0.4634470000000  0.5107100000000 1.0
C      1  0.5100140000000  0.5361180000000  0.4677540000000 1.0
C      1  0.4668710000000  0.4635240000000  0.4902880000000 1.0
C      1  0.4596180000000  0.5033150000000  0.5310130000000 1.0
C      1  0.5302140000000  0.4960880000000  0.5407320000000 1.0
C      1  0.5399510000000  0.5033960000000  0.4701470000000 1.0
C      1  0.4693480000000  0.4962840000000  0.4603990000000 1.0
C      1  0.5563500000000  0.4823730000000  0.5150800000000 1.0
C      1  0.5143350000000  0.5172160000000  0.4440320000000 1.0
C      1  0.4431980000000  0.4824930000000  0.4859940000000 1.0
C      1  0.4852490000000  0.5170010000000  0.5571840000000 1.0
C      1  0.4997830000000  0.4997710000000  0.5005730000000 1.0
END
