TITL C-3577077-324-311 -3.23649049925219e-07 125000 -599.259266028127 0 0 96 (C1) n - 1
REM
REM in /home/bkarasulu/work/CARBON/AIRSS/Generating-Clusters/EDIP-Nigel-Params/with-SteepDescent/Higher-Symm/SD-CG/HFTN-CG
REM
REM
REM
REM
REM
REM ./C.cell (12c818d87b63d06a65506943cc24bca4)
REM
REM compiler GCC version 9.2.1 20190827 (Red Hat 9.2.1-1)
REM options -cpp -mtune=generic -march=x86-64 -g -O0 -fpre-include=/usr/include/finclude/math-vector-fortran.h
REM seed 2139079079 1896918402 -74368543 -1353481850 -1521267264 421672535 -767275985 -1275078247 1725698229 -923849289 530755883 1411664946 -183538482 -656932065 12235407 814435103 1418943035 111633513 -1883574521 -183210554 -979935455 767854959 -1205476571 1558410197 962990999 138272519 588818908 -1081321817 -477026583 -1278806361 1297652706 -546134591 1249396029
REM
CELL 1.54180   50.00000   50.00000   50.00000   90.00000   90.00000   90.00000
LATT -1
SFAC C  
C      1  0.5663770000000  0.4719840000000  0.5262270000000 1.0
C      1  0.4679260000000  0.5289830000000  0.5633830000000 1.0
C      1  0.5313120000000  0.5679510000000  0.4671900000000 1.0
C      1  0.4299260000000  0.4708360000000  0.4720960000000 1.0
C      1  0.4232240000000  0.5201390000000  0.5364100000000 1.0
C      1  0.5808880000000  0.5355750000000  0.4771780000000 1.0
C      1  0.5251310000000  0.5254200000000  0.4382670000000 1.0
C      1  0.5267650000000  0.4752070000000  0.5618750000000 1.0
C      1  0.4687730000000  0.4722460000000  0.4402260000000 1.0
C      1  0.4753520000000  0.5633460000000  0.5251330000000 1.0
C      1  0.4727060000000  0.4369120000000  0.4721190000000 1.0
C      1  0.5289200000000  0.4407950000000  0.5247580000000 1.0
C      1  0.5672070000000  0.5254820000000  0.5308570000000 1.0
C      1  0.4727770000000  0.4728150000000  0.5611890000000 1.0
C      1  0.5284630000000  0.4374050000000  0.4711830000000 1.0
C      1  0.4279310000000  0.5302440000000  0.4713140000000 1.0
C      1  0.4319310000000  0.4653510000000  0.5268730000000 1.0
C      1  0.5709220000000  0.4703750000000  0.4697760000000 1.0
C      1  0.5291070000000  0.4713590000000  0.4368290000000 1.0
C      1  0.5298870000000  0.5288580000000  0.5642290000000 1.0
C      1  0.4713290000000  0.5259630000000  0.4411330000000 1.0
C      1  0.4713430000000  0.4361610000000  0.5261500000000 1.0
C      1  0.4727370000000  0.5619230000000  0.4734310000000 1.0
C      1  0.5304190000000  0.5658150000000  0.5293260000000 1.0
C      1  0.4371080000000  0.5063040000000  0.5587220000000 1.0
C      1  0.5144360000000  0.5546900000000  0.4444360000000 1.0
C      1  0.5595960000000  0.4433260000000  0.5144290000000 1.0
C      1  0.5559160000000  0.5122270000000  0.4389160000000 1.0
C      1  0.5567140000000  0.4834100000000  0.5559920000000 1.0
C      1  0.4386090000000  0.4844330000000  0.4437450000000 1.0
C      1  0.4844080000000  0.5555370000000  0.5543380000000 1.0
C      1  0.4836880000000  0.4435960000000  0.4435910000000 1.0
C      1  0.5163100000000  0.4472650000000  0.5529010000000 1.0
C      1  0.4424370000000  0.4417380000000  0.4824080000000 1.0
C      1  0.4465540000000  0.5575770000000  0.5130040000000 1.0
C      1  0.5609670000000  0.5562900000000  0.4911250000000 1.0
C      1  0.4423810000000  0.4773300000000  0.5551730000000 1.0
C      1  0.5154910000000  0.4432140000000  0.4423770000000 1.0
C      1  0.5606040000000  0.5554600000000  0.5224130000000 1.0
C      1  0.5595780000000  0.4812220000000  0.4376290000000 1.0
C      1  0.5594460000000  0.5145460000000  0.5595200000000 1.0
C      1  0.4412890000000  0.5157590000000  0.4464500000000 1.0
C      1  0.4851580000000  0.4455290000000  0.5534430000000 1.0
C      1  0.4828240000000  0.5552750000000  0.4452750000000 1.0
C      1  0.5157170000000  0.5562770000000  0.5557450000000 1.0
C      1  0.4425970000000  0.5591400000000  0.4819480000000 1.0
C      1  0.4409220000000  0.4368930000000  0.5135640000000 1.0
C      1  0.5585420000000  0.4441350000000  0.4828660000000 1.0
C      1  0.4833770000000  0.5152800000000  0.5863750000000 1.0
C      1  0.5168300000000  0.5900540000000  0.4822870000000 1.0
C      1  0.5921750000000  0.4828290000000  0.5157280000000 1.0
C      1  0.5126950000000  0.5155610000000  0.4128840000000 1.0
C      1  0.5150850000000  0.4846600000000  0.5883770000000 1.0
C      1  0.4818200000000  0.4844970000000  0.4158580000000 1.0
C      1  0.4872860000000  0.5889060000000  0.5149440000000 1.0
C      1  0.4854690000000  0.4119630000000  0.4834560000000 1.0
C      1  0.5169370000000  0.4149090000000  0.5139630000000 1.0
C      1  0.4039820000000  0.4802460000000  0.4847790000000 1.0
C      1  0.4009510000000  0.5066010000000  0.5199870000000 1.0
C      1  0.5997850000000  0.5187480000000  0.4914420000000 1.0
C      1  0.4834650000000  0.4843400000000  0.5873220000000 1.0
C      1  0.5169080000000  0.4126170000000  0.4831770000000 1.0
C      1  0.5931060000000  0.5125020000000  0.5195180000000 1.0
C      1  0.5132980000000  0.4844010000000  0.4138010000000 1.0
C      1  0.5144420000000  0.5157810000000  0.5876010000000 1.0
C      1  0.4816440000000  0.5149290000000  0.4151390000000 1.0
C      1  0.4860620000000  0.4128030000000  0.5144200000000 1.0
C      1  0.4862950000000  0.5873160000000  0.4847310000000 1.0
C      1  0.5182600000000  0.5904890000000  0.5151250000000 1.0
C      1  0.4008650000000  0.5108980000000  0.4880750000000 1.0
C      1  0.4053210000000  0.4765760000000  0.5154650000000 1.0
C      1  0.5949250000000  0.4820640000000  0.4857990000000 1.0
C      1  0.5133560000000  0.5105810000000  0.4609070000000 1.0
C      1  0.5224750000000  0.4661570000000  0.5093840000000 1.0
C      1  0.4456040000000  0.5277210000000  0.5182900000000 1.0
C      1  0.4727220000000  0.5174440000000  0.5347520000000 1.0
C      1  0.4744850000000  0.4857090000000  0.4698040000000 1.0
C      1  0.5125390000000  0.4923110000000  0.5430050000000 1.0
C      1  0.4858990000000  0.4614070000000  0.4844120000000 1.0
C      1  0.4901960000000  0.5392450000000  0.5132010000000 1.0
C      1  0.5330900000000  0.5429260000000  0.4832800000000 1.0
C      1  0.5568880000000  0.5186520000000  0.4686860000000 1.0
C      1  0.5455120000000  0.4855290000000  0.5091870000000 1.0
C      1  0.4495820000000  0.4886120000000  0.4865040000000 1.0
C      1  0.5250010000000  0.4844590000000  0.4652320000000 1.0
C      1  0.5183500000000  0.5465530000000  0.5100750000000 1.0
C      1  0.4536940000000  0.4785460000000  0.5123040000000 1.0
C      1  0.4853310000000  0.4898560000000  0.5397900000000 1.0
C      1  0.4858440000000  0.5140290000000  0.4657900000000 1.0
C      1  0.5211800000000  0.5179500000000  0.5364910000000 1.0
C      1  0.4825850000000  0.5368120000000  0.4856200000000 1.0
C      1  0.4785790000000  0.4630960000000  0.5132850000000 1.0
C      1  0.5144330000000  0.4620250000000  0.4827040000000 1.0
C      1  0.5511590000000  0.4906310000000  0.4802010000000 1.0
C      1  0.5437300000000  0.5123760000000  0.5186160000000 1.0
C      1  0.4441380000000  0.5160820000000  0.4910590000000 1.0
END
