TITL C-3578200-9634-395 -6.91658026153095e-07 125000 -1150.34098532896 0 0 186 (C1) n - 1
REM
REM in /home/bkarasulu/work/CARBON/AIRSS/Generating-Clusters/EDIP-Nigel-Params/with-SteepDescent/Higher-Symm/SD-CG/HFTN-CG
REM
REM
REM
REM
REM
REM ./C.cell (12c818d87b63d06a65506943cc24bca4)
REM
REM compiler GCC version 9.2.1 20190827 (Red Hat 9.2.1-1)
REM options -cpp -mtune=generic -march=x86-64 -g -O0 -fpre-include=/usr/include/finclude/math-vector-fortran.h
REM seed -441383951 363796992 1019593055 295464189 -2037041876 -395320467 -969365006 -390835746 -1523571253 285022990 2093133363 1203370256 655068410 1797857254 -1608286742 -2086409580 -300966107 971641545 1274129989 924251427 -144147666 768345117 -1643789963 -901491807 2107908313 -1088781712 -269132837 240120458 2095184204 -1950823665 -85306100 947317784 -106900535
REM
CELL 1.54180   50.00000   50.00000   50.00000   90.00000   90.00000   90.00000
LATT -1
SFAC C  
C      1  0.5609020000000  0.4602730000000  0.4713410000000 1.0
C      1  0.4423130000000  0.5422630000000  0.4708940000000 1.0
C      1  0.4430900000000  0.4587780000000  0.4699140000000 1.0
C      1  0.5608100000000  0.5381500000000  0.4712930000000 1.0
C      1  0.4054870000000  0.5298690000000  0.4692450000000 1.0
C      1  0.5976880000000  0.4709500000000  0.4704540000000 1.0
C      1  0.5991180000000  0.5297990000000  0.4695820000000 1.0
C      1  0.4058730000000  0.4695090000000  0.4686520000000 1.0
C      1  0.6171760000000  0.5233810000000  0.5191380000000 1.0
C      1  0.3838230000000  0.4763130000000  0.5172300000000 1.0
C      1  0.3803120000000  0.5256720000000  0.5184950000000 1.0
C      1  0.6205820000000  0.4745500000000  0.5203020000000 1.0
C      1  0.5152090000000  0.5161770000000  0.5621080000000 1.0
C      1  0.4847590000000  0.4838430000000  0.5618320000000 1.0
C      1  0.4844060000000  0.5158300000000  0.5618220000000 1.0
C      1  0.5156080000000  0.4842160000000  0.5621150000000 1.0
C      1  0.5489250000000  0.4656500000000  0.4978600000000 1.0
C      1  0.4524660000000  0.5351260000000  0.4975540000000 1.0
C      1  0.4529670000000  0.4649240000000  0.4970180000000 1.0
C      1  0.5476640000000  0.5340250000000  0.4970840000000 1.0
C      1  0.3899850000000  0.4285210000000  0.4923050000000 1.0
C      1  0.6111530000000  0.5717850000000  0.4927280000000 1.0
C      1  0.6108270000000  0.4281710000000  0.4920810000000 1.0
C      1  0.3896360000000  0.5716020000000  0.4919780000000 1.0
C      1  0.5274760000000  0.4869860000000  0.3938620000000 1.0
C      1  0.4675270000000  0.5138110000000  0.4032780000000 1.0
C      1  0.4737620000000  0.4877320000000  0.3977630000000 1.0
C      1  0.5245600000000  0.5134900000000  0.3912800000000 1.0
C      1  0.3815110000000  0.5138060000000  0.5460630000000 1.0
C      1  0.6188320000000  0.4860430000000  0.5480190000000 1.0
C      1  0.6056950000000  0.5104270000000  0.5425680000000 1.0
C      1  0.3947760000000  0.4895000000000  0.5408510000000 1.0
C      1  0.5138560000000  0.5292180000000  0.4687350000000 1.0
C      1  0.4854170000000  0.4714210000000  0.4683420000000 1.0
C      1  0.4840830000000  0.5286870000000  0.4675760000000 1.0
C      1  0.5154920000000  0.4692930000000  0.4695430000000 1.0
C      1  0.5163340000000  0.4848420000000  0.5105280000000 1.0
C      1  0.4843410000000  0.5154250000000  0.5094170000000 1.0
C      1  0.4847180000000  0.4843500000000  0.5098460000000 1.0
C      1  0.5160130000000  0.5154460000000  0.5104220000000 1.0
C      1  0.5655340000000  0.4855220000000  0.5876990000000 1.0
C      1  0.4341200000000  0.5145810000000  0.5868560000000 1.0
C      1  0.4346880000000  0.4845570000000  0.5871490000000 1.0
C      1  0.5648990000000  0.5155500000000  0.5878950000000 1.0
C      1  0.5150260000000  0.4646310000000  0.4044010000000 1.0
C      1  0.4836850000000  0.5369070000000  0.4050920000000 1.0
C      1  0.4864290000000  0.4639980000000  0.4037000000000 1.0
C      1  0.5122550000000  0.5365820000000  0.4005430000000 1.0
C      1  0.4440460000000  0.5196500000000  0.4498650000000 1.0
C      1  0.5526030000000  0.4782850000000  0.4472460000000 1.0
C      1  0.5548250000000  0.5170380000000  0.4494610000000 1.0
C      1  0.4473050000000  0.4805060000000  0.4478420000000 1.0
C      1  0.4700470000000  0.5605680000000  0.4142130000000 1.0
C      1  0.5294190000000  0.4415090000000  0.4138430000000 1.0
C      1  0.5276260000000  0.5578470000000  0.4129840000000 1.0
C      1  0.4716360000000  0.4416380000000  0.4145760000000 1.0
C      1  0.4529400000000  0.6047370000000  0.5351090000000 1.0
C      1  0.5473370000000  0.3965050000000  0.5343660000000 1.0
C      1  0.5470440000000  0.6038470000000  0.5332820000000 1.0
C      1  0.4532280000000  0.3948170000000  0.5347210000000 1.0
C      1  0.5992780000000  0.4423410000000  0.5148700000000 1.0
C      1  0.4020960000000  0.5576500000000  0.5141940000000 1.0
C      1  0.4029080000000  0.4426190000000  0.5142510000000 1.0
C      1  0.5987200000000  0.5572900000000  0.5150410000000 1.0
C      1  0.5680610000000  0.5290650000000  0.4252370000000 1.0
C      1  0.4278880000000  0.4747900000000  0.4253800000000 1.0
C      1  0.4251730000000  0.5269150000000  0.4274070000000 1.0
C      1  0.5739640000000  0.4749840000000  0.4261360000000 1.0
C      1  0.5734970000000  0.5667210000000  0.4669830000000 1.0
C      1  0.4277360000000  0.4308200000000  0.4672000000000 1.0
C      1  0.4274520000000  0.5701500000000  0.4680280000000 1.0
C      1  0.5721590000000  0.4309640000000  0.4681210000000 1.0
C      1  0.5705610000000  0.4756110000000  0.5135850000000 1.0
C      1  0.4304900000000  0.5241120000000  0.5123720000000 1.0
C      1  0.4313240000000  0.4761400000000  0.5117200000000 1.0
C      1  0.5694570000000  0.5244800000000  0.5126550000000 1.0
C      1  0.5604600000000  0.4206000000000  0.4428060000000 1.0
C      1  0.4388970000000  0.5813040000000  0.4428690000000 1.0
C      1  0.4392780000000  0.4200680000000  0.4418630000000 1.0
C      1  0.5607260000000  0.5774230000000  0.4419900000000 1.0
C      1  0.5334480000000  0.4094570000000  0.4488730000000 1.0
C      1  0.4662820000000  0.5917310000000  0.4493430000000 1.0
C      1  0.4664530000000  0.4090160000000  0.4485850000000 1.0
C      1  0.5338000000000  0.5893570000000  0.4481010000000 1.0
C      1  0.4612500000000  0.4818170000000  0.5996620000000 1.0
C      1  0.5382620000000  0.5183110000000  0.6001720000000 1.0
C      1  0.5387930000000  0.4818910000000  0.6001200000000 1.0
C      1  0.4607370000000  0.5182000000000  0.5995510000000 1.0
C      1  0.5271620000000  0.5263420000000  0.5369600000000 1.0
C      1  0.4731030000000  0.4736600000000  0.5364780000000 1.0
C      1  0.4727190000000  0.5260040000000  0.5363950000000 1.0
C      1  0.5277670000000  0.4740720000000  0.5369520000000 1.0
C      1  0.4736540000000  0.5756980000000  0.4898910000000 1.0
C      1  0.5253820000000  0.4242540000000  0.4897460000000 1.0
C      1  0.5250480000000  0.5752530000000  0.4889910000000 1.0
C      1  0.4735130000000  0.4241050000000  0.4896170000000 1.0
C      1  0.6030090000000  0.5600990000000  0.4676180000000 1.0
C      1  0.3987250000000  0.4396350000000  0.4673610000000 1.0
C      1  0.3991610000000  0.5599320000000  0.4675490000000 1.0
C      1  0.6005630000000  0.4404570000000  0.4681300000000 1.0
C      1  0.5197240000000  0.3989220000000  0.5432680000000 1.0
C      1  0.4805970000000  0.6011150000000  0.5434680000000 1.0
C      1  0.4808090000000  0.3986450000000  0.5432930000000 1.0
C      1  0.5194980000000  0.6013460000000  0.5424290000000 1.0
C      1  0.4302970000000  0.5704860000000  0.5178390000000 1.0
C      1  0.5699840000000  0.4312160000000  0.5177720000000 1.0
C      1  0.5695040000000  0.5687710000000  0.5173760000000 1.0
C      1  0.4307180000000  0.4292920000000  0.5177670000000 1.0
C      1  0.4808320000000  0.4639740000000  0.5846810000000 1.0
C      1  0.5188480000000  0.5361830000000  0.5849210000000 1.0
C      1  0.5191990000000  0.4643110000000  0.5849260000000 1.0
C      1  0.4804850000000  0.5357320000000  0.5845730000000 1.0
C      1  0.4850500000000  0.5810860000000  0.4279230000000 1.0
C      1  0.5150830000000  0.4201740000000  0.4274190000000 1.0
C      1  0.5145920000000  0.5797860000000  0.4269290000000 1.0
C      1  0.4855710000000  0.4200360000000  0.4276390000000 1.0
C      1  0.4432170000000  0.4417310000000  0.4218160000000 1.0
C      1  0.5565820000000  0.5565560000000  0.4203780000000 1.0
C      1  0.5571610000000  0.4421290000000  0.4228790000000 1.0
C      1  0.4420830000000  0.5599480000000  0.4228630000000 1.0
C      1  0.5180200000000  0.4430630000000  0.5390240000000 1.0
C      1  0.4817870000000  0.5569310000000  0.5389080000000 1.0
C      1  0.4820290000000  0.4428910000000  0.5388830000000 1.0
C      1  0.5177220000000  0.5571120000000  0.5388130000000 1.0
C      1  0.4830040000000  0.4394460000000  0.4665590000000 1.0
C      1  0.5143190000000  0.5603860000000  0.4659690000000 1.0
C      1  0.5145800000000  0.4388300000000  0.4668110000000 1.0
C      1  0.4825810000000  0.5605040000000  0.4662740000000 1.0
C      1  0.6118760000000  0.5545310000000  0.5415670000000 1.0
C      1  0.3887660000000  0.4454420000000  0.5401400000000 1.0
C      1  0.3878480000000  0.5571540000000  0.5397520000000 1.0
C      1  0.6128300000000  0.4427380000000  0.5409160000000 1.0
C      1  0.4332740000000  0.4165500000000  0.5447840000000 1.0
C      1  0.5665430000000  0.5823780000000  0.5439520000000 1.0
C      1  0.5669110000000  0.4182540000000  0.5445920000000 1.0
C      1  0.4329430000000  0.5828680000000  0.5449880000000 1.0
C      1  0.5586960000000  0.4838790000000  0.5391820000000 1.0
C      1  0.4417820000000  0.5161750000000  0.5384040000000 1.0
C      1  0.4423640000000  0.4832330000000  0.5383870000000 1.0
C      1  0.5580320000000  0.5169600000000  0.5390460000000 1.0
C      1  0.5527090000000  0.3918370000000  0.5034290000000 1.0
C      1  0.4477100000000  0.6093340000000  0.5039520000000 1.0
C      1  0.4477390000000  0.3904120000000  0.5034180000000 1.0
C      1  0.5526560000000  0.6076540000000  0.5021740000000 1.0
C      1  0.5954660000000  0.5157790000000  0.4991390000000 1.0
C      1  0.4058120000000  0.4843600000000  0.4975700000000 1.0
C      1  0.4046190000000  0.5160850000000  0.4987290000000 1.0
C      1  0.5966120000000  0.4842380000000  0.5004310000000 1.0
C      1  0.4410790000000  0.5608490000000  0.5650120000000 1.0
C      1  0.5587610000000  0.4394460000000  0.5653210000000 1.0
C      1  0.5583670000000  0.5618080000000  0.5653570000000 1.0
C      1  0.4414640000000  0.4381010000000  0.5653030000000 1.0
C      1  0.4250250000000  0.5905240000000  0.4953260000000 1.0
C      1  0.5749780000000  0.4111610000000  0.4950160000000 1.0
C      1  0.5750140000000  0.5880770000000  0.4939640000000 1.0
C      1  0.4253150000000  0.4095190000000  0.4950660000000 1.0
C      1  0.6014920000000  0.5334880000000  0.5592900000000 1.0
C      1  0.3985860000000  0.4666450000000  0.5578840000000 1.0
C      1  0.3964720000000  0.5360730000000  0.5584020000000 1.0
C      1  0.6036400000000  0.4636230000000  0.5597210000000 1.0
C      1  0.5393310000000  0.5598520000000  0.5102210000000 1.0
C      1  0.4598120000000  0.4395030000000  0.5109970000000 1.0
C      1  0.4596990000000  0.5604810000000  0.5112710000000 1.0
C      1  0.5396000000000  0.4400060000000  0.5108560000000 1.0
C      1  0.5712840000000  0.5328560000000  0.5635630000000 1.0
C      1  0.4286640000000  0.4672100000000  0.5627750000000 1.0
C      1  0.4275710000000  0.5318790000000  0.5622350000000 1.0
C      1  0.5724320000000  0.4681890000000  0.5631620000000 1.0
C      1  0.5257040000000  0.5133990000000  0.4477550000000 1.0
C      1  0.4784830000000  0.4848870000000  0.4413680000000 1.0
C      1  0.4731630000000  0.5156210000000  0.4418920000000 1.0
C      1  0.5176220000000  0.4846530000000  0.4434600000000 1.0
C      1  0.5976760000000  0.5152280000000  0.4430480000000 1.0
C      1  0.4037120000000  0.4841320000000  0.4415370000000 1.0
C      1  0.4012140000000  0.5146770000000  0.4419830000000 1.0
C      1  0.5962990000000  0.4856910000000  0.4431680000000 1.0
C      1  0.5308230000000  0.6027520000000  0.4837490000000 1.0
C      1  0.4690800000000  0.3963310000000  0.4846770000000 1.0
C      1  0.4694000000000  0.6036500000000  0.4855420000000 1.0
C      1  0.5309100000000  0.3966600000000  0.4849030000000 1.0
C      1  0.5290610000000  0.5601690000000  0.5678180000000 1.0
C      1  0.4707520000000  0.4398610000000  0.5677790000000 1.0
C      1  0.4703150000000  0.5596080000000  0.5677440000000 1.0
C      1  0.5295160000000  0.4405250000000  0.5680040000000 1.0
C      1  0.5002020000000  0.4049060000000  0.5249040000000 1.0
C      1  0.4996020000000  0.5950310000000  0.5245960000000 1.0
END
