TITL C-3578195-8548-649 -4.55929357142891e-07 125000 -89.0766392940928 0 0 16 (C1) n - 1
REM
REM in /home/bkarasulu/work/CARBON/AIRSS/Generating-Clusters/EDIP-Nigel-Params/with-SteepDescent/Higher-Symm/SD-CG/HFTN-CG
REM
REM
REM
REM
REM
REM ./C.cell (12c818d87b63d06a65506943cc24bca4)
REM
REM compiler GCC version 9.2.1 20190827 (Red Hat 9.2.1-1)
REM options -cpp -mtune=generic -march=x86-64 -g -O0 -fpre-include=/usr/include/finclude/math-vector-fortran.h
REM seed 1704158413 2105926818 -806437755 1237606016 1535961439 1947326571 1317471310 -1224963946 -920388087 1986901049 -194074547 -1631351805 529456578 -1760488829 -2077432899 -923430979 -139045360 4620917 1687283755 1602238461 745499873 1775948811 -668474142 1521599375 518502607 -1282701208 519720098 1778830872 -829095438 780389066 -143604099 491849683 744743816
REM
CELL 1.54180   50.00000   50.00000   50.00000   90.00000   90.00000   90.00000
LATT -1
SFAC C  
C      1  0.5137490000000  0.5385410000000  0.5132330000000 1.0
C      1  0.5196660000000  0.5323370000000  0.4668580000000 1.0
C      1  0.5225790000000  0.4827150000000  0.4676880000000 1.0
C      1  0.5025990000000  0.4564650000000  0.5096930000000 1.0
C      1  0.5229560000000  0.4957590000000  0.5321260000000 1.0
C      1  0.4821150000000  0.5164500000000  0.5406300000000 1.0
C      1  0.4781930000000  0.5330140000000  0.4862600000000 1.0
C      1  0.4868390000000  0.4968040000000  0.4742470000000 1.0
C      1  0.4857540000000  0.4550840000000  0.4875790000000 1.0
C      1  0.4753990000000  0.4893480000000  0.5351120000000 1.0
C      1  0.5046480000000  0.5442340000000  0.4873590000000 1.0
C      1  0.5010620000000  0.4780570000000  0.5285250000000 1.0
C      1  0.5107980000000  0.5070500000000  0.4583790000000 1.0
C      1  0.5082750000000  0.4587150000000  0.4715540000000 1.0
C      1  0.5101650000000  0.5210370000000  0.5348460000000 1.0
C      1  0.4826950000000  0.5090420000000  0.5026030000000 1.0
END
