TITL C-3577085-527-368 -3.32983989045276e-06 125000 -942.68728318705 0 0 150 (C1) n - 1
REM
REM in /home/bkarasulu/work/CARBON/AIRSS/Generating-Clusters/EDIP-Nigel-Params/with-SteepDescent/Higher-Symm/SD-CG/HFTN-CG
REM
REM
REM
REM
REM
REM ./C.cell (12c818d87b63d06a65506943cc24bca4)
REM
REM compiler GCC version 9.2.1 20190827 (Red Hat 9.2.1-1)
REM options -cpp -mtune=generic -march=x86-64 -g -O0 -fpre-include=/usr/include/finclude/math-vector-fortran.h
REM seed -1767003400 -1824278943 -1698765560 -39958928 2002736185 -2020016938 -940945815 1336579444 -2004236411 -201232701 -460883333 1976969178 715924387 598984472 936007448 -1104293280 1722320318 709097559 400331570 118106347 -1229531659 -1393688897 -1106204098 -466805804 -283543856 2049208324 -689253179 -754502369 1559207348 982109559 1216631197 636251370 532807095
REM
CELL 1.54180   50.00000   50.00000   50.00000   90.00000   90.00000   90.00000
LATT -1
SFAC C  
C      1  0.4778460000000  0.5549830000000  0.5008870000000 1.0
C      1  0.4742020000000  0.4391860000000  0.5053160000000 1.0
C      1  0.5988120000000  0.4835110000000  0.4513950000000 1.0
C      1  0.6024360000000  0.5123350000000  0.4556580000000 1.0
C      1  0.5030860000000  0.4037650000000  0.5399000000000 1.0
C      1  0.5009430000000  0.5950220000000  0.5373800000000 1.0
C      1  0.4389860000000  0.5132630000000  0.5510710000000 1.0
C      1  0.4385920000000  0.4845340000000  0.5516920000000 1.0
C      1  0.5496700000000  0.5155350000000  0.3982710000000 1.0
C      1  0.5477020000000  0.4867770000000  0.3989860000000 1.0
C      1  0.5939820000000  0.4738550000000  0.5130110000000 1.0
C      1  0.6102790000000  0.5410510000000  0.5150840000000 1.0
C      1  0.4749540000000  0.4076750000000  0.4589860000000 1.0
C      1  0.4806630000000  0.5887970000000  0.4629690000000 1.0
C      1  0.5212170000000  0.4759810000000  0.4006360000000 1.0
C      1  0.5251880000000  0.5307540000000  0.3994720000000 1.0
C      1  0.4215100000000  0.4320030000000  0.4820920000000 1.0
C      1  0.4271330000000  0.5688050000000  0.4810750000000 1.0
C      1  0.5640260000000  0.5141440000000  0.5947420000000 1.0
C      1  0.5649900000000  0.4874360000000  0.5949260000000 1.0
C      1  0.5558980000000  0.5509260000000  0.5607590000000 1.0
C      1  0.5580470000000  0.4460380000000  0.5660900000000 1.0
C      1  0.4509470000000  0.4454660000000  0.5710190000000 1.0
C      1  0.4505750000000  0.5533700000000  0.5689220000000 1.0
C      1  0.5693170000000  0.5268540000000  0.4157400000000 1.0
C      1  0.5639180000000  0.4732610000000  0.4185540000000 1.0
C      1  0.6081400000000  0.4921450000000  0.5354730000000 1.0
C      1  0.6187350000000  0.5174710000000  0.5279860000000 1.0
C      1  0.5718100000000  0.5650720000000  0.4977680000000 1.0
C      1  0.5665510000000  0.4379230000000  0.4984700000000 1.0
C      1  0.4262500000000  0.4848870000000  0.4401620000000 1.0
C      1  0.4204330000000  0.5143700000000  0.4408030000000 1.0
C      1  0.5022290000000  0.4906960000000  0.4574570000000 1.0
C      1  0.5055120000000  0.5185240000000  0.4537150000000 1.0
C      1  0.4960200000000  0.4044760000000  0.4795320000000 1.0
C      1  0.5001540000000  0.5935130000000  0.4843430000000 1.0
C      1  0.5220140000000  0.5409540000000  0.5927230000000 1.0
C      1  0.5229720000000  0.4608320000000  0.5937620000000 1.0
C      1  0.5364350000000  0.5150650000000  0.4932540000000 1.0
C      1  0.5345900000000  0.4819480000000  0.4942830000000 1.0
C      1  0.5822030000000  0.5260250000000  0.4714980000000 1.0
C      1  0.5761360000000  0.4734250000000  0.4666640000000 1.0
C      1  0.5060370000000  0.4812680000000  0.6041720000000 1.0
C      1  0.5059700000000  0.5196280000000  0.6032750000000 1.0
C      1  0.5342710000000  0.4314160000000  0.5614690000000 1.0
C      1  0.5326050000000  0.5662940000000  0.5565950000000 1.0
C      1  0.5103220000000  0.5548730000000  0.5077100000000 1.0
C      1  0.5144260000000  0.4354290000000  0.5121740000000 1.0
C      1  0.4346250000000  0.4658860000000  0.4208830000000 1.0
C      1  0.4380920000000  0.5319210000000  0.4242660000000 1.0
C      1  0.4671670000000  0.5446750000000  0.4712110000000 1.0
C      1  0.4700990000000  0.4439680000000  0.4750600000000 1.0
C      1  0.4902900000000  0.5822060000000  0.5617460000000 1.0
C      1  0.4910710000000  0.4200270000000  0.5610930000000 1.0
C      1  0.4703420000000  0.5660760000000  0.4216160000000 1.0
C      1  0.4609370000000  0.4255440000000  0.4166270000000 1.0
C      1  0.5085040000000  0.5579810000000  0.5706270000000 1.0
C      1  0.5097550000000  0.4406880000000  0.5743230000000 1.0
C      1  0.4614270000000  0.4617750000000  0.5181050000000 1.0
C      1  0.4639650000000  0.5344670000000  0.5172950000000 1.0
C      1  0.4037430000000  0.4764000000000  0.4935670000000 1.0
C      1  0.4057180000000  0.5023460000000  0.4842060000000 1.0
C      1  0.5206640000000  0.4454190000000  0.4604630000000 1.0
C      1  0.5320600000000  0.5588340000000  0.4611270000000 1.0
C      1  0.4171430000000  0.5237230000000  0.5689880000000 1.0
C      1  0.4169040000000  0.4741090000000  0.5702770000000 1.0
C      1  0.5280500000000  0.5294240000000  0.4674520000000 1.0
C      1  0.5229250000000  0.4742230000000  0.4683580000000 1.0
C      1  0.5606490000000  0.5545420000000  0.4223080000000 1.0
C      1  0.5496910000000  0.4469820000000  0.4233180000000 1.0
C      1  0.5465390000000  0.5972700000000  0.5220750000000 1.0
C      1  0.5502520000000  0.4004580000000  0.5254720000000 1.0
C      1  0.4736850000000  0.4781140000000  0.3948540000000 1.0
C      1  0.4750850000000  0.5309620000000  0.3948300000000 1.0
C      1  0.5246440000000  0.5746460000000  0.4862690000000 1.0
C      1  0.5106770000000  0.4288840000000  0.4829180000000 1.0
C      1  0.4011390000000  0.4520230000000  0.4790450000000 1.0
C      1  0.4089300000000  0.5489000000000  0.4744300000000 1.0
C      1  0.4617160000000  0.4649250000000  0.5474660000000 1.0
C      1  0.4622630000000  0.5332600000000  0.5466660000000 1.0
C      1  0.4582400000000  0.4678900000000  0.5947090000000 1.0
C      1  0.4580250000000  0.5314500000000  0.5934880000000 1.0
C      1  0.5679440000000  0.5139140000000  0.4954330000000 1.0
C      1  0.5714920000000  0.4837830000000  0.4938080000000 1.0
C      1  0.4502270000000  0.5676780000000  0.4619240000000 1.0
C      1  0.4445230000000  0.4319220000000  0.4614680000000 1.0
C      1  0.4824770000000  0.4220160000000  0.4341350000000 1.0
C      1  0.4902640000000  0.5790250000000  0.4372430000000 1.0
C      1  0.4490080000000  0.5217000000000  0.4771010000000 1.0
C      1  0.4612080000000  0.4725090000000  0.4725900000000 1.0
C      1  0.4192570000000  0.5896660000000  0.5364810000000 1.0
C      1  0.4226650000000  0.4063270000000  0.5388110000000 1.0
C      1  0.5919910000000  0.4834580000000  0.4225860000000 1.0
C      1  0.5946460000000  0.5130820000000  0.4186700000000 1.0
C      1  0.4377510000000  0.5685890000000  0.5090820000000 1.0
C      1  0.4315550000000  0.4303500000000  0.5105840000000 1.0
C      1  0.5474530000000  0.4177970000000  0.5039900000000 1.0
C      1  0.5509680000000  0.5854840000000  0.4971740000000 1.0
C      1  0.5203730000000  0.4665060000000  0.5167120000000 1.0
C      1  0.5210540000000  0.5275840000000  0.5154730000000 1.0
C      1  0.4439050000000  0.5607060000000  0.4326900000000 1.0
C      1  0.4416550000000  0.4394760000000  0.4313430000000 1.0
C      1  0.4612120000000  0.5811530000000  0.5624900000000 1.0
C      1  0.4630190000000  0.4185580000000  0.5661290000000 1.0
C      1  0.5314540000000  0.5569660000000  0.4124330000000 1.0
C      1  0.5208080000000  0.4499350000000  0.4136070000000 1.0
C      1  0.4659650000000  0.4878470000000  0.4210250000000 1.0
C      1  0.4659350000000  0.5205580000000  0.4207570000000 1.0
C      1  0.5086360000000  0.4832130000000  0.5381080000000 1.0
C      1  0.5076600000000  0.5121000000000  0.5367550000000 1.0
C      1  0.5779220000000  0.5216600000000  0.5231160000000 1.0
C      1  0.5804440000000  0.4979410000000  0.5402870000000 1.0
C      1  0.4828970000000  0.5151770000000  0.5850720000000 1.0
C      1  0.4829820000000  0.4839440000000  0.5857130000000 1.0
C      1  0.4906620000000  0.4014970000000  0.5112030000000 1.0
C      1  0.4861820000000  0.5917760000000  0.5115070000000 1.0
C      1  0.5003370000000  0.4464690000000  0.4366670000000 1.0
C      1  0.5156050000000  0.5643320000000  0.4367610000000 1.0
C      1  0.5603130000000  0.5648070000000  0.4511980000000 1.0
C      1  0.5483490000000  0.4356860000000  0.4510870000000 1.0
C      1  0.4820520000000  0.4741250000000  0.4446750000000 1.0
C      1  0.4830800000000  0.5365910000000  0.4439630000000 1.0
C      1  0.4118240000000  0.4323500000000  0.5431070000000 1.0
C      1  0.4140350000000  0.5621010000000  0.5378230000000 1.0
C      1  0.4306820000000  0.4723660000000  0.4662040000000 1.0
C      1  0.4199900000000  0.5226190000000  0.4695060000000 1.0
C      1  0.4208540000000  0.5524340000000  0.5641730000000 1.0
C      1  0.4206950000000  0.4447460000000  0.5675820000000 1.0
C      1  0.4320940000000  0.4838080000000  0.5955470000000 1.0
C      1  0.4319850000000  0.5155130000000  0.5948200000000 1.0
C      1  0.4905270000000  0.4707100000000  0.5584390000000 1.0
C      1  0.4904240000000  0.5266180000000  0.5571930000000 1.0
C      1  0.5792480000000  0.5566120000000  0.5460590000000 1.0
C      1  0.5782630000000  0.4441550000000  0.5471360000000 1.0
C      1  0.5254960000000  0.5804910000000  0.5326050000000 1.0
C      1  0.5308600000000  0.4094630000000  0.5437000000000 1.0
C      1  0.5805980000000  0.5553000000000  0.4712520000000 1.0
C      1  0.5705260000000  0.4448950000000  0.4696500000000 1.0
C      1  0.5909690000000  0.5625440000000  0.5206000000000 1.0
C      1  0.5841690000000  0.4474210000000  0.5201070000000 1.0
C      1  0.4587190000000  0.4116480000000  0.5136800000000 1.0
C      1  0.4569500000000  0.5920330000000  0.5133140000000 1.0
C      1  0.4488670000000  0.4005860000000  0.5487390000000 1.0
C      1  0.4470030000000  0.5978110000000  0.5409290000000 1.0
C      1  0.4647610000000  0.4843140000000  0.5002460000000 1.0
C      1  0.4531020000000  0.5109730000000  0.5031710000000 1.0
C      1  0.5498610000000  0.4667820000000  0.5845210000000 1.0
C      1  0.5497490000000  0.5356580000000  0.5846610000000 1.0
C      1  0.4983520000000  0.4899380000000  0.3908450000000 1.0
C      1  0.4997160000000  0.5186450000000  0.3914810000000 1.0
END
