TITL C-3577079-311-33 -6.75480376941869e-07 125000 -310.451934282229 0 0 51 (C1) n - 1
REM
REM in /home/bkarasulu/work/CARBON/AIRSS/Generating-Clusters/EDIP-Nigel-Params/with-SteepDescent/Higher-Symm/SD-CG/HFTN-CG
REM
REM
REM
REM
REM
REM ./C.cell (12c818d87b63d06a65506943cc24bca4)
REM
REM compiler GCC version 9.2.1 20190827 (Red Hat 9.2.1-1)
REM options -cpp -mtune=generic -march=x86-64 -g -O0 -fpre-include=/usr/include/finclude/math-vector-fortran.h
REM seed -1128835446 2098514307 1706609023 356878563 -1629369103 21590248 822253883 467518691 2048975235 -1153135266 -2116206312 1973407577 5596111 -1474707756 1800575735 317098018 193887140 1639959819 307899322 -2000497311 2022220516 -1223262066 -1567949615 1414153555 1272018086 1473946498 2008682827 -1533905973 232371169 1272607157 235356254 -1050238057 1365703924
REM
CELL 1.54180   50.00000   50.00000   50.00000   90.00000   90.00000   90.00000
LATT -1
SFAC C  
C      1  0.4958100000000  0.4434350000000  0.4573530000000 1.0
C      1  0.5519690000000  0.4932860000000  0.4627050000000 1.0
C      1  0.5066920000000  0.5533750000000  0.4621680000000 1.0
C      1  0.4428700000000  0.4961660000000  0.4617120000000 1.0
C      1  0.5019850000000  0.4486190000000  0.5366440000000 1.0
C      1  0.4455140000000  0.4971690000000  0.5396070000000 1.0
C      1  0.4925910000000  0.5545910000000  0.5391860000000 1.0
C      1  0.5569360000000  0.4974010000000  0.5380040000000 1.0
C      1  0.5058550000000  0.4541690000000  0.5054120000000 1.0
C      1  0.5464670000000  0.5085670000000  0.5127410000000 1.0
C      1  0.4971500000000  0.5342560000000  0.5066840000000 1.0
C      1  0.4388570000000  0.4918760000000  0.5094300000000 1.0
C      1  0.4913600000000  0.4350320000000  0.4873160000000 1.0
C      1  0.4526390000000  0.5072590000000  0.4870520000000 1.0
C      1  0.5118230000000  0.5551270000000  0.4902970000000 1.0
C      1  0.5600600000000  0.4915950000000  0.4908240000000 1.0
C      1  0.4472960000000  0.5364810000000  0.4869360000000 1.0
C      1  0.4617610000000  0.4425310000000  0.4850580000000 1.0
C      1  0.5582250000000  0.4622550000000  0.4937400000000 1.0
C      1  0.5415020000000  0.5533400000000  0.4899620000000 1.0
C      1  0.5518920000000  0.5382370000000  0.5140490000000 1.0
C      1  0.5422340000000  0.4479680000000  0.5129360000000 1.0
C      1  0.4470100000000  0.4625880000000  0.5125380000000 1.0
C      1  0.4558530000000  0.5472890000000  0.5110540000000 1.0
C      1  0.5150160000000  0.5379870000000  0.5463670000000 1.0
C      1  0.4675080000000  0.5157290000000  0.5458790000000 1.0
C      1  0.4844480000000  0.4691440000000  0.5478980000000 1.0
C      1  0.5341370000000  0.4836360000000  0.5471960000000 1.0
C      1  0.4841900000000  0.5372130000000  0.4554890000000 1.0
C      1  0.5338710000000  0.5149400000000  0.4558250000000 1.0
C      1  0.5141150000000  0.4662040000000  0.4522880000000 1.0
C      1  0.4651380000000  0.4821950000000  0.4525300000000 1.0
C      1  0.4665700000000  0.5431240000000  0.5364080000000 1.0
C      1  0.4556850000000  0.4674130000000  0.5418590000000 1.0
C      1  0.5316920000000  0.4551670000000  0.5402210000000 1.0
C      1  0.5404990000000  0.5473300000000  0.5384780000000 1.0
C      1  0.5432370000000  0.5414160000000  0.4623600000000 1.0
C      1  0.5421640000000  0.4656610000000  0.4596290000000 1.0
C      1  0.4660170000000  0.4532650000000  0.4564770000000 1.0
C      1  0.4588190000000  0.5467380000000  0.4634030000000 1.0
C      1  0.4920760000000  0.4822730000000  0.5732730000000 1.0
C      1  0.5213050000000  0.4926130000000  0.5720520000000 1.0
C      1  0.5106640000000  0.5222800000000  0.5711330000000 1.0
C      1  0.4813630000000  0.5112990000000  0.5717690000000 1.0
C      1  0.5079950000000  0.4822370000000  0.4283080000000 1.0
C      1  0.4789580000000  0.4924230000000  0.4287830000000 1.0
C      1  0.4891670000000  0.5221050000000  0.4306600000000 1.0
C      1  0.5188890000000  0.5111690000000  0.4305530000000 1.0
C      1  0.4845300000000  0.5083830000000  0.4887020000000 1.0
C      1  0.5148410000000  0.5067640000000  0.5148610000000 1.0
C      1  0.5008870000000  0.4839670000000  0.4994130000000 1.0
END
