TITL C-3577085-527-700 1.21353653800173e-07 125000 -555.051142036628 0 0 93 (C1) n - 1
REM
REM in /home/bkarasulu/work/CARBON/AIRSS/Generating-Clusters/EDIP-Nigel-Params/with-SteepDescent/Higher-Symm/SD-CG/HFTN-CG
REM
REM
REM
REM
REM
REM ./C.cell (12c818d87b63d06a65506943cc24bca4)
REM
REM compiler GCC version 9.2.1 20190827 (Red Hat 9.2.1-1)
REM options -cpp -mtune=generic -march=x86-64 -g -O0 -fpre-include=/usr/include/finclude/math-vector-fortran.h
REM seed 1556516441 750324822 52011896 -1248171046 2081093115 1248769290 -1033407706 172374188 553081783 -261694407 -1105488870 1591510033 918045464 727429840 -1516394369 15075356 -929088825 -38935145 -1902167493 598091914 -1850828524 1766725314 1075958638 -284312661 1734868990 1893965078 -962702152 -1239952118 -1150507952 148932113 -1864941294 1607527443 -1463727435
REM
CELL 1.54180   50.00000   50.00000   50.00000   90.00000   90.00000   90.00000
LATT -1
SFAC C  
C      1  0.4424820000000  0.4410280000000  0.5571820000000 1.0
C      1  0.4760540000000  0.5785260000000  0.5536890000000 1.0
C      1  0.5879730000000  0.4815880000000  0.5526180000000 1.0
C      1  0.4327220000000  0.4404150000000  0.4460400000000 1.0
C      1  0.4801710000000  0.5825920000000  0.4435290000000 1.0
C      1  0.5839920000000  0.4844530000000  0.4514900000000 1.0
C      1  0.5701920000000  0.4327680000000  0.5536960000000 1.0
C      1  0.5269490000000  0.5833240000000  0.5492160000000 1.0
C      1  0.4257830000000  0.4725890000000  0.5311520000000 1.0
C      1  0.5576840000000  0.4410370000000  0.4452980000000 1.0
C      1  0.5309110000000  0.5892070000000  0.4480440000000 1.0
C      1  0.3972300000000  0.4800090000000  0.4440840000000 1.0
C      1  0.5120110000000  0.5222690000000  0.4311150000000 1.0
C      1  0.5107490000000  0.4756750000000  0.4303630000000 1.0
C      1  0.4702960000000  0.4987370000000  0.4307730000000 1.0
C      1  0.5139210000000  0.5239700000000  0.5644920000000 1.0
C      1  0.5149680000000  0.4773690000000  0.5724250000000 1.0
C      1  0.4725770000000  0.4969130000000  0.5647200000000 1.0
C      1  0.4856400000000  0.5201400000000  0.4412560000000 1.0
C      1  0.4838920000000  0.4756510000000  0.4396890000000 1.0
C      1  0.5245120000000  0.4985980000000  0.4400940000000 1.0
C      1  0.4889810000000  0.5170610000000  0.5758700000000 1.0
C      1  0.4889300000000  0.4713150000000  0.5628120000000 1.0
C      1  0.5308010000000  0.4987410000000  0.5625320000000 1.0
C      1  0.4875000000000  0.4717180000000  0.5311260000000 1.0
C      1  0.4837330000000  0.5238350000000  0.5246950000000 1.0
C      1  0.5304520000000  0.4994410000000  0.5312150000000 1.0
C      1  0.4834220000000  0.4727400000000  0.4700300000000 1.0
C      1  0.4844810000000  0.5218100000000  0.4714580000000 1.0
C      1  0.5271790000000  0.4973650000000  0.4704430000000 1.0
C      1  0.5155040000000  0.4756150000000  0.5219410000000 1.0
C      1  0.5121560000000  0.5269020000000  0.5335660000000 1.0
C      1  0.4700980000000  0.4993640000000  0.5338950000000 1.0
C      1  0.5124460000000  0.4721290000000  0.4780120000000 1.0
C      1  0.5126890000000  0.5209850000000  0.4817830000000 1.0
C      1  0.4702540000000  0.4970440000000  0.4811510000000 1.0
C      1  0.5935050000000  0.5163680000000  0.5358430000000 1.0
C      1  0.4656050000000  0.4133060000000  0.5434190000000 1.0
C      1  0.4412910000000  0.5707260000000  0.5391450000000 1.0
C      1  0.5967700000000  0.5166580000000  0.4694130000000 1.0
C      1  0.4559600000000  0.4130940000000  0.4596210000000 1.0
C      1  0.4453960000000  0.5729990000000  0.4561230000000 1.0
C      1  0.3981410000000  0.5106400000000  0.5275820000000 1.0
C      1  0.5401370000000  0.4130180000000  0.5400300000000 1.0
C      1  0.5618130000000  0.5782350000000  0.5323130000000 1.0
C      1  0.4025880000000  0.5145660000000  0.4614040000000 1.0
C      1  0.5361230000000  0.4128760000000  0.4602880000000 1.0
C      1  0.5612110000000  0.5726460000000  0.4660970000000 1.0
C      1  0.5110360000000  0.4191150000000  0.4763800000000 1.0
C      1  0.4268830000000  0.5207320000000  0.4748830000000 1.0
C      1  0.5563020000000  0.5471310000000  0.4776510000000 1.0
C      1  0.5161350000000  0.4283180000000  0.5348790000000 1.0
C      1  0.4245870000000  0.5201460000000  0.5320220000000 1.0
C      1  0.5552010000000  0.5503940000000  0.5327890000000 1.0
C      1  0.4838610000000  0.4235090000000  0.4674410000000 1.0
C      1  0.5687820000000  0.5225450000000  0.4689470000000 1.0
C      1  0.4411440000000  0.5450600000000  0.4688790000000 1.0
C      1  0.4899440000000  0.4203630000000  0.5262880000000 1.0
C      1  0.5715960000000  0.5287480000000  0.5229010000000 1.0
C      1  0.4352970000000  0.5455440000000  0.5232960000000 1.0
C      1  0.4687330000000  0.5462120000000  0.4822100000000 1.0
C      1  0.5562510000000  0.4992650000000  0.4820550000000 1.0
C      1  0.4710270000000  0.4473520000000  0.4828720000000 1.0
C      1  0.4663210000000  0.5455030000000  0.5129380000000 1.0
C      1  0.5572510000000  0.5041640000000  0.5144740000000 1.0
C      1  0.4742460000000  0.4461940000000  0.5154760000000 1.0
C      1  0.5287810000000  0.5457630000000  0.4894760000000 1.0
C      1  0.4408390000000  0.4981190000000  0.4901320000000 1.0
C      1  0.5252740000000  0.4459290000000  0.4874980000000 1.0
C      1  0.5279580000000  0.5504500000000  0.5207460000000 1.0
C      1  0.4416550000000  0.4979810000000  0.5222650000000 1.0
C      1  0.5297830000000  0.4493100000000  0.5175140000000 1.0
C      1  0.5380360000000  0.5932250000000  0.5245580000000 1.0
C      1  0.5598100000000  0.4306780000000  0.5274330000000 1.0
C      1  0.3999570000000  0.4830930000000  0.5193200000000 1.0
C      1  0.5413930000000  0.5918700000000  0.4746890000000 1.0
C      1  0.5515010000000  0.4361890000000  0.4725990000000 1.0
C      1  0.3912950000000  0.4899620000000  0.4701400000000 1.0
C      1  0.4688440000000  0.5739780000000  0.5265640000000 1.0
C      1  0.4485210000000  0.4345510000000  0.5302090000000 1.0
C      1  0.5973100000000  0.4892790000000  0.5268360000000 1.0
C      1  0.4731070000000  0.5754210000000  0.4702570000000 1.0
C      1  0.4424310000000  0.4377160000000  0.4728600000000 1.0
C      1  0.5987190000000  0.4882460000000  0.4760080000000 1.0
C      1  0.4250460000000  0.4626200000000  0.5577220000000 1.0
C      1  0.5772760000000  0.4597990000000  0.4416310000000 1.0
C      1  0.5843660000000  0.4554200000000  0.5594620000000 1.0
C      1  0.4109040000000  0.4564130000000  0.4416170000000 1.0
C      1  0.5049240000000  0.5940530000000  0.4412040000000 1.0
C      1  0.5012730000000  0.5885600000000  0.5571800000000 1.0
C      1  0.5846890000000  0.4801620000000  0.5011800000000 1.0
C      1  0.4079700000000  0.4795860000000  0.4912260000000 1.0
C      1  0.5258630000000  0.5832730000000  0.4990290000000 1.0
END
