TITL C-3578209-2550-416 -8.76321434369267e-08 125000 -406.207257563844 0 0 66 (C1) n - 1
REM
REM in /home/bkarasulu/work/CARBON/AIRSS/Generating-Clusters/EDIP-Nigel-Params/with-SteepDescent/Higher-Symm/SD-CG/HFTN-CG
REM
REM
REM
REM
REM
REM ./C.cell (12c818d87b63d06a65506943cc24bca4)
REM
REM compiler GCC version 9.2.1 20190827 (Red Hat 9.2.1-1)
REM options -cpp -mtune=generic -march=x86-64 -g -O0 -fpre-include=/usr/include/finclude/math-vector-fortran.h
REM seed -1303543290 -387196857 102308424 719617451 1293249569 -1669865993 1956814190 -531034855 538547116 1180128786 1078619845 -1257020343 -936694600 -1758812609 -1677480028 1964419746 -1770891732 1999822262 2061099832 -1788531451 -1788812190 -779399448 1676129329 204235509 -234932324 516992642 576322633 347861678 -1386204052 48079923 -152799027 -615372826 1648941746
REM
CELL 1.54180   50.00000   50.00000   50.00000   90.00000   90.00000   90.00000
LATT -1
SFAC C  
C      1  0.4638850000000  0.5289220000000  0.5537050000000 1.0
C      1  0.5446980000000  0.5370900000000  0.4542000000000 1.0
C      1  0.5670690000000  0.5185260000000  0.5193550000000 1.0
C      1  0.4253710000000  0.4788480000000  0.4951190000000 1.0
C      1  0.4858220000000  0.4476710000000  0.5588320000000 1.0
C      1  0.5253490000000  0.5410230000000  0.5254480000000 1.0
C      1  0.4917410000000  0.4963780000000  0.5705650000000 1.0
C      1  0.4787820000000  0.4996230000000  0.4916730000000 1.0
C      1  0.5459950000000  0.4781190000000  0.4617580000000 1.0
C      1  0.5669390000000  0.5277570000000  0.4712760000000 1.0
C      1  0.5113170000000  0.4573120000000  0.5523420000000 1.0
C      1  0.5192960000000  0.4618970000000  0.5003890000000 1.0
C      1  0.4845300000000  0.4812880000000  0.4690760000000 1.0
C      1  0.4838210000000  0.4138480000000  0.5274350000000 1.0
C      1  0.4932660000000  0.4545550000000  0.4827550000000 1.0
C      1  0.5007260000000  0.5107680000000  0.5052190000000 1.0
C      1  0.4850330000000  0.4565660000000  0.4389350000000 1.0
C      1  0.4631010000000  0.4338650000000  0.5224570000000 1.0
C      1  0.5267590000000  0.4371240000000  0.4523700000000 1.0
C      1  0.5647250000000  0.4633520000000  0.5055100000000 1.0
C      1  0.5556290000000  0.4541100000000  0.5317040000000 1.0
C      1  0.4518420000000  0.5488680000000  0.4605570000000 1.0
C      1  0.5326080000000  0.4629690000000  0.4400130000000 1.0
C      1  0.4561900000000  0.4736150000000  0.4571980000000 1.0
C      1  0.4386060000000  0.5405870000000  0.5501280000000 1.0
C      1  0.5563010000000  0.4937800000000  0.5040980000000 1.0
C      1  0.5069560000000  0.4759840000000  0.4315710000000 1.0
C      1  0.5262540000000  0.4468790000000  0.5281070000000 1.0
C      1  0.4556750000000  0.4811120000000  0.5402520000000 1.0
C      1  0.4934800000000  0.5492780000000  0.4412980000000 1.0
C      1  0.5111390000000  0.5594990000000  0.5454170000000 1.0
C      1  0.5404570000000  0.4966780000000  0.5540580000000 1.0
C      1  0.5589600000000  0.4759000000000  0.5492060000000 1.0
C      1  0.5137200000000  0.4853220000000  0.5577160000000 1.0
C      1  0.5282880000000  0.5499940000000  0.4736280000000 1.0
C      1  0.5391220000000  0.5558440000000  0.5012610000000 1.0
C      1  0.4843350000000  0.5230470000000  0.4371450000000 1.0
C      1  0.4985050000000  0.4369920000000  0.4581720000000 1.0
C      1  0.5667720000000  0.5414230000000  0.4992560000000 1.0
C      1  0.5240960000000  0.4918800000000  0.5055910000000 1.0
C      1  0.5031070000000  0.5877190000000  0.5048430000000 1.0
C      1  0.5629450000000  0.4986040000000  0.4756470000000 1.0
C      1  0.4668050000000  0.4485040000000  0.4968470000000 1.0
C      1  0.4617150000000  0.4526970000000  0.5453530000000 1.0
C      1  0.4877500000000  0.5356000000000  0.5181400000000 1.0
C      1  0.5047790000000  0.5621330000000  0.4635920000000 1.0
C      1  0.4665700000000  0.5007570000000  0.5593230000000 1.0
C      1  0.4376640000000  0.5495820000000  0.5248370000000 1.0
C      1  0.4579010000000  0.5412300000000  0.5061830000000 1.0
C      1  0.4441700000000  0.4595670000000  0.4813870000000 1.0
C      1  0.5066850000000  0.5043350000000  0.4394920000000 1.0
C      1  0.5437170000000  0.4550870000000  0.4822380000000 1.0
C      1  0.5325660000000  0.5846420000000  0.5067360000000 1.0
C      1  0.5315460000000  0.5177680000000  0.4381580000000 1.0
C      1  0.5459490000000  0.5227280000000  0.5395610000000 1.0
C      1  0.5220070000000  0.4178630000000  0.5250210000000 1.0
C      1  0.4605140000000  0.5614360000000  0.4843380000000 1.0
C      1  0.4220320000000  0.5010540000000  0.4753930000000 1.0
C      1  0.4360650000000  0.4903900000000  0.5207090000000 1.0
C      1  0.5027580000000  0.4066210000000  0.5085610000000 1.0
C      1  0.5048080000000  0.5853810000000  0.5338390000000 1.0
C      1  0.4521610000000  0.5127880000000  0.4947450000000 1.0
C      1  0.4875910000000  0.5455650000000  0.5560050000000 1.0
C      1  0.4896400000000  0.5667650000000  0.4877650000000 1.0
C      1  0.4418420000000  0.4998730000000  0.4540620000000 1.0
C      1  0.4595570000000  0.5230170000000  0.4524290000000 1.0
END
