TITL C-3577084-3642-581 -6.56391209396689e-07 125000 -534.627888585317 0 0 85 (C1) n - 1
REM
REM in /home/bkarasulu/work/CARBON/AIRSS/Generating-Clusters/EDIP-Nigel-Params/with-SteepDescent/Higher-Symm/SD-CG/HFTN-CG
REM
REM
REM
REM
REM
REM ./C.cell (12c818d87b63d06a65506943cc24bca4)
REM
REM compiler GCC version 9.2.1 20190827 (Red Hat 9.2.1-1)
REM options -cpp -mtune=generic -march=x86-64 -g -O0 -fpre-include=/usr/include/finclude/math-vector-fortran.h
REM seed 1414754106 554637684 -51924716 1662230087 94400192 -23309781 25644871 1249761142 2098697358 -113525519 -2036339609 -771129167 -1805172789 569923904 -922774743 1927623724 -118830781 28958702 -489480505 -1130992456 -845674580 777356347 -1570528045 1615027680 -366905262 1542598281 972176602 45760892 -1981740917 150808526 -409254337 -255074101 1097971127
REM
CELL 1.54180   50.00000   50.00000   50.00000   90.00000   90.00000   90.00000
LATT -1
SFAC C  
C      1  0.4877350000000  0.5248690000000  0.4370350000000 1.0
C      1  0.4887040000000  0.4518360000000  0.4563470000000 1.0
C      1  0.4908830000000  0.4461220000000  0.5316610000000 1.0
C      1  0.4913960000000  0.5133200000000  0.5655600000000 1.0
C      1  0.4860630000000  0.5631730000000  0.5018730000000 1.0
C      1  0.6114660000000  0.5168860000000  0.5007630000000 1.0
C      1  0.6030790000000  0.4975240000000  0.4813140000000 1.0
C      1  0.5957270000000  0.4727960000000  0.4980020000000 1.0
C      1  0.6015390000000  0.4802720000000  0.5250280000000 1.0
C      1  0.5966650000000  0.5084230000000  0.5238290000000 1.0
C      1  0.4549690000000  0.4965840000000  0.5365460000000 1.0
C      1  0.4520720000000  0.5358180000000  0.5233080000000 1.0
C      1  0.4504870000000  0.5240330000000  0.4679820000000 1.0
C      1  0.4511910000000  0.4839490000000  0.4684560000000 1.0
C      1  0.4543590000000  0.4678840000000  0.5076470000000 1.0
C      1  0.5552950000000  0.4683190000000  0.5401170000000 1.0
C      1  0.5527040000000  0.5302630000000  0.5415250000000 1.0
C      1  0.5467810000000  0.5452300000000  0.4857170000000 1.0
C      1  0.5553330000000  0.5015710000000  0.4478740000000 1.0
C      1  0.5541850000000  0.4508500000000  0.4815230000000 1.0
C      1  0.5142270000000  0.4885210000000  0.5175320000000 1.0
C      1  0.5046370000000  0.5164410000000  0.5182110000000 1.0
C      1  0.4932610000000  0.5199160000000  0.4932440000000 1.0
C      1  0.5031560000000  0.5018670000000  0.4752630000000 1.0
C      1  0.5090370000000  0.4786180000000  0.4900770000000 1.0
C      1  0.4247400000000  0.5207350000000  0.4841870000000 1.0
C      1  0.4230600000000  0.4916170000000  0.4782090000000 1.0
C      1  0.4253530000000  0.4771350000000  0.5034980000000 1.0
C      1  0.4264760000000  0.4965650000000  0.5253400000000 1.0
C      1  0.4274280000000  0.5231450000000  0.5138680000000 1.0
C      1  0.4648100000000  0.4356240000000  0.5432970000000 1.0
C      1  0.4649650000000  0.5207670000000  0.5790340000000 1.0
C      1  0.4616920000000  0.5798360000000  0.5019980000000 1.0
C      1  0.4620870000000  0.5264790000000  0.4209340000000 1.0
C      1  0.4618930000000  0.4385960000000  0.4508340000000 1.0
C      1  0.4630590000000  0.4221930000000  0.4979500000000 1.0
C      1  0.4656310000000  0.4730910000000  0.5751710000000 1.0
C      1  0.4664660000000  0.5659040000000  0.5522610000000 1.0
C      1  0.4594200000000  0.5656590000000  0.4510960000000 1.0
C      1  0.4628730000000  0.4759810000000  0.4213160000000 1.0
C      1  0.5643920000000  0.5244440000000  0.4926040000000 1.0
C      1  0.5719810000000  0.5022270000000  0.4741440000000 1.0
C      1  0.5658350000000  0.4759170000000  0.4923650000000 1.0
C      1  0.5508860000000  0.4869370000000  0.5176220000000 1.0
C      1  0.5667300000000  0.5140860000000  0.5203710000000 1.0
C      1  0.5115980000000  0.5754240000000  0.4907800000000 1.0
C      1  0.5147480000000  0.5166240000000  0.4235690000000 1.0
C      1  0.5143040000000  0.4347080000000  0.4592900000000 1.0
C      1  0.5158280000000  0.4419460000000  0.5490470000000 1.0
C      1  0.5170100000000  0.5263110000000  0.5748440000000 1.0
C      1  0.4500800000000  0.4971330000000  0.5675380000000 1.0
C      1  0.4494350000000  0.5656760000000  0.5266050000000 1.0
C      1  0.4457220000000  0.5400930000000  0.4420630000000 1.0
C      1  0.4475330000000  0.4641720000000  0.4444070000000 1.0
C      1  0.4490080000000  0.4388520000000  0.5183740000000 1.0
C      1  0.5126060000000  0.5660210000000  0.4612380000000 1.0
C      1  0.5158100000000  0.4859560000000  0.4235600000000 1.0
C      1  0.5145770000000  0.4245940000000  0.4883850000000 1.0
C      1  0.5166940000000  0.4655770000000  0.5685380000000 1.0
C      1  0.5152350000000  0.5541740000000  0.5648410000000 1.0
C      1  0.5412670000000  0.4818300000000  0.5627120000000 1.0
C      1  0.5371230000000  0.5543920000000  0.5341550000000 1.0
C      1  0.5361830000000  0.5481200000000  0.4592420000000 1.0
C      1  0.5392150000000  0.4778920000000  0.4402530000000 1.0
C      1  0.5385090000000  0.4364030000000  0.5017710000000 1.0
C      1  0.5384070000000  0.5123190000000  0.5603530000000 1.0
C      1  0.5359080000000  0.5632490000000  0.5053980000000 1.0
C      1  0.5385390000000  0.5250560000000  0.4400350000000 1.0
C      1  0.5387750000000  0.4521980000000  0.4564300000000 1.0
C      1  0.5403570000000  0.4433580000000  0.5321510000000 1.0
C      1  0.4896920000000  0.4765020000000  0.4366790000000 1.0
C      1  0.4899190000000  0.4367880000000  0.5012430000000 1.0
C      1  0.4917380000000  0.4821550000000  0.5622040000000 1.0
C      1  0.4938840000000  0.5555600000000  0.5443240000000 1.0
C      1  0.4868720000000  0.5505900000000  0.4557450000000 1.0
C      1  0.4569290000000  0.5464360000000  0.5707130000000 1.0
C      1  0.4504510000000  0.5767810000000  0.4758120000000 1.0
C      1  0.4536280000000  0.5010750000000  0.4135130000000 1.0
C      1  0.4521670000000  0.4242240000000  0.4724920000000 1.0
C      1  0.4553610000000  0.4493620000000  0.5653700000000 1.0
C      1  0.4770920000000  0.5408060000000  0.4834120000000 1.0
C      1  0.4835300000000  0.4998370000000  0.4545110000000 1.0
C      1  0.4850270000000  0.4623820000000  0.4851720000000 1.0
C      1  0.4884010000000  0.4768280000000  0.5322930000000 1.0
C      1  0.4861100000000  0.5265710000000  0.5384050000000 1.0
END
