TITL C-3578199-7832-177 -2.49398921894123e-06 125000 -1049.18845785592 0 0 167 (C1) n - 1
REM
REM in /home/bkarasulu/work/CARBON/AIRSS/Generating-Clusters/EDIP-Nigel-Params/with-SteepDescent/Higher-Symm/SD-CG/HFTN-CG
REM
REM
REM
REM
REM
REM ./C.cell (12c818d87b63d06a65506943cc24bca4)
REM
REM compiler GCC version 9.2.1 20190827 (Red Hat 9.2.1-1)
REM options -cpp -mtune=generic -march=x86-64 -g -O0 -fpre-include=/usr/include/finclude/math-vector-fortran.h
REM seed 1410152900 644543723 1475601188 1035687324 1151314480 973841435 -1669742664 -619686071 10426845 -79186219 -1783779016 -1436499599 -762522124 -1388436556 -1908676984 -668058676 -2093260861 -811971222 -639600204 -1536093533 965505442 -506154215 -57214739 374918804 -95439365 980777946 -1758612040 -1205867372 1233439362 -1050372989 1137836246 1490626938 -41355301
REM
CELL 1.54180   50.00000   50.00000   50.00000   90.00000   90.00000   90.00000
LATT -1
SFAC C  
C      1  0.5630700000000  0.5715520000000  0.5026010000000 1.0
C      1  0.5374640000000  0.5712790000000  0.5508730000000 1.0
C      1  0.4843730000000  0.5763520000000  0.5637500000000 1.0
C      1  0.4401380000000  0.5722930000000  0.5253880000000 1.0
C      1  0.4395130000000  0.5757950000000  0.4701690000000 1.0
C      1  0.4862880000000  0.5712950000000  0.4384620000000 1.0
C      1  0.5401310000000  0.5703310000000  0.4521630000000 1.0
C      1  0.6164630000000  0.5387630000000  0.5042540000000 1.0
C      1  0.5695220000000  0.5356230000000  0.5895250000000 1.0
C      1  0.4741030000000  0.5367390000000  0.6103230000000 1.0
C      1  0.3944380000000  0.5392260000000  0.5488140000000 1.0
C      1  0.3936090000000  0.5387110000000  0.4460680000000 1.0
C      1  0.4739440000000  0.5371800000000  0.3897920000000 1.0
C      1  0.5727670000000  0.5365340000000  0.4131380000000 1.0
C      1  0.5038460000000  0.5034090000000  0.5565400000000 1.0
C      1  0.4576260000000  0.5204120000000  0.5289280000000 1.0
C      1  0.4311970000000  0.5066650000000  0.4923700000000 1.0
C      1  0.4642070000000  0.5097150000000  0.4539840000000 1.0
C      1  0.5157030000000  0.5115190000000  0.4423460000000 1.0
C      1  0.5605010000000  0.5047020000000  0.4815160000000 1.0
C      1  0.5479490000000  0.5034720000000  0.5313580000000 1.0
C      1  0.5423260000000  0.5304890000000  0.4818360000000 1.0
C      1  0.5371630000000  0.5301250000000  0.5186240000000 1.0
C      1  0.5092120000000  0.5311330000000  0.5430910000000 1.0
C      1  0.4789190000000  0.5388380000000  0.5399210000000 1.0
C      1  0.4462610000000  0.5307180000000  0.5008360000000 1.0
C      1  0.4637320000000  0.5340170000000  0.4713630000000 1.0
C      1  0.5160580000000  0.5347900000000  0.4614050000000 1.0
C      1  0.4014640000000  0.5370330000000  0.5214600000000 1.0
C      1  0.4207700000000  0.5369810000000  0.4371540000000 1.0
C      1  0.4999300000000  0.5376120000000  0.4014490000000 1.0
C      1  0.5743770000000  0.5337320000000  0.4410440000000 1.0
C      1  0.5942640000000  0.5347870000000  0.5220950000000 1.0
C      1  0.5413330000000  0.5335200000000  0.5871390000000 1.0
C      1  0.4579860000000  0.5374350000000  0.5869270000000 1.0
C      1  0.4849700000000  0.4606160000000  0.4512120000000 1.0
C      1  0.5268480000000  0.4477610000000  0.4845530000000 1.0
C      1  0.5474420000000  0.4389060000000  0.5046870000000 1.0
C      1  0.5150650000000  0.4516230000000  0.5372890000000 1.0
C      1  0.4882770000000  0.4335340000000  0.5462710000000 1.0
C      1  0.4643180000000  0.4383050000000  0.5270180000000 1.0
C      1  0.4667080000000  0.4527330000000  0.4761150000000 1.0
C      1  0.3885800000000  0.4724680000000  0.4782630000000 1.0
C      1  0.4509000000000  0.4717380000000  0.3997720000000 1.0
C      1  0.5452250000000  0.4730210000000  0.4028530000000 1.0
C      1  0.6069150000000  0.4728980000000  0.4736250000000 1.0
C      1  0.5888960000000  0.4703640000000  0.5688000000000 1.0
C      1  0.4999500000000  0.4706360000000  0.6117290000000 1.0
C      1  0.4172620000000  0.4770390000000  0.5684430000000 1.0
C      1  0.3946050000000  0.5520870000000  0.4715020000000 1.0
C      1  0.4547830000000  0.5485970000000  0.4069260000000 1.0
C      1  0.5484250000000  0.5500030000000  0.4069300000000 1.0
C      1  0.6041710000000  0.5514940000000  0.4817470000000 1.0
C      1  0.5790980000000  0.5474560000000  0.5658010000000 1.0
C      1  0.4991250000000  0.5471470000000  0.6030420000000 1.0
C      1  0.4153030000000  0.5519760000000  0.5635690000000 1.0
C      1  0.4333440000000  0.4475080000000  0.4367480000000 1.0
C      1  0.5072680000000  0.4445450000000  0.4050730000000 1.0
C      1  0.5719130000000  0.4466170000000  0.4504710000000 1.0
C      1  0.5888980000000  0.4458850000000  0.5287340000000 1.0
C      1  0.5332640000000  0.4437720000000  0.5891150000000 1.0
C      1  0.4530680000000  0.4469300000000  0.5810170000000 1.0
C      1  0.4146310000000  0.4500120000000  0.5134830000000 1.0
C      1  0.4628330000000  0.4822640000000  0.5256050000000 1.0
C      1  0.4440650000000  0.4942650000000  0.4678510000000 1.0
C      1  0.5100400000000  0.4807930000000  0.4464070000000 1.0
C      1  0.5263350000000  0.4776470000000  0.4737980000000 1.0
C      1  0.5619860000000  0.4901870000000  0.5085700000000 1.0
C      1  0.5273120000000  0.4841810000000  0.5495370000000 1.0
C      1  0.4775760000000  0.4889230000000  0.5522560000000 1.0
C      1  0.5737750000000  0.4497810000000  0.5542650000000 1.0
C      1  0.5041940000000  0.4501920000000  0.5910930000000 1.0
C      1  0.4359700000000  0.4569050000000  0.5596300000000 1.0
C      1  0.4124140000000  0.4536700000000  0.4837200000000 1.0
C      1  0.4570330000000  0.4507480000000  0.4192820000000 1.0
C      1  0.5307100000000  0.4540450000000  0.4191560000000 1.0
C      1  0.5826430000000  0.4560880000000  0.4768180000000 1.0
C      1  0.5275420000000  0.4795410000000  0.3804350000000 1.0
C      1  0.6019670000000  0.4841350000000  0.4464980000000 1.0
C      1  0.6120180000000  0.4779950000000  0.5530040000000 1.0
C      1  0.5270530000000  0.4810500000000  0.6186410000000 1.0
C      1  0.4243300000000  0.4833900000000  0.5956830000000 1.0
C      1  0.3809600000000  0.4837280000000  0.5053330000000 1.0
C      1  0.4231500000000  0.4809110000000  0.4048480000000 1.0
C      1  0.5715160000000  0.4936440000000  0.5751310000000 1.0
C      1  0.4841180000000  0.4943590000000  0.6018150000000 1.0
C      1  0.4130660000000  0.4989770000000  0.5484960000000 1.0
C      1  0.3963350000000  0.4967370000000  0.4614300000000 1.0
C      1  0.4691090000000  0.4951520000000  0.4031000000000 1.0
C      1  0.5557230000000  0.4959620000000  0.4190140000000 1.0
C      1  0.6072490000000  0.4967700000000  0.4922520000000 1.0
C      1  0.5151820000000  0.5114200000000  0.3977880000000 1.0
C      1  0.5925860000000  0.5127720000000  0.4505390000000 1.0
C      1  0.5960580000000  0.5091310000000  0.5374870000000 1.0
C      1  0.5302310000000  0.5063840000000  0.5968340000000 1.0
C      1  0.4437490000000  0.5126390000000  0.5797770000000 1.0
C      1  0.3887640000000  0.5136030000000  0.5064210000000 1.0
C      1  0.4275190000000  0.5095190000000  0.4246540000000 1.0
C      1  0.4572140000000  0.5141680000000  0.4243280000000 1.0
C      1  0.5341510000000  0.5164890000000  0.4196780000000 1.0
C      1  0.5890650000000  0.5160510000000  0.4788600000000 1.0
C      1  0.5704370000000  0.5122900000000  0.5519030000000 1.0
C      1  0.5028580000000  0.5119500000000  0.5870990000000 1.0
C      1  0.4342530000000  0.5204170000000  0.5520590000000 1.0
C      1  0.4044640000000  0.5164800000000  0.4823520000000 1.0
C      1  0.5242720000000  0.4294770000000  0.4609890000000 1.0
C      1  0.5367210000000  0.4169510000000  0.5198020000000 1.0
C      1  0.5338640000000  0.4197600000000  0.5479170000000 1.0
C      1  0.4909400000000  0.4030120000000  0.5232430000000 1.0
C      1  0.4694730000000  0.4165170000000  0.5095630000000 1.0
C      1  0.4738130000000  0.4241580000000  0.4820690000000 1.0
C      1  0.4953280000000  0.4288300000000  0.4521290000000 1.0
C      1  0.4814770000000  0.4398570000000  0.5750470000000 1.0
C      1  0.4376600000000  0.4467870000000  0.5328370000000 1.0
C      1  0.4364850000000  0.4511590000000  0.4659010000000 1.0
C      1  0.4843270000000  0.4350910000000  0.4214860000000 1.0
C      1  0.5432740000000  0.4400150000000  0.4416190000000 1.0
C      1  0.5756800000000  0.4428840000000  0.5022570000000 1.0
C      1  0.5475360000000  0.4387410000000  0.5636430000000 1.0
C      1  0.5458990000000  0.4613130000000  0.6078890000000 1.0
C      1  0.4453760000000  0.4645760000000  0.6025570000000 1.0
C      1  0.3946030000000  0.4670870000000  0.5241840000000 1.0
C      1  0.4117990000000  0.4614150000000  0.4236440000000 1.0
C      1  0.5041220000000  0.4623430000000  0.3827870000000 1.0
C      1  0.5844180000000  0.4656030000000  0.4328830000000 1.0
C      1  0.6135140000000  0.4603920000000  0.5303250000000 1.0
C      1  0.4650580000000  0.5543030000000  0.5625030000000 1.0
C      1  0.4248090000000  0.5528050000000  0.5087010000000 1.0
C      1  0.4441150000000  0.5532480000000  0.4518770000000 1.0
C      1  0.5063400000000  0.5521990000000  0.4283170000000 1.0
C      1  0.5598080000000  0.5505450000000  0.4620960000000 1.0
C      1  0.5660540000000  0.5492460000000  0.5213800000000 1.0
C      1  0.5246070000000  0.5495540000000  0.5657950000000 1.0
C      1  0.4686540000000  0.5116140000000  0.3788360000000 1.0
C      1  0.5770530000000  0.5100770000000  0.4034930000000 1.0
C      1  0.6302340000000  0.5139530000000  0.4994920000000 1.0
C      1  0.5805250000000  0.5105650000000  0.5973110000000 1.0
C      1  0.4731650000000  0.5113500000000  0.6229450000000 1.0
C      1  0.3872840000000  0.5126850000000  0.5557710000000 1.0
C      1  0.3795670000000  0.5137040000000  0.4442110000000 1.0
C      1  0.5205110000000  0.5782350000000  0.5270520000000 1.0
C      1  0.4912310000000  0.5809770000000  0.5337960000000 1.0
C      1  0.4670540000000  0.5791900000000  0.5146050000000 1.0
C      1  0.4662990000000  0.5807750000000  0.4846990000000 1.0
C      1  0.4908540000000  0.5783210000000  0.4669630000000 1.0
C      1  0.5204460000000  0.5773490000000  0.4735710000000 1.0
C      1  0.5337040000000  0.5781700000000  0.5003630000000 1.0
C      1  0.5789280000000  0.5656650000000  0.4785320000000 1.0
C      1  0.5652680000000  0.5636300000000  0.5463650000000 1.0
C      1  0.5058010000000  0.5653730000000  0.5815610000000 1.0
C      1  0.4390870000000  0.5645140000000  0.5530460000000 1.0
C      1  0.4153930000000  0.5674980000000  0.4850920000000 1.0
C      1  0.4593510000000  0.5645950000000  0.4301160000000 1.0
C      1  0.5316150000000  0.5660220000000  0.4244050000000 1.0
C      1  0.4221300000000  0.4888400000000  0.4476560000000 1.0
C      1  0.4983230000000  0.4873890000000  0.4099040000000 1.0
C      1  0.5581460000000  0.4853170000000  0.4537900000000 1.0
C      1  0.5914520000000  0.4879920000000  0.5161170000000 1.0
C      1  0.5429790000000  0.4849550000000  0.5779560000000 1.0
C      1  0.4638520000000  0.4892990000000  0.5794600000000 1.0
C      1  0.4293640000000  0.4879440000000  0.5192290000000 1.0
C      1  0.5012780000000  0.5157900000000  0.4974740000000 1.0
C      1  0.4928650000000  0.5360930000000  0.4805140000000 1.0
C      1  0.4821120000000  0.4698070000000  0.5010240000000 1.0
C      1  0.5031960000000  0.4453510000000  0.5071930000000 1.0
C      1  0.5046510000000  0.4886880000000  0.4929210000000 1.0
C      1  0.5130060000000  0.4078950000000  0.5069630000000 1.0
END
