TITL C-3578199-7832-140 -1.02313045912481e-06 125000 -1099.4795215265 0 0 177 (C1) n - 1
REM
REM in /home/bkarasulu/work/CARBON/AIRSS/Generating-Clusters/EDIP-Nigel-Params/with-SteepDescent/Higher-Symm/SD-CG/HFTN-CG
REM
REM
REM
REM
REM
REM ./C.cell (12c818d87b63d06a65506943cc24bca4)
REM
REM compiler GCC version 9.2.1 20190827 (Red Hat 9.2.1-1)
REM options -cpp -mtune=generic -march=x86-64 -g -O0 -fpre-include=/usr/include/finclude/math-vector-fortran.h
REM seed -2043223241 358679372 -1757041006 -569969982 -958954420 347074594 -964830103 473765086 991864372 -1281952224 -1405974454 -1139459386 -1921097839 -823966365 1668791040 944247106 1955936354 1375188911 239249352 -1004459150 1121332266 1447822991 590265277 -166554293 486820341 -1624631895 -1962707943 -756647211 590845676 72559167 -1021577483 1012250237 606712507
REM
CELL 1.54180   50.00000   50.00000   50.00000   90.00000   90.00000   90.00000
LATT -1
SFAC C  
C      1  0.5102640000000  0.5645860000000  0.6015140000000 1.0
C      1  0.4306740000000  0.5130660000000  0.5963440000000 1.0
C      1  0.4821450000000  0.4368220000000  0.6017320000000 1.0
C      1  0.5700550000000  0.4857710000000  0.6035630000000 1.0
C      1  0.5113180000000  0.4438770000000  0.6021950000000 1.0
C      1  0.4411740000000  0.4874890000000  0.5913000000000 1.0
C      1  0.4858480000000  0.5536520000000  0.5922750000000 1.0
C      1  0.5645910000000  0.5131350000000  0.5956720000000 1.0
C      1  0.4828500000000  0.4426590000000  0.4528060000000 1.0
C      1  0.5696430000000  0.4799810000000  0.4444900000000 1.0
C      1  0.5226770000000  0.5719820000000  0.4548380000000 1.0
C      1  0.4321040000000  0.5284370000000  0.4385520000000 1.0
C      1  0.4785740000000  0.5577140000000  0.4554330000000 1.0
C      1  0.5589890000000  0.5355090000000  0.4354580000000 1.0
C      1  0.5361330000000  0.4394840000000  0.4358830000000 1.0
C      1  0.4346860000000  0.4688990000000  0.4348940000000 1.0
C      1  0.4725360000000  0.4276260000000  0.4083900000000 1.0
C      1  0.5673980000000  0.4698770000000  0.4064440000000 1.0
C      1  0.5231600000000  0.5607680000000  0.4070620000000 1.0
C      1  0.4280410000000  0.5298220000000  0.3957080000000 1.0
C      1  0.4704370000000  0.5686550000000  0.4073220000000 1.0
C      1  0.5727810000000  0.5228060000000  0.3926730000000 1.0
C      1  0.5238540000000  0.4207940000000  0.3971260000000 1.0
C      1  0.4305360000000  0.4781090000000  0.3925390000000 1.0
C      1  0.3880070000000  0.5146630000000  0.5091080000000 1.0
C      1  0.4870480000000  0.3887880000000  0.5112610000000 1.0
C      1  0.6141340000000  0.4882420000000  0.5119840000000 1.0
C      1  0.5069920000000  0.6043990000000  0.5191000000000 1.0
C      1  0.3844690000000  0.4861850000000  0.5092240000000 1.0
C      1  0.4787250000000  0.5992860000000  0.5154410000000 1.0
C      1  0.6103710000000  0.5185980000000  0.5100670000000 1.0
C      1  0.5176080000000  0.3904300000000  0.5071580000000 1.0
C      1  0.5159240000000  0.4603860000000  0.5330460000000 1.0
C      1  0.5401240000000  0.5151390000000  0.5322730000000 1.0
C      1  0.4964480000000  0.5300550000000  0.5290460000000 1.0
C      1  0.4743530000000  0.4853560000000  0.5385620000000 1.0
C      1  0.5241990000000  0.5390810000000  0.5359400000000 1.0
C      1  0.5254100000000  0.4890580000000  0.5390870000000 1.0
C      1  0.4869530000000  0.4573900000000  0.5398150000000 1.0
C      1  0.4398240000000  0.5174070000000  0.5247970000000 1.0
C      1  0.4790910000000  0.5712230000000  0.5290890000000 1.0
C      1  0.3923130000000  0.4754650000000  0.5345290000000 1.0
C      1  0.5200350000000  0.4133560000000  0.5274700000000 1.0
C      1  0.5843430000000  0.5172960000000  0.5270170000000 1.0
C      1  0.4894550000000  0.4086130000000  0.5359910000000 1.0
C      1  0.4081880000000  0.5237000000000  0.5291660000000 1.0
C      1  0.5127160000000  0.5850170000000  0.5398340000000 1.0
C      1  0.5891020000000  0.4865710000000  0.5317510000000 1.0
C      1  0.4857120000000  0.4035610000000  0.5650220000000 1.0
C      1  0.5921040000000  0.4815380000000  0.5609480000000 1.0
C      1  0.5111500000000  0.5952410000000  0.5669210000000 1.0
C      1  0.4036880000000  0.5157230000000  0.5574110000000 1.0
C      1  0.4847010000000  0.5978090000000  0.5766370000000 1.0
C      1  0.6068820000000  0.5015440000000  0.5740710000000 1.0
C      1  0.5094820000000  0.4018990000000  0.5793620000000 1.0
C      1  0.4025660000000  0.4863920000000  0.5588400000000 1.0
C      1  0.4654160000000  0.4873200000000  0.4925640000000 1.0
C      1  0.5142840000000  0.4634930000000  0.4784750000000 1.0
C      1  0.5348450000000  0.5179330000000  0.4779730000000 1.0
C      1  0.4945460000000  0.5521490000000  0.4826610000000 1.0
C      1  0.4572240000000  0.5116420000000  0.4787700000000 1.0
C      1  0.5241220000000  0.5478020000000  0.4847620000000 1.0
C      1  0.5291920000000  0.4877790000000  0.4887420000000 1.0
C      1  0.4828400000000  0.4613750000000  0.4868370000000 1.0
C      1  0.4076940000000  0.5460150000000  0.4783540000000 1.0
C      1  0.4568050000000  0.4170160000000  0.4846550000000 1.0
C      1  0.5906420000000  0.4591640000000  0.4827390000000 1.0
C      1  0.5444970000000  0.5924410000000  0.4878120000000 1.0
C      1  0.4172580000000  0.4603460000000  0.4841510000000 1.0
C      1  0.4512450000000  0.5887650000000  0.4792250000000 1.0
C      1  0.5851680000000  0.5459160000000  0.4808150000000 1.0
C      1  0.5463350000000  0.4160160000000  0.4792010000000 1.0
C      1  0.5179880000000  0.4162330000000  0.4264870000000 1.0
C      1  0.5855170000000  0.5169880000000  0.4185480000000 1.0
C      1  0.4833920000000  0.5784450000000  0.4321010000000 1.0
C      1  0.4108530000000  0.4847550000000  0.4245270000000 1.0
C      1  0.5123000000000  0.5787340000000  0.4292250000000 1.0
C      1  0.5891660000000  0.4881000000000  0.4232740000000 1.0
C      1  0.4884650000000  0.4194880000000  0.4329850000000 1.0
C      1  0.4102340000000  0.5132290000000  0.4242570000000 1.0
C      1  0.5691710000000  0.4432790000000  0.5771750000000 1.0
C      1  0.5506070000000  0.5677320000000  0.5755930000000 1.0
C      1  0.4491940000000  0.5315190000000  0.5535380000000 1.0
C      1  0.4420600000000  0.4230000000000  0.5715550000000 1.0
C      1  0.5806990000000  0.5348730000000  0.5533200000000 1.0
C      1  0.5448890000000  0.4299710000000  0.5687760000000 1.0
C      1  0.4218660000000  0.4441310000000  0.5725890000000 1.0
C      1  0.4576770000000  0.5649080000000  0.5521160000000 1.0
C      1  0.5651920000000  0.4185220000000  0.5249770000000 1.0
C      1  0.6003890000000  0.5656090000000  0.5239700000000 1.0
C      1  0.4354270000000  0.5993040000000  0.5244580000000 1.0
C      1  0.4102100000000  0.4354090000000  0.5264960000000 1.0
C      1  0.5582040000000  0.5925930000000  0.5345430000000 1.0
C      1  0.5861960000000  0.4365870000000  0.5332030000000 1.0
C      1  0.4304250000000  0.4135890000000  0.5259600000000 1.0
C      1  0.4074130000000  0.5526470000000  0.5262510000000 1.0
C      1  0.3963720000000  0.5193130000000  0.4819320000000 1.0
C      1  0.4816480000000  0.4013430000000  0.4850720000000 1.0
C      1  0.6066200000000  0.4836300000000  0.4839190000000 1.0
C      1  0.5161030000000  0.6003330000000  0.4917650000000 1.0
C      1  0.3973700000000  0.4805720000000  0.4832280000000 1.0
C      1  0.4774350000000  0.5989800000000  0.4867880000000 1.0
C      1  0.6020870000000  0.5219970000000  0.4826650000000 1.0
C      1  0.5202190000000  0.4019610000000  0.4807500000000 1.0
C      1  0.5264520000000  0.4217080000000  0.5892370000000 1.0
C      1  0.5880790000000  0.5220840000000  0.5789760000000 1.0
C      1  0.4694430000000  0.5741180000000  0.5785700000000 1.0
C      1  0.4251310000000  0.4727570000000  0.5717590000000 1.0
C      1  0.5274380000000  0.5803490000000  0.5860950000000 1.0
C      1  0.5669650000000  0.4730790000000  0.5769860000000 1.0
C      1  0.4700110000000  0.4240120000000  0.5787110000000 1.0
C      1  0.4258580000000  0.5275700000000  0.5729430000000 1.0
C      1  0.5750980000000  0.4544420000000  0.4588690000000 1.0
C      1  0.5490460000000  0.5761490000000  0.4632050000000 1.0
C      1  0.4265950000000  0.5507440000000  0.4569310000000 1.0
C      1  0.4556320000000  0.4363520000000  0.4632050000000 1.0
C      1  0.5661860000000  0.5519830000000  0.4599510000000 1.0
C      1  0.5534650000000  0.4343600000000  0.4582670000000 1.0
C      1  0.4344560000000  0.4558360000000  0.4615690000000 1.0
C      1  0.4514060000000  0.5638820000000  0.4652160000000 1.0
C      1  0.4292680000000  0.4554270000000  0.5109130000000 1.0
C      1  0.5516640000000  0.4332250000000  0.5029230000000 1.0
C      1  0.5820730000000  0.5643690000000  0.5031720000000 1.0
C      1  0.4315100000000  0.5857880000000  0.5000560000000 1.0
C      1  0.4236680000000  0.5567120000000  0.5015230000000 1.0
C      1  0.5555660000000  0.5769910000000  0.5103010000000 1.0
C      1  0.5714700000000  0.4576210000000  0.5050950000000 1.0
C      1  0.4515100000000  0.4308980000000  0.5102120000000 1.0
C      1  0.4688080000000  0.4905950000000  0.5820450000000 1.0
C      1  0.5127110000000  0.4703130000000  0.5858350000000 1.0
C      1  0.5385470000000  0.5140920000000  0.5809190000000 1.0
C      1  0.4948190000000  0.5339810000000  0.5734730000000 1.0
C      1  0.4734360000000  0.5149420000000  0.5635720000000 1.0
C      1  0.5252370000000  0.5398620000000  0.5692750000000 1.0
C      1  0.5345760000000  0.4857390000000  0.5699500000000 1.0
C      1  0.4841320000000  0.4652990000000  0.5757520000000 1.0
C      1  0.4508240000000  0.4869560000000  0.5189920000000 1.0
C      1  0.5224890000000  0.4423090000000  0.5099320000000 1.0
C      1  0.5580390000000  0.5133860000000  0.5091020000000 1.0
C      1  0.4797730000000  0.5467500000000  0.5089730000000 1.0
C      1  0.4510080000000  0.5340580000000  0.5010850000000 1.0
C      1  0.5332890000000  0.5569380000000  0.5124930000000 1.0
C      1  0.5535970000000  0.4828200000000  0.5053320000000 1.0
C      1  0.4784970000000  0.4447140000000  0.5131000000000 1.0
C      1  0.4556620000000  0.5203850000000  0.3943490000000 1.0
C      1  0.4868450000000  0.4524480000000  0.4031360000000 1.0
C      1  0.5419640000000  0.4860400000000  0.4055140000000 1.0
C      1  0.5080090000000  0.5341980000000  0.4062300000000 1.0
C      1  0.4554970000000  0.4917110000000  0.4008320000000 1.0
C      1  0.4761560000000  0.5390970000000  0.4086060000000 1.0
C      1  0.5493390000000  0.5078100000000  0.3900530000000 1.0
C      1  0.5102230000000  0.4444200000000  0.3902350000000 1.0
C      1  0.4337230000000  0.5821050000000  0.5466030000000 1.0
C      1  0.4020530000000  0.4383670000000  0.5535240000000 1.0
C      1  0.5452620000000  0.4116030000000  0.5456690000000 1.0
C      1  0.5906140000000  0.5621400000000  0.5501190000000 1.0
C      1  0.4358150000000  0.4041380000000  0.5518050000000 1.0
C      1  0.4093140000000  0.5691480000000  0.5486050000000 1.0
C      1  0.5690560000000  0.5806920000000  0.5576310000000 1.0
C      1  0.5907490000000  0.4370570000000  0.5604200000000 1.0
C      1  0.5400960000000  0.4874590000000  0.4364710000000 1.0
C      1  0.5083180000000  0.5219550000000  0.4341270000000 1.0
C      1  0.4574330000000  0.5126660000000  0.4480000000000 1.0
C      1  0.4865060000000  0.4658140000000  0.4308580000000 1.0
C      1  0.5352970000000  0.5162860000000  0.4459590000000 1.0
C      1  0.5200050000000  0.4651120000000  0.4456560000000 1.0
C      1  0.4603340000000  0.4854390000000  0.4303060000000 1.0
C      1  0.4790810000000  0.5318050000000  0.4397140000000 1.0
C      1  0.5676220000000  0.5503280000000  0.3897060000000 1.0
C      1  0.4438870000000  0.5759900000000  0.4036340000000 1.0
C      1  0.4264300000000  0.4507900000000  0.4015420000000 1.0
C      1  0.5518030000000  0.4242050000000  0.3937030000000 1.0
C      1  0.5582570000000  0.4421980000000  0.4145920000000 1.0
C      1  0.4454810000000  0.4338030000000  0.4116510000000 1.0
C      1  0.4281980000000  0.5544470000000  0.4100560000000 1.0
C      1  0.5522430000000  0.5561590000000  0.4129640000000 1.0
C      1  0.4979910000000  0.5011610000000  0.5309300000000 1.0
END
