TITL C-3578195-8548-43 2.78134595010147e-06 125000 -425.644283054121 0 0 70 (C1) n - 1
REM
REM in /home/bkarasulu/work/CARBON/AIRSS/Generating-Clusters/EDIP-Nigel-Params/with-SteepDescent/Higher-Symm/SD-CG/HFTN-CG
REM
REM
REM
REM
REM
REM ./C.cell (12c818d87b63d06a65506943cc24bca4)
REM
REM compiler GCC version 9.2.1 20190827 (Red Hat 9.2.1-1)
REM options -cpp -mtune=generic -march=x86-64 -g -O0 -fpre-include=/usr/include/finclude/math-vector-fortran.h
REM seed 164883842 -1522770098 -1460867725 244080643 -49161707 -1532806543 -1747444938 -1043293821 -161994789 -1141534397 -1261095016 280167378 -339151778 1567299496 196813608 -1325983965 486661490 2115447652 -1122132233 312755725 -264739345 1067385744 -140312671 -1768707141 -118607943 -763417265 -464108784 2054109285 -514830768 476169914 776629984 266958186 1508535986
REM
CELL 1.54180   50.00000   50.00000   50.00000   90.00000   90.00000   90.00000
LATT -1
SFAC C  
C      1  0.4755000000000  0.4811470000000  0.4250790000000 1.0
C      1  0.4820580000000  0.5762760000000  0.5344660000000 1.0
C      1  0.4752300000000  0.4322530000000  0.5466730000000 1.0
C      1  0.5198530000000  0.4817490000000  0.4279130000000 1.0
C      1  0.5261550000000  0.5775640000000  0.5322820000000 1.0
C      1  0.5203270000000  0.4474140000000  0.5547290000000 1.0
C      1  0.4780490000000  0.4753300000000  0.5821730000000 1.0
C      1  0.4724730000000  0.5837710000000  0.4769280000000 1.0
C      1  0.4796310000000  0.4368030000000  0.4400070000000 1.0
C      1  0.5231470000000  0.4844150000000  0.5848640000000 1.0
C      1  0.5154250000000  0.5833170000000  0.4871780000000 1.0
C      1  0.5241770000000  0.4283070000000  0.4514820000000 1.0
C      1  0.4642810000000  0.5202250000000  0.4609170000000 1.0
C      1  0.4861610000000  0.5226930000000  0.5039900000000 1.0
C      1  0.4841810000000  0.4738910000000  0.5121950000000 1.0
C      1  0.5415700000000  0.5223000000000  0.4628390000000 1.0
C      1  0.5149520000000  0.5198970000000  0.5012860000000 1.0
C      1  0.5149730000000  0.4750340000000  0.5106090000000 1.0
C      1  0.4726790000000  0.5012430000000  0.5196890000000 1.0
C      1  0.4630700000000  0.5344930000000  0.4884230000000 1.0
C      1  0.4754010000000  0.4744240000000  0.4816830000000 1.0
C      1  0.5279490000000  0.5015790000000  0.5210270000000 1.0
C      1  0.5393710000000  0.5333890000000  0.4896840000000 1.0
C      1  0.5188890000000  0.4777850000000  0.4802700000000 1.0
C      1  0.4591060000000  0.4489730000000  0.4572760000000 1.0
C      1  0.4600810000000  0.5641940000000  0.4924360000000 1.0
C      1  0.4607520000000  0.4792600000000  0.5590130000000 1.0
C      1  0.5389520000000  0.4498700000000  0.4620690000000 1.0
C      1  0.5381260000000  0.5641520000000  0.4825000000000 1.0
C      1  0.5414980000000  0.4911830000000  0.5617630000000 1.0
C      1  0.4585950000000  0.4544860000000  0.5409620000000 1.0
C      1  0.4578770000000  0.5653570000000  0.5224810000000 1.0
C      1  0.4517210000000  0.4752110000000  0.4418380000000 1.0
C      1  0.5407630000000  0.4655230000000  0.5447870000000 1.0
C      1  0.5484860000000  0.5655450000000  0.5191720000000 1.0
C      1  0.5432290000000  0.4740190000000  0.4438540000000 1.0
C      1  0.4479420000000  0.5389740000000  0.5327190000000 1.0
C      1  0.4496920000000  0.4549760000000  0.5117970000000 1.0
C      1  0.4436260000000  0.4986240000000  0.4588960000000 1.0
C      1  0.5582740000000  0.5407420000000  0.5315320000000 1.0
C      1  0.5524380000000  0.4559950000000  0.5194060000000 1.0
C      1  0.5542220000000  0.4951310000000  0.4619190000000 1.0
C      1  0.4693980000000  0.5366280000000  0.4377430000000 1.0
C      1  0.4597970000000  0.4348440000000  0.4922190000000 1.0
C      1  0.4657620000000  0.5091800000000  0.5485910000000 1.0
C      1  0.5372430000000  0.5464940000000  0.4473090000000 1.0
C      1  0.5353510000000  0.4426010000000  0.4998320000000 1.0
C      1  0.5380240000000  0.5218320000000  0.5489640000000 1.0
C      1  0.4907550000000  0.5173760000000  0.5638820000000 1.0
C      1  0.5160360000000  0.5437360000000  0.4301680000000 1.0
C      1  0.4939900000000  0.5267840000000  0.4288160000000 1.0
C      1  0.5123220000000  0.5357930000000  0.5567380000000 1.0
C      1  0.5084160000000  0.4318070000000  0.5084120000000 1.0
C      1  0.4885230000000  0.4326420000000  0.4867810000000 1.0
C      1  0.4392250000000  0.5275010000000  0.5066940000000 1.0
C      1  0.4440450000000  0.4990560000000  0.5093980000000 1.0
C      1  0.5641320000000  0.5262650000000  0.5065270000000 1.0
C      1  0.5572690000000  0.4989250000000  0.5125320000000 1.0
C      1  0.4446200000000  0.4827800000000  0.4847760000000 1.0
C      1  0.5562910000000  0.4801470000000  0.4892260000000 1.0
C      1  0.4975020000000  0.4259820000000  0.4595880000000 1.0
C      1  0.4963540000000  0.4981720000000  0.5852830000000 1.0
C      1  0.4999760000000  0.4397210000000  0.5354000000000 1.0
C      1  0.4969360000000  0.5897020000000  0.4672070000000 1.0
C      1  0.4966970000000  0.4981630000000  0.4381160000000 1.0
C      1  0.5051570000000  0.5593100000000  0.5412370000000 1.0
C      1  0.4913600000000  0.4566370000000  0.4218990000000 1.0
C      1  0.5114690000000  0.4571050000000  0.5804460000000 1.0
C      1  0.5100210000000  0.5933650000000  0.5137830000000 1.0
C      1  0.4947750000000  0.4966690000000  0.4694400000000 1.0
END
