TITL C-3577084-3642-381 -4.23751270387237e-06 125000 -1253.42427756201 0 0 198 (C1) n - 1
REM
REM in /home/bkarasulu/work/CARBON/AIRSS/Generating-Clusters/EDIP-Nigel-Params/with-SteepDescent/Higher-Symm/SD-CG/HFTN-CG
REM
REM
REM
REM
REM
REM ./C.cell (12c818d87b63d06a65506943cc24bca4)
REM
REM compiler GCC version 9.2.1 20190827 (Red Hat 9.2.1-1)
REM options -cpp -mtune=generic -march=x86-64 -g -O0 -fpre-include=/usr/include/finclude/math-vector-fortran.h
REM seed 2122637363 -544450775 586511287 534698685 -1523262918 105711214 -684649756 1101057697 241452545 -1835644424 1343203240 1684075021 -1947910935 928032298 1903782797 1721183020 -478758176 1467912773 -532000907 331525640 2025383818 394207328 1013704719 1584652050 -2066680606 1075959444 619347314 77657009 -444546397 146473416 -1925124276 1726857013 991129526
REM
CELL 1.54180   50.00000   50.00000   50.00000   90.00000   90.00000   90.00000
LATT -1
SFAC C  
C      1  0.5292640000000  0.4273950000000  0.5832870000000 1.0
C      1  0.5263820000000  0.3878680000000  0.5173890000000 1.0
C      1  0.5289910000000  0.4002120000000  0.4390820000000 1.0
C      1  0.5300240000000  0.4622990000000  0.3887760000000 1.0
C      1  0.5296090000000  0.5392750000000  0.3925110000000 1.0
C      1  0.5286800000000  0.6007310000000  0.4436030000000 1.0
C      1  0.5281340000000  0.6108260000000  0.5227420000000 1.0
C      1  0.5278310000000  0.5683590000000  0.5881430000000 1.0
C      1  0.5306250000000  0.4976580000000  0.6179250000000 1.0
C      1  0.4643900000000  0.5890190000000  0.4238380000000 1.0
C      1  0.4680070000000  0.6135160000000  0.4993310000000 1.0
C      1  0.4706190000000  0.5871280000000  0.5741020000000 1.0
C      1  0.4683050000000  0.5184730000000  0.6157150000000 1.0
C      1  0.4636270000000  0.4385470000000  0.6026180000000 1.0
C      1  0.4695620000000  0.3988110000000  0.5380350000000 1.0
C      1  0.4693320000000  0.3917090000000  0.4585780000000 1.0
C      1  0.4643920000000  0.4399170000000  0.3938490000000 1.0
C      1  0.4677510000000  0.5171710000000  0.3877300000000 1.0
C      1  0.5086100000000  0.5631170000000  0.4267820000000 1.0
C      1  0.5106230000000  0.5947590000000  0.4847900000000 1.0
C      1  0.5072070000000  0.5731110000000  0.5471190000000 1.0
C      1  0.5107510000000  0.5261650000000  0.5912700000000 1.0
C      1  0.5075590000000  0.4611060000000  0.6017310000000 1.0
C      1  0.5103300000000  0.4251150000000  0.5418290000000 1.0
C      1  0.5103260000000  0.4088930000000  0.4788250000000 1.0
C      1  0.5089320000000  0.4370690000000  0.4183260000000 1.0
C      1  0.5103940000000  0.5003020000000  0.4037060000000 1.0
C      1  0.5997580000000  0.5202710000000  0.4628660000000 1.0
C      1  0.5975160000000  0.5402070000000  0.4861860000000 1.0
C      1  0.6008220000000  0.5399610000000  0.5169710000000 1.0
C      1  0.6002810000000  0.5214410000000  0.5417790000000 1.0
C      1  0.5992420000000  0.4916630000000  0.5450030000000 1.0
C      1  0.6000180000000  0.4671700000000  0.5268220000000 1.0
C      1  0.5988160000000  0.4550810000000  0.4985450000000 1.0
C      1  0.6001230000000  0.4646460000000  0.4698930000000 1.0
C      1  0.5985100000000  0.4909600000000  0.4551650000000 1.0
C      1  0.4541380000000  0.5054280000000  0.5400320000000 1.0
C      1  0.4566280000000  0.4774140000000  0.5461350000000 1.0
C      1  0.4546820000000  0.4652230000000  0.5196870000000 1.0
C      1  0.4573730000000  0.4636910000000  0.4808760000000 1.0
C      1  0.4598540000000  0.4768820000000  0.4548550000000 1.0
C      1  0.4553760000000  0.5057980000000  0.4534090000000 1.0
C      1  0.4573320000000  0.5400190000000  0.4709530000000 1.0
C      1  0.4542830000000  0.5371030000000  0.5002620000000 1.0
C      1  0.4488640000000  0.5128640000000  0.5132200000000 1.0
C      1  0.5313180000000  0.4904180000000  0.3821770000000 1.0
C      1  0.5307140000000  0.5636960000000  0.4080670000000 1.0
C      1  0.5306640000000  0.6132670000000  0.4701000000000 1.0
C      1  0.5289400000000  0.5944260000000  0.5468900000000 1.0
C      1  0.5304810000000  0.5451380000000  0.6054770000000 1.0
C      1  0.5327940000000  0.4692010000000  0.6145120000000 1.0
C      1  0.5295040000000  0.4108050000000  0.5602500000000 1.0
C      1  0.5288150000000  0.3858770000000  0.4880120000000 1.0
C      1  0.5315140000000  0.4191650000000  0.4172580000000 1.0
C      1  0.5554620000000  0.5835870000000  0.5518650000000 1.0
C      1  0.5594220000000  0.5348800000000  0.6041580000000 1.0
C      1  0.5579750000000  0.4624140000000  0.5994860000000 1.0
C      1  0.5565590000000  0.4121510000000  0.5486790000000 1.0
C      1  0.5568060000000  0.3931480000000  0.4792270000000 1.0
C      1  0.5566660000000  0.4343610000000  0.4191190000000 1.0
C      1  0.5595810000000  0.5002110000000  0.3905690000000 1.0
C      1  0.5560740000000  0.5654260000000  0.4230610000000 1.0
C      1  0.5585290000000  0.6075510000000  0.4817550000000 1.0
C      1  0.5722400000000  0.5868880000000  0.4647560000000 1.0
C      1  0.5715950000000  0.5844910000000  0.5275930000000 1.0
C      1  0.5746010000000  0.5490240000000  0.5822540000000 1.0
C      1  0.5748070000000  0.4864620000000  0.5946440000000 1.0
C      1  0.5686120000000  0.4371700000000  0.5581070000000 1.0
C      1  0.5723070000000  0.4061760000000  0.5015260000000 1.0
C      1  0.5719710000000  0.4263070000000  0.4425470000000 1.0
C      1  0.5733090000000  0.4792310000000  0.4069770000000 1.0
C      1  0.5693410000000  0.5395420000000  0.4228650000000 1.0
C      1  0.5933050000000  0.5346340000000  0.5661790000000 1.0
C      1  0.5913820000000  0.4855460000000  0.5715400000000 1.0
C      1  0.5915190000000  0.4474160000000  0.5450390000000 1.0
C      1  0.5909760000000  0.4275840000000  0.4979070000000 1.0
C      1  0.5922870000000  0.4431100000000  0.4531590000000 1.0
C      1  0.5908350000000  0.4875060000000  0.4279350000000 1.0
C      1  0.5913240000000  0.5335560000000  0.4394920000000 1.0
C      1  0.5882650000000  0.5664000000000  0.4775260000000 1.0
C      1  0.5934600000000  0.5662840000000  0.5251160000000 1.0
C      1  0.4248710000000  0.5609790000000  0.4328030000000 1.0
C      1  0.4248570000000  0.5906580000000  0.4897260000000 1.0
C      1  0.4259740000000  0.5778950000000  0.5515750000000 1.0
C      1  0.4267310000000  0.5261770000000  0.5891420000000 1.0
C      1  0.4227220000000  0.4638010000000  0.5877450000000 1.0
C      1  0.4245280000000  0.4188610000000  0.5402510000000 1.0
C      1  0.4263660000000  0.4091530000000  0.4771480000000 1.0
C      1  0.4245180000000  0.4419370000000  0.4242980000000 1.0
C      1  0.4239110000000  0.5034570000000  0.4068650000000 1.0
C      1  0.4643600000000  0.4660420000000  0.6112320000000 1.0
C      1  0.4673070000000  0.4159450000000  0.5613220000000 1.0
C      1  0.4684420000000  0.3879740000000  0.4875770000000 1.0
C      1  0.4661090000000  0.4207070000000  0.4153380000000 1.0
C      1  0.4663530000000  0.4882090000000  0.3901400000000 1.0
C      1  0.4653850000000  0.5641190000000  0.4091550000000 1.0
C      1  0.4665430000000  0.6064020000000  0.4711720000000 1.0
C      1  0.4681200000000  0.6026120000000  0.5490630000000 1.0
C      1  0.4679850000000  0.5455270000000  0.6048420000000 1.0
C      1  0.4046740000000  0.5474610000000  0.4472550000000 1.0
C      1  0.4055640000000  0.5700890000000  0.4911930000000 1.0
C      1  0.4087520000000  0.5608200000000  0.5367560000000 1.0
C      1  0.4078800000000  0.5216540000000  0.5684390000000 1.0
C      1  0.4052880000000  0.4723530000000  0.5666150000000 1.0
C      1  0.4048710000000  0.4365880000000  0.5307650000000 1.0
C      1  0.4090620000000  0.4304820000000  0.4843780000000 1.0
C      1  0.4063840000000  0.4552570000000  0.4419110000000 1.0
C      1  0.4050810000000  0.5029080000000  0.4278410000000 1.0
C      1  0.5500510000000  0.5941760000000  0.5075010000000 1.0
C      1  0.5500830000000  0.5592390000000  0.5679730000000 1.0
C      1  0.5518150000000  0.5065700000000  0.5969160000000 1.0
C      1  0.5468660000000  0.4513630000000  0.5740640000000 1.0
C      1  0.5485880000000  0.4099450000000  0.5198520000000 1.0
C      1  0.5525830000000  0.4082670000000  0.4549600000000 1.0
C      1  0.5488080000000  0.4628830000000  0.4139360000000 1.0
C      1  0.5491650000000  0.5218490000000  0.4089810000000 1.0
C      1  0.5480320000000  0.5774020000000  0.4492250000000 1.0
C      1  0.4413480000000  0.3945930000000  0.4977850000000 1.0
C      1  0.4408080000000  0.4186580000000  0.4298050000000 1.0
C      1  0.4405470000000  0.4804010000000  0.3999950000000 1.0
C      1  0.4394750000000  0.5513810000000  0.4097960000000 1.0
C      1  0.4407540000000  0.5947130000000  0.4656350000000 1.0
C      1  0.4403670000000  0.6004200000000  0.5380890000000 1.0
C      1  0.4422800000000  0.5508410000000  0.5908080000000 1.0
C      1  0.4396510000000  0.4800070000000  0.6050410000000 1.0
C      1  0.4411450000000  0.4270930000000  0.5626270000000 1.0
C      1  0.4977940000000  0.4017770000000  0.5252170000000 1.0
C      1  0.4977400000000  0.4038870000000  0.4505020000000 1.0
C      1  0.5010310000000  0.4531890000000  0.3952390000000 1.0
C      1  0.4968670000000  0.5274850000000  0.3947630000000 1.0
C      1  0.5005380000000  0.5897060000000  0.4372650000000 1.0
C      1  0.4980260000000  0.6075720000000  0.5100000000000 1.0
C      1  0.4983760000000  0.5715860000000  0.5760870000000 1.0
C      1  0.4971890000000  0.5057740000000  0.6106550000000 1.0
C      1  0.5008550000000  0.4344040000000  0.5912930000000 1.0
C      1  0.5570930000000  0.5036720000000  0.5194790000000 1.0
C      1  0.5458190000000  0.4806650000000  0.5286520000000 1.0
C      1  0.5496630000000  0.4591540000000  0.5106220000000 1.0
C      1  0.5551300000000  0.4661220000000  0.4839070000000 1.0
C      1  0.5518890000000  0.4861710000000  0.4647460000000 1.0
C      1  0.5481010000000  0.5111290000000  0.4762550000000 1.0
C      1  0.5538950000000  0.5381870000000  0.4792840000000 1.0
C      1  0.5586520000000  0.5481040000000  0.5059740000000 1.0
C      1  0.5591420000000  0.5296300000000  0.5277890000000 1.0
C      1  0.5013780000000  0.4750320000000  0.5180390000000 1.0
C      1  0.5075270000000  0.4606200000000  0.4828280000000 1.0
C      1  0.5068230000000  0.4789930000000  0.4566660000000 1.0
C      1  0.5016520000000  0.5104350000000  0.4623830000000 1.0
C      1  0.5048890000000  0.5392850000000  0.4774680000000 1.0
C      1  0.5010960000000  0.5403180000000  0.5087680000000 1.0
C      1  0.5133030000000  0.5404180000000  0.5375420000000 1.0
C      1  0.4990280000000  0.5160240000000  0.5496790000000 1.0
C      1  0.5042420000000  0.4853620000000  0.5462060000000 1.0
C      1  0.4869570000000  0.4292700000000  0.4351180000000 1.0
C      1  0.4890150000000  0.4782240000000  0.4076020000000 1.0
C      1  0.4869500000000  0.5443920000000  0.4190480000000 1.0
C      1  0.4887520000000  0.5866980000000  0.4652090000000 1.0
C      1  0.4853020000000  0.5861390000000  0.5297040000000 1.0
C      1  0.4877830000000  0.5434900000000  0.5825790000000 1.0
C      1  0.4863810000000  0.4796130000000  0.5963080000000 1.0
C      1  0.4892940000000  0.4368090000000  0.5626160000000 1.0
C      1  0.4871550000000  0.4092940000000  0.4974250000000 1.0
C      1  0.4460440000000  0.4095230000000  0.4559900000000 1.0
C      1  0.4385550000000  0.4523520000000  0.4008780000000 1.0
C      1  0.4440260000000  0.5243420000000  0.4037130000000 1.0
C      1  0.4397240000000  0.5850730000000  0.4388670000000 1.0
C      1  0.4447840000000  0.5985150000000  0.5096840000000 1.0
C      1  0.4497870000000  0.5656910000000  0.5655340000000 1.0
C      1  0.4452680000000  0.5075440000000  0.6010280000000 1.0
C      1  0.4378470000000  0.4387390000000  0.5882020000000 1.0
C      1  0.4451910000000  0.4065680000000  0.5235500000000 1.0
C      1  0.5343860000000  0.4806890000000  0.4412970000000 1.0
C      1  0.5286670000000  0.5068080000000  0.4275700000000 1.0
C      1  0.5334410000000  0.5556970000000  0.4691940000000 1.0
C      1  0.5290930000000  0.5716110000000  0.4959740000000 1.0
C      1  0.5409940000000  0.5346820000000  0.5503360000000 1.0
C      1  0.5378490000000  0.5081130000000  0.5691630000000 1.0
C      1  0.5335450000000  0.4796050000000  0.5557880000000 1.0
C      1  0.5330860000000  0.4356260000000  0.5120410000000 1.0
C      1  0.5234510000000  0.4352500000000  0.4837890000000 1.0
C      1  0.4028470000000  0.5366070000000  0.5234490000000 1.0
C      1  0.4017110000000  0.5132670000000  0.5421850000000 1.0
C      1  0.4014260000000  0.4832860000000  0.5407120000000 1.0
C      1  0.4009600000000  0.4620890000000  0.5192570000000 1.0
C      1  0.4035740000000  0.4577000000000  0.4896310000000 1.0
C      1  0.4020100000000  0.4724870000000  0.4639370000000 1.0
C      1  0.4013280000000  0.5010530000000  0.4557420000000 1.0
C      1  0.4011900000000  0.5284420000000  0.4677660000000 1.0
C      1  0.4007760000000  0.5423880000000  0.4942350000000 1.0
C      1  0.4794190000000  0.5210600000000  0.4451750000000 1.0
C      1  0.4823080000000  0.5572430000000  0.4694020000000 1.0
C      1  0.4740420000000  0.5536500000000  0.5162360000000 1.0
C      1  0.4647780000000  0.5484130000000  0.5452000000000 1.0
C      1  0.4715280000000  0.5228880000000  0.5564690000000 1.0
C      1  0.4825200000000  0.4702260000000  0.5621720000000 1.0
C      1  0.4809400000000  0.4547280000000  0.5171240000000 1.0
C      1  0.4803920000000  0.4465080000000  0.4891740000000 1.0
C      1  0.4843460000000  0.4676210000000  0.4389680000000 1.0
END
