TITL C-3577082-504-232 1.88004291159089e-06 125000 -551.50106510123 0 0 88 (C1) n - 1
REM
REM in /home/bkarasulu/work/CARBON/AIRSS/Generating-Clusters/EDIP-Nigel-Params/with-SteepDescent/Higher-Symm/SD-CG/HFTN-CG
REM
REM
REM
REM
REM
REM ./C.cell (12c818d87b63d06a65506943cc24bca4)
REM
REM compiler GCC version 9.2.1 20190827 (Red Hat 9.2.1-1)
REM options -cpp -mtune=generic -march=x86-64 -g -O0 -fpre-include=/usr/include/finclude/math-vector-fortran.h
REM seed 2000685064 -2000915424 -1985319522 -851833675 -424827121 -637896556 1563275701 1312226579 1932293819 -1183780452 912324038 -1503960682 2089513395 -437178420 -1407638080 1226150675 901625029 2017295475 -1730717020 -452305521 -373926799 991960677 1681298126 -1207288122 -2108349053 1236750300 2105575865 475468023 1122323817 -1766086911 832649163 -478516229 -1948392495
REM
CELL 1.54180   50.00000   50.00000   50.00000   90.00000   90.00000   90.00000
LATT -1
SFAC C  
C      1  0.4783530000000  0.5109380000000  0.4689530000000 1.0
C      1  0.4801540000000  0.5083480000000  0.5339120000000 1.0
C      1  0.4938770000000  0.5631570000000  0.4429460000000 1.0
C      1  0.4934370000000  0.5625330000000  0.5558170000000 1.0
C      1  0.4742910000000  0.4272800000000  0.4843770000000 1.0
C      1  0.4737750000000  0.4267950000000  0.5163620000000 1.0
C      1  0.5282100000000  0.4140970000000  0.4855930000000 1.0
C      1  0.5281610000000  0.4140250000000  0.5151400000000 1.0
C      1  0.4277040000000  0.4895910000000  0.4840520000000 1.0
C      1  0.4282170000000  0.4900450000000  0.5145230000000 1.0
C      1  0.5659460000000  0.5403650000000  0.5148300000000 1.0
C      1  0.5669550000000  0.5402090000000  0.4852210000000 1.0
C      1  0.4538120000000  0.5201080000000  0.4179740000000 1.0
C      1  0.4532440000000  0.5211160000000  0.5796730000000 1.0
C      1  0.4717230000000  0.4781610000000  0.5716650000000 1.0
C      1  0.4723770000000  0.4787400000000  0.4300050000000 1.0
C      1  0.4443160000000  0.5436330000000  0.5648780000000 1.0
C      1  0.4441650000000  0.5427200000000  0.4318090000000 1.0
C      1  0.5560260000000  0.5155160000000  0.4453240000000 1.0
C      1  0.5553700000000  0.5157000000000  0.5553590000000 1.0
C      1  0.5482500000000  0.5582670000000  0.5309630000000 1.0
C      1  0.5493550000000  0.5581140000000  0.4693720000000 1.0
C      1  0.4520030000000  0.4673650000000  0.5550240000000 1.0
C      1  0.4521620000000  0.4672510000000  0.4452470000000 1.0
C      1  0.4651740000000  0.5560440000000  0.4480390000000 1.0
C      1  0.4653160000000  0.5557840000000  0.5484560000000 1.0
C      1  0.5290140000000  0.4746800000000  0.5160200000000 1.0
C      1  0.5288420000000  0.4749360000000  0.4837120000000 1.0
C      1  0.5547550000000  0.4659360000000  0.4456790000000 1.0
C      1  0.5543180000000  0.4661500000000  0.5548900000000 1.0
C      1  0.5174320000000  0.4909040000000  0.5798320000000 1.0
C      1  0.5174700000000  0.4911800000000  0.4218280000000 1.0
C      1  0.4937030000000  0.4236570000000  0.4515670000000 1.0
C      1  0.4934700000000  0.4236720000000  0.5490730000000 1.0
C      1  0.5041630000000  0.4064540000000  0.5289210000000 1.0
C      1  0.5042870000000  0.4064270000000  0.4717570000000 1.0
C      1  0.4997370000000  0.4624630000000  0.5161520000000 1.0
C      1  0.4995970000000  0.4633070000000  0.4843700000000 1.0
C      1  0.5022790000000  0.5474570000000  0.4877410000000 1.0
C      1  0.4927740000000  0.5438250000000  0.5161310000000 1.0
C      1  0.4262290000000  0.5243780000000  0.5519910000000 1.0
C      1  0.4257680000000  0.5232490000000  0.4446440000000 1.0
C      1  0.4311320000000  0.5182450000000  0.5242050000000 1.0
C      1  0.4297010000000  0.5176330000000  0.4728180000000 1.0
C      1  0.5407530000000  0.4911430000000  0.5624430000000 1.0
C      1  0.5413640000000  0.4910700000000  0.4381930000000 1.0
C      1  0.5069490000000  0.5199380000000  0.5277220000000 1.0
C      1  0.5059040000000  0.5215820000000  0.4748720000000 1.0
C      1  0.5582900000000  0.4645730000000  0.4761010000000 1.0
C      1  0.5581430000000  0.4645510000000  0.5244490000000 1.0
C      1  0.5014980000000  0.5805880000000  0.4672500000000 1.0
C      1  0.5020180000000  0.5786850000000  0.5304970000000 1.0
C      1  0.5411660000000  0.5426290000000  0.5569450000000 1.0
C      1  0.5419770000000  0.5424970000000  0.4436690000000 1.0
C      1  0.4770130000000  0.5847550000000  0.5131960000000 1.0
C      1  0.4764150000000  0.5829460000000  0.4837410000000 1.0
C      1  0.5382920000000  0.4410330000000  0.4447490000000 1.0
C      1  0.5380400000000  0.4412020000000  0.5558910000000 1.0
C      1  0.5287830000000  0.5750310000000  0.5160610000000 1.0
C      1  0.5260490000000  0.5684700000000  0.4859290000000 1.0
C      1  0.4758590000000  0.4821150000000  0.5172290000000 1.0
C      1  0.4755130000000  0.4830280000000  0.4835350000000 1.0
C      1  0.5309350000000  0.5060910000000  0.5155470000000 1.0
C      1  0.5305910000000  0.5064520000000  0.4847210000000 1.0
C      1  0.5754910000000  0.4884620000000  0.5151650000000 1.0
C      1  0.5754780000000  0.4884770000000  0.4855150000000 1.0
C      1  0.4754890000000  0.5069550000000  0.5666920000000 1.0
C      1  0.4751840000000  0.5077320000000  0.4339270000000 1.0
C      1  0.4553140000000  0.5669770000000  0.4724940000000 1.0
C      1  0.4561710000000  0.5689960000000  0.5248040000000 1.0
C      1  0.4470010000000  0.4427760000000  0.5152340000000 1.0
C      1  0.4473500000000  0.4429350000000  0.4850570000000 1.0
C      1  0.5123880000000  0.5413900000000  0.5659960000000 1.0
C      1  0.5128630000000  0.5410390000000  0.4358470000000 1.0
C      1  0.5013050000000  0.5161650000000  0.5792880000000 1.0
C      1  0.5016820000000  0.5164090000000  0.4225940000000 1.0
C      1  0.5473860000000  0.4279150000000  0.5313930000000 1.0
C      1  0.5475620000000  0.4278700000000  0.4693630000000 1.0
C      1  0.5599340000000  0.5130130000000  0.5255980000000 1.0
C      1  0.5599710000000  0.5129780000000  0.4749960000000 1.0
C      1  0.4551880000000  0.5326020000000  0.5122660000000 1.0
C      1  0.4552500000000  0.5299400000000  0.4815910000000 1.0
C      1  0.5095250000000  0.4464360000000  0.4444380000000 1.0
C      1  0.5092240000000  0.4464200000000  0.5564900000000 1.0
C      1  0.4494160000000  0.4700450000000  0.5264640000000 1.0
C      1  0.4495750000000  0.4702260000000  0.4736510000000 1.0
C      1  0.4994670000000  0.4679180000000  0.4269350000000 1.0
C      1  0.4991940000000  0.4674930000000  0.5746170000000 1.0
END
