TITL C-3578202-4305-477 8.05352823958408e-07 125000 -1224.04046218786 0 0 195 (C1) n - 1
REM
REM in /home/bkarasulu/work/CARBON/AIRSS/Generating-Clusters/EDIP-Nigel-Params/with-SteepDescent/Higher-Symm/SD-CG/HFTN-CG
REM
REM
REM
REM
REM
REM ./C.cell (12c818d87b63d06a65506943cc24bca4)
REM
REM compiler GCC version 9.2.1 20190827 (Red Hat 9.2.1-1)
REM options -cpp -mtune=generic -march=x86-64 -g -O0 -fpre-include=/usr/include/finclude/math-vector-fortran.h
REM seed 1847484749 1943097238 204311120 -113524536 -43226859 -1814866851 19860948 1098740703 2100748978 1699262404 -825784332 588397314 -2089436048 -524177998 976218003 1931581144 990581286 731038994 -1000932214 1981858286 -1368225779 394959207 256024927 -1628891445 412319684 -220536120 -275901146 815252004 -831688855 -188885629 -1626585612 963114243 104614593
REM
CELL 1.54180   50.00000   50.00000   50.00000   90.00000   90.00000   90.00000
LATT -1
SFAC C  
C      1  0.5620370000000  0.5125660000000  0.5803220000000 1.0
C      1  0.4364520000000  0.5129840000000  0.5882930000000 1.0
C      1  0.3988020000000  0.5147680000000  0.4675380000000 1.0
C      1  0.4997580000000  0.5152580000000  0.3883950000000 1.0
C      1  0.5904880000000  0.5152470000000  0.4632790000000 1.0
C      1  0.5664630000000  0.4844570000000  0.5806360000000 1.0
C      1  0.4400080000000  0.4850050000000  0.5914690000000 1.0
C      1  0.3971460000000  0.4861660000000  0.4706180000000 1.0
C      1  0.4980940000000  0.4868500000000  0.3906600000000 1.0
C      1  0.5884980000000  0.4869290000000  0.4640060000000 1.0
C      1  0.6022290000000  0.5281560000000  0.5535740000000 1.0
C      1  0.4795460000000  0.5313240000000  0.6120540000000 1.0
C      1  0.3858950000000  0.5327100000000  0.5150550000000 1.0
C      1  0.4539210000000  0.5330090000000  0.3972520000000 1.0
C      1  0.5822040000000  0.5298940000000  0.4174140000000 1.0
C      1  0.6013600000000  0.4723140000000  0.5452500000000 1.0
C      1  0.4861620000000  0.4773340000000  0.6098020000000 1.0
C      1  0.3869700000000  0.4766270000000  0.5187730000000 1.0
C      1  0.4506270000000  0.4765950000000  0.4000450000000 1.0
C      1  0.5795910000000  0.4720640000000  0.4174350000000 1.0
C      1  0.5089170000000  0.4741480000000  0.4824350000000 1.0
C      1  0.5143420000000  0.4826580000000  0.5101290000000 1.0
C      1  0.4962170000000  0.4678560000000  0.5282020000000 1.0
C      1  0.4601350000000  0.4636660000000  0.4947520000000 1.0
C      1  0.4794090000000  0.4830100000000  0.4823670000000 1.0
C      1  0.5181750000000  0.5241230000000  0.4832450000000 1.0
C      1  0.5185390000000  0.5269660000000  0.5128980000000 1.0
C      1  0.4899300000000  0.5205810000000  0.5214090000000 1.0
C      1  0.4751780000000  0.5091460000000  0.4970950000000 1.0
C      1  0.4897490000000  0.5258570000000  0.4749410000000 1.0
C      1  0.5394770000000  0.5240700000000  0.5941170000000 1.0
C      1  0.4212140000000  0.5242020000000  0.5661470000000 1.0
C      1  0.4159660000000  0.5258490000000  0.4464520000000 1.0
C      1  0.5238630000000  0.5273920000000  0.3968180000000 1.0
C      1  0.5987000000000  0.5286080000000  0.4869280000000 1.0
C      1  0.5487360000000  0.4681730000000  0.5966270000000 1.0
C      1  0.4191890000000  0.4679150000000  0.5827410000000 1.0
C      1  0.4082590000000  0.4692480000000  0.4507720000000 1.0
C      1  0.5214120000000  0.4716490000000  0.3974580000000 1.0
C      1  0.5988650000000  0.4736770000000  0.4867770000000 1.0
C      1  0.5493530000000  0.5591550000000  0.5272540000000 1.0
C      1  0.5016040000000  0.5540710000000  0.5564230000000 1.0
C      1  0.4444650000000  0.5575320000000  0.5118200000000 1.0
C      1  0.4643270000000  0.5583820000000  0.4583130000000 1.0
C      1  0.5311400000000  0.5555500000000  0.4544590000000 1.0
C      1  0.5523360000000  0.4454410000000  0.5111860000000 1.0
C      1  0.5288440000000  0.4498320000000  0.5526680000000 1.0
C      1  0.4525270000000  0.4544390000000  0.5410410000000 1.0
C      1  0.4607630000000  0.4440330000000  0.4700820000000 1.0
C      1  0.5321790000000  0.4410050000000  0.4567080000000 1.0
C      1  0.4841900000000  0.5550770000000  0.4810060000000 1.0
C      1  0.5146690000000  0.5681350000000  0.4832880000000 1.0
C      1  0.5219950000000  0.5566390000000  0.5133090000000 1.0
C      1  0.4977550000000  0.5657890000000  0.5287380000000 1.0
C      1  0.4747560000000  0.5531560000000  0.5102890000000 1.0
C      1  0.4873650000000  0.4301730000000  0.4739700000000 1.0
C      1  0.5127650000000  0.4441870000000  0.4802730000000 1.0
C      1  0.5254940000000  0.4337240000000  0.5068540000000 1.0
C      1  0.5094280000000  0.4410350000000  0.5313000000000 1.0
C      1  0.4723040000000  0.4523090000000  0.5196220000000 1.0
C      1  0.5527520000000  0.3958080000000  0.5243670000000 1.0
C      1  0.4942210000000  0.4071270000000  0.5533470000000 1.0
C      1  0.4499540000000  0.4075640000000  0.5116760000000 1.0
C      1  0.4739050000000  0.3957170000000  0.4492560000000 1.0
C      1  0.5427250000000  0.3980280000000  0.4565990000000 1.0
C      1  0.5530740000000  0.6032360000000  0.5281850000000 1.0
C      1  0.4899750000000  0.6034680000000  0.5566230000000 1.0
C      1  0.4490970000000  0.6074340000000  0.5141340000000 1.0
C      1  0.4798360000000  0.6036810000000  0.4535310000000 1.0
C      1  0.5449450000000  0.6012620000000  0.4546390000000 1.0
C      1  0.5375100000000  0.4089700000000  0.4274300000000 1.0
C      1  0.5795150000000  0.4063650000000  0.5131340000000 1.0
C      1  0.5134220000000  0.4117810000000  0.5755620000000 1.0
C      1  0.4326310000000  0.4120540000000  0.5356920000000 1.0
C      1  0.4461120000000  0.4078660000000  0.4435830000000 1.0
C      1  0.5408980000000  0.5918370000000  0.4262490000000 1.0
C      1  0.5785100000000  0.5911220000000  0.5193780000000 1.0
C      1  0.5080650000000  0.5958120000000  0.5806700000000 1.0
C      1  0.4304170000000  0.5931560000000  0.5333240000000 1.0
C      1  0.4497150000000  0.5977200000000  0.4441930000000 1.0
C      1  0.4917570000000  0.4819060000000  0.5541670000000 1.0
C      1  0.4364570000000  0.4809190000000  0.5031670000000 1.0
C      1  0.4690960000000  0.4884690000000  0.4550030000000 1.0
C      1  0.5267230000000  0.4862260000000  0.4618200000000 1.0
C      1  0.5413830000000  0.4870750000000  0.5216080000000 1.0
C      1  0.4861650000000  0.5105150000000  0.5492190000000 1.0
C      1  0.4461600000000  0.5088800000000  0.5030670000000 1.0
C      1  0.4802050000000  0.5147750000000  0.4481470000000 1.0
C      1  0.5383670000000  0.5107580000000  0.4687120000000 1.0
C      1  0.5388980000000  0.5138910000000  0.5298640000000 1.0
C      1  0.4024130000000  0.5346600000000  0.4899080000000 1.0
C      1  0.4806530000000  0.5363150000000  0.3867570000000 1.0
C      1  0.5750560000000  0.5333320000000  0.4459450000000 1.0
C      1  0.5732560000000  0.5322620000000  0.5610520000000 1.0
C      1  0.4568780000000  0.5334680000000  0.5924940000000 1.0
C      1  0.3846210000000  0.4692700000000  0.4902040000000 1.0
C      1  0.4757420000000  0.4696640000000  0.3861420000000 1.0
C      1  0.5737790000000  0.4682380000000  0.4462880000000 1.0
C      1  0.5757060000000  0.4664990000000  0.5590590000000 1.0
C      1  0.4579510000000  0.4688850000000  0.6066160000000 1.0
C      1  0.5906900000000  0.4211460000000  0.5370620000000 1.0
C      1  0.4959720000000  0.4289760000000  0.5921050000000 1.0
C      1  0.4104190000000  0.4256410000000  0.5213490000000 1.0
C      1  0.4525570000000  0.4246250000000  0.4192000000000 1.0
C      1  0.5584820000000  0.4242870000000  0.4152350000000 1.0
C      1  0.5965030000000  0.5773310000000  0.5363240000000 1.0
C      1  0.4849640000000  0.5809290000000  0.5945290000000 1.0
C      1  0.4074100000000  0.5805940000000  0.5195830000000 1.0
C      1  0.4615010000000  0.5812770000000  0.4198900000000 1.0
C      1  0.5627730000000  0.5781910000000  0.4139210000000 1.0
C      1  0.5179310000000  0.5563560000000  0.4002690000000 1.0
C      1  0.5943360000000  0.5574090000000  0.4835940000000 1.0
C      1  0.5404440000000  0.5534440000000  0.5918640000000 1.0
C      1  0.4266610000000  0.5540730000000  0.5673180000000 1.0
C      1  0.4154380000000  0.5560180000000  0.4519960000000 1.0
C      1  0.5120410000000  0.4434040000000  0.4007470000000 1.0
C      1  0.5956670000000  0.4448410000000  0.4827580000000 1.0
C      1  0.5555210000000  0.4394810000000  0.5902270000000 1.0
C      1  0.4303540000000  0.4397730000000  0.5826870000000 1.0
C      1  0.4093970000000  0.4413510000000  0.4603660000000 1.0
C      1  0.5260050000000  0.4031230000000  0.5083190000000 1.0
C      1  0.4995210000000  0.3986990000000  0.5244580000000 1.0
C      1  0.4768660000000  0.3963030000000  0.5052180000000 1.0
C      1  0.4886490000000  0.4011230000000  0.4765290000000 1.0
C      1  0.5201310000000  0.3936310000000  0.4782330000000 1.0
C      1  0.5268470000000  0.6043070000000  0.5141930000000 1.0
C      1  0.4989200000000  0.5967110000000  0.5280090000000 1.0
C      1  0.4778450000000  0.6052040000000  0.5079420000000 1.0
C      1  0.4911920000000  0.6057440000000  0.4812130000000 1.0
C      1  0.5207620000000  0.5987340000000  0.4837290000000 1.0
C      1  0.5515910000000  0.4628050000000  0.5367640000000 1.0
C      1  0.5133810000000  0.4695880000000  0.5701860000000 1.0
C      1  0.4295270000000  0.4701420000000  0.5305040000000 1.0
C      1  0.4639860000000  0.4615540000000  0.4459010000000 1.0
C      1  0.5437540000000  0.4668720000000  0.4504100000000 1.0
C      1  0.5592680000000  0.5323390000000  0.5349000000000 1.0
C      1  0.4874160000000  0.5314850000000  0.5682220000000 1.0
C      1  0.4308530000000  0.5331790000000  0.5011070000000 1.0
C      1  0.4626450000000  0.5359410000000  0.4404800000000 1.0
C      1  0.5457070000000  0.5294270000000  0.4488050000000 1.0
C      1  0.3988020000000  0.5599920000000  0.4753480000000 1.0
C      1  0.4928500000000  0.5617770000000  0.3878130000000 1.0
C      1  0.5809210000000  0.5612660000000  0.4567850000000 1.0
C      1  0.5651830000000  0.5590330000000  0.5738760000000 1.0
C      1  0.4423310000000  0.5586350000000  0.5912680000000 1.0
C      1  0.3912930000000  0.4424540000000  0.4825960000000 1.0
C      1  0.4855240000000  0.4432420000000  0.3900390000000 1.0
C      1  0.5830600000000  0.4407800000000  0.4549890000000 1.0
C      1  0.5800050000000  0.4417500000000  0.5748230000000 1.0
C      1  0.4503990000000  0.4414340000000  0.6035530000000 1.0
C      1  0.3928140000000  0.5577070000000  0.5276330000000 1.0
C      1  0.4458970000000  0.5567310000000  0.4127760000000 1.0
C      1  0.5742400000000  0.5546250000000  0.4059070000000 1.0
C      1  0.6085720000000  0.5537110000000  0.5429360000000 1.0
C      1  0.4912490000000  0.5571370000000  0.6093900000000 1.0
C      1  0.4042790000000  0.4535740000000  0.5318200000000 1.0
C      1  0.4479080000000  0.4541980000000  0.4227890000000 1.0
C      1  0.5699730000000  0.4475710000000  0.4060440000000 1.0
C      1  0.6056050000000  0.4458190000000  0.5335860000000 1.0
C      1  0.5055510000000  0.4572530000000  0.5967900000000 1.0
C      1  0.5572960000000  0.4242290000000  0.4643120000000 1.0
C      1  0.5584690000000  0.4097120000000  0.5510730000000 1.0
C      1  0.4701270000000  0.4163680000000  0.5671170000000 1.0
C      1  0.4297600000000  0.4111130000000  0.4916220000000 1.0
C      1  0.4866450000000  0.4105820000000  0.4265620000000 1.0
C      1  0.5541200000000  0.5744390000000  0.4644990000000 1.0
C      1  0.5482300000000  0.5753960000000  0.5540190000000 1.0
C      1  0.4687940000000  0.5827630000000  0.5652970000000 1.0
C      1  0.4345590000000  0.5796880000000  0.4919640000000 1.0
C      1  0.4903360000000  0.5836390000000  0.4329560000000 1.0
C      1  0.4354720000000  0.4256100000000  0.4663950000000 1.0
C      1  0.5127890000000  0.4261970000000  0.4260040000000 1.0
C      1  0.5718590000000  0.4293880000000  0.4960990000000 1.0
C      1  0.5389480000000  0.4258080000000  0.5681460000000 1.0
C      1  0.4454500000000  0.4299060000000  0.5570150000000 1.0
C      1  0.4394920000000  0.5738540000000  0.4613620000000 1.0
C      1  0.5189190000000  0.5712350000000  0.4274160000000 1.0
C      1  0.5721110000000  0.5715540000000  0.4987790000000 1.0
C      1  0.5219780000000  0.5700650000000  0.5717480000000 1.0
C      1  0.4442630000000  0.5711930000000  0.5486050000000 1.0
C      1  0.3998940000000  0.4808100000000  0.5665200000000 1.0
C      1  0.4131610000000  0.4812440000000  0.4261460000000 1.0
C      1  0.5464250000000  0.4844810000000  0.3908220000000 1.0
C      1  0.6180120000000  0.4871770000000  0.5032940000000 1.0
C      1  0.5356320000000  0.4821260000000  0.6176140000000 1.0
C      1  0.3987440000000  0.5073760000000  0.5567070000000 1.0
C      1  0.4203410000000  0.5080950000000  0.4228120000000 1.0
C      1  0.5466670000000  0.5128490000000  0.3875550000000 1.0
C      1  0.6179460000000  0.5155340000000  0.5034820000000 1.0
C      1  0.5247020000000  0.5082130000000  0.6141960000000 1.0
C      1  0.4443800000000  0.5063490000000  0.4067910000000 1.0
C      1  0.4957420000000  0.5063230000000  0.6101600000000 1.0
C      1  0.3914520000000  0.5063200000000  0.5285480000000 1.0
C      1  0.5785040000000  0.5010630000000  0.4055430000000 1.0
C      1  0.6090760000000  0.5017650000000  0.5383210000000 1.0
END
