TITL C-3577084-3642-335 -1.0495811247143e-06 125000 -778.576678155303 0 0 125 (C1) n - 1
REM
REM in /home/bkarasulu/work/CARBON/AIRSS/Generating-Clusters/EDIP-Nigel-Params/with-SteepDescent/Higher-Symm/SD-CG/HFTN-CG
REM
REM
REM
REM
REM
REM ./C.cell (12c818d87b63d06a65506943cc24bca4)
REM
REM compiler GCC version 9.2.1 20190827 (Red Hat 9.2.1-1)
REM options -cpp -mtune=generic -march=x86-64 -g -O0 -fpre-include=/usr/include/finclude/math-vector-fortran.h
REM seed -523113262 1756353559 740312914 1529404258 564460723 -899831120 -877996647 141783602 757413314 -812504269 445734011 557610891 -1304385338 52407582 1011346867 -2059797629 -1339168577 818404728 780508839 -486489579 709255786 -958927561 -178251879 -1499199622 -2109437748 2113468361 -1998311052 -124948871 -1887262065 1285876783 833805166 324933591 2066790503
REM
CELL 1.54180   50.00000   50.00000   50.00000   90.00000   90.00000   90.00000
LATT -1
SFAC C  
C      1  0.5027470000000  0.5543880000000  0.4950480000000 1.0
C      1  0.5027990000000  0.4452750000000  0.5045080000000 1.0
C      1  0.4992210000000  0.3985820000000  0.5281530000000 1.0
C      1  0.4989480000000  0.6010660000000  0.4713640000000 1.0
C      1  0.4537280000000  0.4867730000000  0.5801220000000 1.0
C      1  0.4537470000000  0.5135440000000  0.4201700000000 1.0
C      1  0.5816850000000  0.4507610000000  0.5011960000000 1.0
C      1  0.5811940000000  0.5482480000000  0.4985520000000 1.0
C      1  0.4265530000000  0.4621990000000  0.5401510000000 1.0
C      1  0.4261180000000  0.5374060000000  0.4598770000000 1.0
C      1  0.5532740000000  0.4768780000000  0.5649980000000 1.0
C      1  0.5580530000000  0.5230030000000  0.4310440000000 1.0
C      1  0.5771060000000  0.5025670000000  0.4405140000000 1.0
C      1  0.5746360000000  0.4965010000000  0.5585400000000 1.0
C      1  0.4834430000000  0.5328180000000  0.5835260000000 1.0
C      1  0.4836360000000  0.4675830000000  0.4165730000000 1.0
C      1  0.4519510000000  0.4743910000000  0.5518430000000 1.0
C      1  0.4516880000000  0.5252390000000  0.4487350000000 1.0
C      1  0.4947000000000  0.4103090000000  0.4707330000000 1.0
C      1  0.4948940000000  0.5888550000000  0.5288710000000 1.0
C      1  0.4762650000000  0.5874250000000  0.4825410000000 1.0
C      1  0.4765820000000  0.4123660000000  0.5171200000000 1.0
C      1  0.4612800000000  0.4958150000000  0.5347240000000 1.0
C      1  0.4603010000000  0.5028640000000  0.4648300000000 1.0
C      1  0.4031180000000  0.5022060000000  0.5139470000000 1.0
C      1  0.4027180000000  0.4971040000000  0.4858890000000 1.0
C      1  0.5299870000000  0.4535600000000  0.5157980000000 1.0
C      1  0.5298150000000  0.5454260000000  0.4844490000000 1.0
C      1  0.4612120000000  0.5338750000000  0.5090790000000 1.0
C      1  0.4614340000000  0.4656640000000  0.4896730000000 1.0
C      1  0.5126050000000  0.5306230000000  0.5739000000000 1.0
C      1  0.5127070000000  0.4691150000000  0.4263910000000 1.0
C      1  0.5277900000000  0.4437810000000  0.4609760000000 1.0
C      1  0.5280750000000  0.5548980000000  0.5378030000000 1.0
C      1  0.5006710000000  0.5583630000000  0.5257990000000 1.0
C      1  0.5007310000000  0.4408140000000  0.4735390000000 1.0
C      1  0.5215510000000  0.4025890000000  0.4835640000000 1.0
C      1  0.5215680000000  0.5966450000000  0.5158530000000 1.0
C      1  0.4836180000000  0.5327340000000  0.4868600000000 1.0
C      1  0.4845280000000  0.4691930000000  0.5100750000000 1.0
C      1  0.5711620000000  0.4754230000000  0.4374400000000 1.0
C      1  0.5703720000000  0.5238710000000  0.5619920000000 1.0
C      1  0.5570550000000  0.4671430000000  0.4135430000000 1.0
C      1  0.5570400000000  0.5325200000000  0.5861610000000 1.0
C      1  0.5152460000000  0.4928500000000  0.4570800000000 1.0
C      1  0.5145790000000  0.5070900000000  0.5432090000000 1.0
C      1  0.5841690000000  0.4622650000000  0.5285020000000 1.0
C      1  0.5843270000000  0.5372370000000  0.4713580000000 1.0
C      1  0.5321050000000  0.4834110000000  0.4080180000000 1.0
C      1  0.5320540000000  0.5165210000000  0.5926670000000 1.0
C      1  0.4480650000000  0.5769090000000  0.5241110000000 1.0
C      1  0.4479410000000  0.4225170000000  0.4756750000000 1.0
C      1  0.5854940000000  0.5295250000000  0.5206130000000 1.0
C      1  0.5855300000000  0.4696550000000  0.4790770000000 1.0
C      1  0.5434320000000  0.5772760000000  0.5253240000000 1.0
C      1  0.5434490000000  0.4218320000000  0.4738250000000 1.0
C      1  0.4069650000000  0.5199100000000  0.4703390000000 1.0
C      1  0.4072700000000  0.4795220000000  0.5296670000000 1.0
C      1  0.4807840000000  0.5003020000000  0.5837490000000 1.0
C      1  0.4807890000000  0.4999360000000  0.4166410000000 1.0
C      1  0.5482600000000  0.4152260000000  0.5237750000000 1.0
C      1  0.5477320000000  0.5839400000000  0.4755040000000 1.0
C      1  0.4993200000000  0.4562500000000  0.5620880000000 1.0
C      1  0.4983380000000  0.5439730000000  0.4381060000000 1.0
C      1  0.5206660000000  0.4393120000000  0.5558790000000 1.0
C      1  0.5199510000000  0.5609880000000  0.4429180000000 1.0
C      1  0.4317180000000  0.5054460000000  0.5854500000000 1.0
C      1  0.4318140000000  0.4947980000000  0.4144840000000 1.0
C      1  0.4621460000000  0.5474140000000  0.5627530000000 1.0
C      1  0.4621010000000  0.4519260000000  0.4367170000000 1.0
C      1  0.4383910000000  0.5537150000000  0.5068080000000 1.0
C      1  0.4385470000000  0.4459130000000  0.4927810000000 1.0
C      1  0.4110330000000  0.4683320000000  0.4482230000000 1.0
C      1  0.4113080000000  0.5312770000000  0.5512810000000 1.0
C      1  0.5467670000000  0.4304560000000  0.5491900000000 1.0
C      1  0.5461540000000  0.5683010000000  0.4506310000000 1.0
C      1  0.5200400000000  0.5886090000000  0.4868410000000 1.0
C      1  0.5202670000000  0.4108000000000  0.5124640000000 1.0
C      1  0.4842860000000  0.4890310000000  0.4539240000000 1.0
C      1  0.4838870000000  0.5109380000000  0.5463440000000 1.0
C      1  0.4094360000000  0.4944710000000  0.4341630000000 1.0
C      1  0.4095100000000  0.5053400000000  0.5656200000000 1.0
C      1  0.4149120000000  0.5286080000000  0.5223610000000 1.0
C      1  0.4142750000000  0.4706470000000  0.4772510000000 1.0
C      1  0.5804180000000  0.4926590000000  0.5298500000000 1.0
C      1  0.5812890000000  0.5066230000000  0.4695430000000 1.0
C      1  0.4532170000000  0.5730950000000  0.5518130000000 1.0
C      1  0.4528660000000  0.4264150000000  0.4479470000000 1.0
C      1  0.5318850000000  0.5121860000000  0.4155480000000 1.0
C      1  0.5316960000000  0.4872140000000  0.5861440000000 1.0
C      1  0.5040700000000  0.4807660000000  0.5775150000000 1.0
C      1  0.5039410000000  0.5192990000000  0.4232160000000 1.0
C      1  0.5670310000000  0.4518320000000  0.5520950000000 1.0
C      1  0.5657560000000  0.5465660000000  0.4491140000000 1.0
C      1  0.4767110000000  0.5388250000000  0.5358470000000 1.0
C      1  0.4769300000000  0.4607180000000  0.4630800000000 1.0
C      1  0.5162080000000  0.5177530000000  0.5165290000000 1.0
C      1  0.5175030000000  0.4808980000000  0.4830940000000 1.0
C      1  0.5517680000000  0.5083140000000  0.4796120000000 1.0
C      1  0.5513560000000  0.4914510000000  0.5199320000000 1.0
C      1  0.4607330000000  0.4297820000000  0.5345810000000 1.0
C      1  0.4600370000000  0.5702940000000  0.4649340000000 1.0
C      1  0.5253050000000  0.5563600000000  0.5667480000000 1.0
C      1  0.5251590000000  0.4428740000000  0.4321900000000 1.0
C      1  0.5869060000000  0.5401670000000  0.5464240000000 1.0
C      1  0.5865930000000  0.4584970000000  0.4534380000000 1.0
C      1  0.4744640000000  0.5442270000000  0.4574640000000 1.0
C      1  0.4744320000000  0.4549170000000  0.5450180000000 1.0
C      1  0.4702660000000  0.5919120000000  0.5115790000000 1.0
C      1  0.4701800000000  0.4074440000000  0.4882190000000 1.0
C      1  0.4460830000000  0.4908300000000  0.4868730000000 1.0
C      1  0.4465790000000  0.5080740000000  0.5126060000000 1.0
C      1  0.5578670000000  0.5677950000000  0.4998790000000 1.0
C      1  0.5578310000000  0.4318230000000  0.4994090000000 1.0
C      1  0.5488260000000  0.4400340000000  0.4166660000000 1.0
C      1  0.5488640000000  0.5595910000000  0.5824450000000 1.0
C      1  0.4353420000000  0.4396140000000  0.5226580000000 1.0
C      1  0.4345870000000  0.5603590000000  0.4770840000000 1.0
C      1  0.4341590000000  0.5348220000000  0.5720630000000 1.0
C      1  0.4342290000000  0.4651500000000  0.4276420000000 1.0
C      1  0.5304680000000  0.5216220000000  0.4582240000000 1.0
C      1  0.5312640000000  0.4799510000000  0.5423280000000 1.0
C      1  0.5447230000000  0.4734320000000  0.4943920000000 1.0
C      1  0.5436940000000  0.5268260000000  0.5070600000000 1.0
C      1  0.4995580000000  0.4993530000000  0.4987800000000 1.0
END
