TITL C-3578206-1180-480 -6.60945331851959e-07 125000 -1115.38664119609 0 0 177 (C1) n - 1
REM
REM in /home/bkarasulu/work/CARBON/AIRSS/Generating-Clusters/EDIP-Nigel-Params/with-SteepDescent/Higher-Symm/SD-CG/HFTN-CG
REM
REM
REM
REM
REM
REM ./C.cell (12c818d87b63d06a65506943cc24bca4)
REM
REM compiler GCC version 9.2.1 20190827 (Red Hat 9.2.1-1)
REM options -cpp -mtune=generic -march=x86-64 -g -O0 -fpre-include=/usr/include/finclude/math-vector-fortran.h
REM seed 1901971684 -431771338 -1407788842 1303591467 782758102 -830992757 758508546 -2035584871 -1206890782 -1050782395 1157827986 -1935981908 687624906 -1938784026 1017961956 297973990 -2141578078 558438257 368238948 -1847050051 1238881746 -2023868005 -1621269902 482161880 134812765 -212454007 -702141226 -1970328196 -238050031 1751329072 789096408 -461676457 -694044025
REM
CELL 1.54180   50.00000   50.00000   50.00000   90.00000   90.00000   90.00000
LATT -1
SFAC C  
C      1  0.5367350000000  0.4346840000000  0.5382200000000 1.0
C      1  0.4676750000000  0.4594280000000  0.4645680000000 1.0
C      1  0.4773630000000  0.5629480000000  0.4423030000000 1.0
C      1  0.5177450000000  0.5647340000000  0.5605270000000 1.0
C      1  0.4908810000000  0.5448790000000  0.5544080000000 1.0
C      1  0.5066530000000  0.5440690000000  0.4518510000000 1.0
C      1  0.5142730000000  0.4752300000000  0.5728920000000 1.0
C      1  0.4875120000000  0.4803850000000  0.4171280000000 1.0
C      1  0.4686050000000  0.5173000000000  0.4559730000000 1.0
C      1  0.5338920000000  0.5205990000000  0.5494110000000 1.0
C      1  0.4322230000000  0.5275090000000  0.4042410000000 1.0
C      1  0.5622220000000  0.5295400000000  0.6014840000000 1.0
C      1  0.5805730000000  0.5519770000000  0.4740270000000 1.0
C      1  0.4195940000000  0.5542910000000  0.5261220000000 1.0
C      1  0.5247780000000  0.4114750000000  0.5216910000000 1.0
C      1  0.4653270000000  0.4247470000000  0.4764090000000 1.0
C      1  0.6026560000000  0.5002470000000  0.4698850000000 1.0
C      1  0.3991420000000  0.5048790000000  0.5286360000000 1.0
C      1  0.5765640000000  0.5685730000000  0.5010680000000 1.0
C      1  0.4252270000000  0.5698600000000  0.4986020000000 1.0
C      1  0.5701260000000  0.4715740000000  0.5310380000000 1.0
C      1  0.4401880000000  0.4705890000000  0.4625560000000 1.0
C      1  0.5826390000000  0.4911630000000  0.5115270000000 1.0
C      1  0.4328450000000  0.4955680000000  0.4811090000000 1.0
C      1  0.4649130000000  0.4933560000000  0.5732300000000 1.0
C      1  0.5386840000000  0.4939220000000  0.4300820000000 1.0
C      1  0.5589600000000  0.5076470000000  0.4534730000000 1.0
C      1  0.4448700000000  0.5108830000000  0.5473550000000 1.0
C      1  0.5938110000000  0.4786830000000  0.4881220000000 1.0
C      1  0.3991470000000  0.4849080000000  0.5070300000000 1.0
C      1  0.5575090000000  0.4592640000000  0.5911180000000 1.0
C      1  0.4417270000000  0.4645970000000  0.4188900000000 1.0
C      1  0.4887170000000  0.4424250000000  0.5928900000000 1.0
C      1  0.5120060000000  0.4459830000000  0.4041860000000 1.0
C      1  0.4876580000000  0.6097070000000  0.5094770000000 1.0
C      1  0.5032480000000  0.5946990000000  0.4857790000000 1.0
C      1  0.5215600000000  0.5930330000000  0.5482250000000 1.0
C      1  0.4725870000000  0.5923080000000  0.4473410000000 1.0
C      1  0.4848490000000  0.4303230000000  0.4143030000000 1.0
C      1  0.5130170000000  0.4248520000000  0.5849340000000 1.0
C      1  0.4978700000000  0.6033810000000  0.4570470000000 1.0
C      1  0.4959450000000  0.6035640000000  0.5380500000000 1.0
C      1  0.5439970000000  0.5910880000000  0.4603620000000 1.0
C      1  0.4492740000000  0.5976460000000  0.5381950000000 1.0
C      1  0.5503530000000  0.4182520000000  0.4369680000000 1.0
C      1  0.4555680000000  0.4159440000000  0.5605970000000 1.0
C      1  0.4508570000000  0.5979930000000  0.4641900000000 1.0
C      1  0.5451460000000  0.5968920000000  0.5328530000000 1.0
C      1  0.5765390000000  0.4823100000000  0.5589360000000 1.0
C      1  0.4458250000000  0.5003900000000  0.4444340000000 1.0
C      1  0.4439640000000  0.5398280000000  0.5345980000000 1.0
C      1  0.5563290000000  0.5364120000000  0.4675430000000 1.0
C      1  0.5452290000000  0.4131390000000  0.4660170000000 1.0
C      1  0.4486060000000  0.4228940000000  0.5314900000000 1.0
C      1  0.4676060000000  0.5377720000000  0.6006160000000 1.0
C      1  0.5315300000000  0.5306060000000  0.3986650000000 1.0
C      1  0.5878070000000  0.5504410000000  0.5515850000000 1.0
C      1  0.4222400000000  0.5196230000000  0.4465670000000 1.0
C      1  0.5341820000000  0.4416100000000  0.4275780000000 1.0
C      1  0.4681670000000  0.4425920000000  0.5696290000000 1.0
C      1  0.5382750000000  0.5026000000000  0.5271520000000 1.0
C      1  0.4770820000000  0.5072190000000  0.4824330000000 1.0
C      1  0.5769880000000  0.4658050000000  0.4454120000000 1.0
C      1  0.4248310000000  0.4690470000000  0.5530130000000 1.0
C      1  0.5188300000000  0.4954450000000  0.4739360000000 1.0
C      1  0.4903980000000  0.4957410000000  0.5296710000000 1.0
C      1  0.4948240000000  0.5657080000000  0.4879970000000 1.0
C      1  0.5057870000000  0.5562150000000  0.5123550000000 1.0
C      1  0.5429950000000  0.4336470000000  0.5840250000000 1.0
C      1  0.4541900000000  0.4381500000000  0.4195480000000 1.0
C      1  0.4189220000000  0.4628670000000  0.5162560000000 1.0
C      1  0.5767970000000  0.4567540000000  0.4768260000000 1.0
C      1  0.4481980000000  0.4033660000000  0.4920090000000 1.0
C      1  0.5485820000000  0.3944410000000  0.5093520000000 1.0
C      1  0.4845240000000  0.4076440000000  0.4598740000000 1.0
C      1  0.5048940000000  0.3967360000000  0.5408320000000 1.0
C      1  0.4895830000000  0.5356000000000  0.5250480000000 1.0
C      1  0.5113790000000  0.5257640000000  0.4808810000000 1.0
C      1  0.5487650000000  0.5813850000000  0.5085930000000 1.0
C      1  0.4416150000000  0.5939580000000  0.4904250000000 1.0
C      1  0.5136210000000  0.4500130000000  0.5549150000000 1.0
C      1  0.4869150000000  0.4591330000000  0.4406540000000 1.0
C      1  0.4767620000000  0.5757320000000  0.5735470000000 1.0
C      1  0.5175480000000  0.5698510000000  0.4252400000000 1.0
C      1  0.4942010000000  0.4097310000000  0.4330460000000 1.0
C      1  0.5083160000000  0.4022910000000  0.5679460000000 1.0
C      1  0.4296480000000  0.5487500000000  0.4515570000000 1.0
C      1  0.5625720000000  0.5611600000000  0.5618070000000 1.0
C      1  0.5506210000000  0.4663090000000  0.4316360000000 1.0
C      1  0.4495020000000  0.4667660000000  0.5697010000000 1.0
C      1  0.3955070000000  0.5091720000000  0.4366240000000 1.0
C      1  0.5989550000000  0.5278040000000  0.5682410000000 1.0
C      1  0.4264760000000  0.4437580000000  0.4691500000000 1.0
C      1  0.5786560000000  0.4433680000000  0.5273460000000 1.0
C      1  0.5661040000000  0.4091330000000  0.4889790000000 1.0
C      1  0.4272290000000  0.4152070000000  0.5094680000000 1.0
C      1  0.4779770000000  0.4919320000000  0.6014300000000 1.0
C      1  0.5307660000000  0.4981150000000  0.4000300000000 1.0
C      1  0.6072970000000  0.5314370000000  0.5107220000000 1.0
C      1  0.3985430000000  0.5306210000000  0.4881710000000 1.0
C      1  0.4598300000000  0.4948590000000  0.5243530000000 1.0
C      1  0.5474530000000  0.4908830000000  0.4790870000000 1.0
C      1  0.5888490000000  0.5507270000000  0.5218030000000 1.0
C      1  0.4135390000000  0.5538010000000  0.4768600000000 1.0
C      1  0.3968420000000  0.4821140000000  0.4460530000000 1.0
C      1  0.5999310000000  0.5024240000000  0.5538960000000 1.0
C      1  0.4663790000000  0.5575770000000  0.4880060000000 1.0
C      1  0.5348190000000  0.5553220000000  0.5146890000000 1.0
C      1  0.5280820000000  0.4372370000000  0.4758550000000 1.0
C      1  0.4672870000000  0.4448700000000  0.5224350000000 1.0
C      1  0.5400610000000  0.5094800000000  0.5992180000000 1.0
C      1  0.4571530000000  0.5121420000000  0.4038300000000 1.0
C      1  0.4847810000000  0.4483770000000  0.5464240000000 1.0
C      1  0.5118380000000  0.4406910000000  0.4482400000000 1.0
C      1  0.6023640000000  0.5294200000000  0.4811440000000 1.0
C      1  0.3989850000000  0.5328560000000  0.5177420000000 1.0
C      1  0.4752140000000  0.3936050000000  0.5376730000000 1.0
C      1  0.5286640000000  0.3878060000000  0.4703160000000 1.0
C      1  0.4345790000000  0.4198050000000  0.4278710000000 1.0
C      1  0.5551340000000  0.4231190000000  0.5593140000000 1.0
C      1  0.4989750000000  0.4699600000000  0.5988210000000 1.0
C      1  0.5081730000000  0.4750520000000  0.3962890000000 1.0
C      1  0.4572670000000  0.6066630000000  0.5116960000000 1.0
C      1  0.5339190000000  0.5955390000000  0.4869220000000 1.0
C      1  0.5435460000000  0.4851300000000  0.5805640000000 1.0
C      1  0.4600620000000  0.4839120000000  0.4067300000000 1.0
C      1  0.5071970000000  0.4729670000000  0.5176310000000 1.0
C      1  0.5053270000000  0.4730020000000  0.4887570000000 1.0
C      1  0.4182530000000  0.4976930000000  0.5502970000000 1.0
C      1  0.5855770000000  0.4951070000000  0.4467050000000 1.0
C      1  0.5393600000000  0.5492660000000  0.5449280000000 1.0
C      1  0.4592080000000  0.5468200000000  0.4606080000000 1.0
C      1  0.5149870000000  0.5264140000000  0.5935830000000 1.0
C      1  0.4816770000000  0.5280420000000  0.4103730000000 1.0
C      1  0.4069730000000  0.5142910000000  0.4102280000000 1.0
C      1  0.5885430000000  0.5238640000000  0.5939850000000 1.0
C      1  0.4150510000000  0.4390440000000  0.4968040000000 1.0
C      1  0.5804240000000  0.4334510000000  0.4980450000000 1.0
C      1  0.5081490000000  0.5207180000000  0.5648000000000 1.0
C      1  0.4931730000000  0.5190660000000  0.4382230000000 1.0
C      1  0.5097180000000  0.4221660000000  0.4965840000000 1.0
C      1  0.4829370000000  0.4360020000000  0.4985210000000 1.0
C      1  0.5218450000000  0.5935160000000  0.4413830000000 1.0
C      1  0.4728930000000  0.5965450000000  0.5545190000000 1.0
C      1  0.6046810000000  0.5052540000000  0.5246500000000 1.0
C      1  0.4025530000000  0.5006640000000  0.4797460000000 1.0
C      1  0.4625760000000  0.5389600000000  0.5118030000000 1.0
C      1  0.5402200000000  0.5337500000000  0.4924340000000 1.0
C      1  0.5238390000000  0.5567160000000  0.5903790000000 1.0
C      1  0.4687300000000  0.5553930000000  0.4150550000000 1.0
C      1  0.4317940000000  0.5588070000000  0.5726010000000 1.0
C      1  0.5638590000000  0.5554840000000  0.4285340000000 1.0
C      1  0.5369320000000  0.4719730000000  0.5265230000000 1.0
C      1  0.4784310000000  0.4776370000000  0.4842950000000 1.0
C      1  0.4158910000000  0.4361040000000  0.4421620000000 1.0
C      1  0.5824620000000  0.4335340000000  0.5558280000000 1.0
C      1  0.5122720000000  0.4943440000000  0.4443430000000 1.0
C      1  0.4941250000000  0.4951590000000  0.5596880000000 1.0
C      1  0.5833980000000  0.4576410000000  0.5752880000000 1.0
C      1  0.4125510000000  0.4631980000000  0.4289140000000 1.0
C      1  0.5395750000000  0.3734290000000  0.4922920000000 1.0
C      1  0.4647620000000  0.3898000000000  0.5109000000000 1.0
C      1  0.4582660000000  0.5563250000000  0.5820230000000 1.0
C      1  0.5372340000000  0.5494200000000  0.4207980000000 1.0
C      1  0.4392600000000  0.5536300000000  0.4152120000000 1.0
C      1  0.5536360000000  0.5562970000000  0.5911420000000 1.0
C      1  0.4228100000000  0.5974420000000  0.5477160000000 1.0
C      1  0.5710860000000  0.5944000000000  0.4529360000000 1.0
C      1  0.5800480000000  0.5682890000000  0.4481470000000 1.0
C      1  0.4166920000000  0.5704730000000  0.5515750000000 1.0
C      1  0.5042590000000  0.5252780000000  0.3913600000000 1.0
C      1  0.4880170000000  0.5196290000000  0.6073300000000 1.0
C      1  0.4494190000000  0.4682580000000  0.5163010000000 1.0
C      1  0.5479610000000  0.4607590000000  0.4852670000000 1.0
C      1  0.5555280000000  0.5085320000000  0.5043750000000 1.0
C      1  0.4548120000000  0.5119410000000  0.5003930000000 1.0
C      1  0.5031430000000  0.3977670000000  0.4800280000000 1.0
END
