TITL C-3577087-600-628 -2.03686866669885e-06 125000 -809.584013995077 0 0 129 (C1) n - 1
REM
REM in /home/bkarasulu/work/CARBON/AIRSS/Generating-Clusters/EDIP-Nigel-Params/with-SteepDescent/Higher-Symm/SD-CG/HFTN-CG
REM
REM
REM
REM
REM
REM ./C.cell (12c818d87b63d06a65506943cc24bca4)
REM
REM compiler GCC version 9.2.1 20190827 (Red Hat 9.2.1-1)
REM options -cpp -mtune=generic -march=x86-64 -g -O0 -fpre-include=/usr/include/finclude/math-vector-fortran.h
REM seed -698075892 1065291947 367479286 -1222077617 164486930 -887670561 111531141 1687877478 -1129575450 -297867922 -893139072 679780865 -461180113 -664544601 -1471671010 -213937726 7127266 -1636645398 1671883040 1189631332 -1139562566 446148497 -1048943009 -1262408626 -488406334 -427731290 1774519663 526025935 392583849 1319320674 1801994409 -2119032010 -981489555
REM
CELL 1.54180   50.00000   50.00000   50.00000   90.00000   90.00000   90.00000
LATT -1
SFAC C  
C      1  0.4225890000000  0.5016430000000  0.5429370000000 1.0
C      1  0.4248270000000  0.4624000000000  0.4793890000000 1.0
C      1  0.4160290000000  0.5386470000000  0.4789430000000 1.0
C      1  0.5840150000000  0.4878730000000  0.5490690000000 1.0
C      1  0.5768580000000  0.5480930000000  0.4728820000000 1.0
C      1  0.5792800000000  0.4616070000000  0.4817870000000 1.0
C      1  0.4975820000000  0.5900270000000  0.5168440000000 1.0
C      1  0.4932580000000  0.4332920000000  0.5716180000000 1.0
C      1  0.4970720000000  0.4754910000000  0.4153400000000 1.0
C      1  0.5027180000000  0.4052160000000  0.5209610000000 1.0
C      1  0.5063320000000  0.5613700000000  0.5658060000000 1.0
C      1  0.5007550000000  0.5285940000000  0.4097700000000 1.0
C      1  0.4380980000000  0.5164160000000  0.4365990000000 1.0
C      1  0.4439460000000  0.5488100000000  0.5478060000000 1.0
C      1  0.4410520000000  0.4319180000000  0.5153450000000 1.0
C      1  0.5570320000000  0.4846160000000  0.4395440000000 1.0
C      1  0.5564270000000  0.4478790000000  0.5512820000000 1.0
C      1  0.5585260000000  0.5705130000000  0.5116640000000 1.0
C      1  0.4841610000000  0.5016750000000  0.6010350000000 1.0
C      1  0.4884720000000  0.4146620000000  0.4498710000000 1.0
C      1  0.4814610000000  0.5903890000000  0.4460230000000 1.0
C      1  0.5138790000000  0.4980160000000  0.6007350000000 1.0
C      1  0.5116420000000  0.5914470000000  0.4469290000000 1.0
C      1  0.5180270000000  0.4150180000000  0.4490490000000 1.0
C      1  0.4684050000000  0.5867710000000  0.5234690000000 1.0
C      1  0.4639960000000  0.4281040000000  0.5649470000000 1.0
C      1  0.4672890000000  0.4805440000000  0.4135840000000 1.0
C      1  0.5318040000000  0.4085840000000  0.5285770000000 1.0
C      1  0.5361730000000  0.5642680000000  0.5606810000000 1.0
C      1  0.5303030000000  0.5210170000000  0.4074430000000 1.0
C      1  0.5384030000000  0.5583020000000  0.5310660000000 1.0
C      1  0.5331310000000  0.4376900000000  0.5360380000000 1.0
C      1  0.5354530000000  0.5046830000000  0.4328510000000 1.0
C      1  0.4621240000000  0.4380670000000  0.5362250000000 1.0
C      1  0.4663020000000  0.5577340000000  0.5298820000000 1.0
C      1  0.4633510000000  0.5004500000000  0.4355910000000 1.0
C      1  0.5375740000000  0.5053730000000  0.5595260000000 1.0
C      1  0.5333780000000  0.4390220000000  0.4833780000000 1.0
C      1  0.5330950000000  0.5526740000000  0.4524260000000 1.0
C      1  0.4648670000000  0.4848910000000  0.5647510000000 1.0
C      1  0.4617660000000  0.5572300000000  0.4771080000000 1.0
C      1  0.4696550000000  0.4537510000000  0.4590650000000 1.0
C      1  0.4439270000000  0.4418780000000  0.4691160000000 1.0
C      1  0.4356450000000  0.5537330000000  0.4634260000000 1.0
C      1  0.4415380000000  0.5040980000000  0.5657750000000 1.0
C      1  0.5568610000000  0.5676790000000  0.4636080000000 1.0
C      1  0.5581140000000  0.4470440000000  0.4681570000000 1.0
C      1  0.5624760000000  0.4905350000000  0.5696370000000 1.0
C      1  0.5683290000000  0.5214920000000  0.5148810000000 1.0
C      1  0.5521080000000  0.4765920000000  0.5133720000000 1.0
C      1  0.5577910000000  0.4987550000000  0.4935180000000 1.0
C      1  0.4482760000000  0.4922590000000  0.5100880000000 1.0
C      1  0.4433540000000  0.5212200000000  0.5091910000000 1.0
C      1  0.4414750000000  0.4882170000000  0.4796050000000 1.0
C      1  0.4807740000000  0.4122090000000  0.4780550000000 1.0
C      1  0.4757580000000  0.5636710000000  0.4327390000000 1.0
C      1  0.4764550000000  0.5291100000000  0.5900640000000 1.0
C      1  0.5216080000000  0.5989130000000  0.4747110000000 1.0
C      1  0.5250430000000  0.4397080000000  0.4342260000000 1.0
C      1  0.5189850000000  0.4711090000000  0.5885070000000 1.0
C      1  0.4246420000000  0.5339290000000  0.5286240000000 1.0
C      1  0.4235540000000  0.4558330000000  0.5110210000000 1.0
C      1  0.4215010000000  0.5058620000000  0.4601820000000 1.0
C      1  0.5728080000000  0.4647320000000  0.5310990000000 1.0
C      1  0.5760160000000  0.5478050000000  0.5025010000000 1.0
C      1  0.5746490000000  0.4947800000000  0.4633090000000 1.0
C      1  0.4427380000000  0.5450810000000  0.4367770000000 1.0
C      1  0.4551100000000  0.5295350000000  0.5679250000000 1.0
C      1  0.4544830000000  0.4241850000000  0.4890270000000 1.0
C      1  0.5458950000000  0.4582560000000  0.4451760000000 1.0
C      1  0.5485780000000  0.4650310000000  0.5746860000000 1.0
C      1  0.5459160000000  0.5827040000000  0.4861470000000 1.0
C      1  0.5808850000000  0.5253610000000  0.4532930000000 1.0
C      1  0.5843330000000  0.5162190000000  0.5405610000000 1.0
C      1  0.5847300000000  0.4473940000000  0.5075300000000 1.0
C      1  0.4101740000000  0.4761700000000  0.4509610000000 1.0
C      1  0.4198740000000  0.4717990000000  0.5369670000000 1.0
C      1  0.4129420000000  0.5526480000000  0.5050690000000 1.0
C      1  0.5299870000000  0.4073070000000  0.4817850000000 1.0
C      1  0.5270420000000  0.5640260000000  0.4237860000000 1.0
C      1  0.5275230000000  0.5221310000000  0.5863700000000 1.0
C      1  0.4708390000000  0.5913890000000  0.4760570000000 1.0
C      1  0.4752720000000  0.4377130000000  0.4319420000000 1.0
C      1  0.4673220000000  0.4678380000000  0.5908020000000 1.0
C      1  0.4943940000000  0.4535230000000  0.5921370000000 1.0
C      1  0.5007600000000  0.4475540000000  0.4193990000000 1.0
C      1  0.4965310000000  0.6007420000000  0.4902130000000 1.0
C      1  0.5034170000000  0.5413390000000  0.5862950000000 1.0
C      1  0.4988510000000  0.5572200000000  0.4135840000000 1.0
C      1  0.5027460000000  0.3992340000000  0.4927640000000 1.0
C      1  0.5300120000000  0.5077150000000  0.4827840000000 1.0
C      1  0.5186250000000  0.5115950000000  0.5202450000000 1.0
C      1  0.5045580000000  0.4717320000000  0.5099330000000 1.0
C      1  0.4874590000000  0.4973040000000  0.4778240000000 1.0
C      1  0.4811840000000  0.4881630000000  0.5202950000000 1.0
C      1  0.4900650000000  0.5229920000000  0.4958700000000 1.0
C      1  0.4889110000000  0.4327630000000  0.5238900000000 1.0
C      1  0.4894910000000  0.5170390000000  0.4360850000000 1.0
C      1  0.4934900000000  0.5497970000000  0.5406830000000 1.0
C      1  0.5110060000000  0.5619060000000  0.5187570000000 1.0
C      1  0.5090300000000  0.4924230000000  0.4382460000000 1.0
C      1  0.5061710000000  0.4465960000000  0.5471360000000 1.0
C      1  0.5724860000000  0.4216840000000  0.5066200000000 1.0
C      1  0.5696000000000  0.5349550000000  0.4283810000000 1.0
C      1  0.5739920000000  0.5326730000000  0.5617220000000 1.0
C      1  0.4266540000000  0.5773470000000  0.5028750000000 1.0
C      1  0.4265760000000  0.4632250000000  0.4317410000000 1.0
C      1  0.4271780000000  0.4572890000000  0.5607670000000 1.0
C      1  0.5517490000000  0.5437180000000  0.5759070000000 1.0
C      1  0.5500300000000  0.4042860000000  0.5055820000000 1.0
C      1  0.5480890000000  0.5441150000000  0.4114070000000 1.0
C      1  0.4465230000000  0.4471350000000  0.5794070000000 1.0
C      1  0.4502860000000  0.5927800000000  0.5009700000000 1.0
C      1  0.4510990000000  0.4564650000000  0.4188850000000 1.0
C      1  0.5149090000000  0.4814860000000  0.5513790000000 1.0
C      1  0.5113840000000  0.4837310000000  0.4678510000000 1.0
C      1  0.5105510000000  0.5449020000000  0.4936820000000 1.0
C      1  0.4950060000000  0.5193240000000  0.5393520000000 1.0
C      1  0.4832430000000  0.5459760000000  0.4566580000000 1.0
C      1  0.4890400000000  0.4503710000000  0.4986320000000 1.0
C      1  0.5426980000000  0.5274910000000  0.5305310000000 1.0
C      1  0.5315950000000  0.4557860000000  0.5104550000000 1.0
C      1  0.5369850000000  0.5230080000000  0.4564290000000 1.0
C      1  0.4634230000000  0.4699230000000  0.5387200000000 1.0
C      1  0.4649340000000  0.5399910000000  0.5031000000000 1.0
C      1  0.4655630000000  0.4849960000000  0.4624020000000 1.0
C      1  0.5081900000000  0.5583370000000  0.4679070000000 1.0
C      1  0.5043270000000  0.4496520000000  0.4718450000000 1.0
C      1  0.4922980000000  0.4990000000000  0.5625440000000 1.0
END
