TITL C-3577079-311-388 -2.22595033349965e-07 125000 -136.388321836629 0 0 23 (C1) n - 1
REM
REM in /home/bkarasulu/work/CARBON/AIRSS/Generating-Clusters/EDIP-Nigel-Params/with-SteepDescent/Higher-Symm/SD-CG/HFTN-CG
REM
REM
REM
REM
REM
REM ./C.cell (12c818d87b63d06a65506943cc24bca4)
REM
REM compiler GCC version 9.2.1 20190827 (Red Hat 9.2.1-1)
REM options -cpp -mtune=generic -march=x86-64 -g -O0 -fpre-include=/usr/include/finclude/math-vector-fortran.h
REM seed -1408452617 552630193 -1012562448 495905249 -807987613 378854186 -624048975 1880510400 -473412712 -302953760 1966610366 1615636260 -270336649 -2000558385 1615419810 1352756530 234180864 -1052423157 1665581133 -1986598270 -780223756 -1529639427 -138018588 639482142 1352772771 -1944426709 875497359 -336774084 33121875 -418226164 1122318225 64220660 -1108125932
REM
CELL 1.54180   50.00000   50.00000   50.00000   90.00000   90.00000   90.00000
LATT -1
SFAC C  
C      1  0.4714170000000  0.5201660000000  0.4721390000000 1.0
C      1  0.4471650000000  0.5095560000000  0.4822570000000 1.0
C      1  0.4437660000000  0.5102490000000  0.5132940000000 1.0
C      1  0.4655570000000  0.5218910000000  0.5271590000000 1.0
C      1  0.4911200000000  0.5116370000000  0.5308470000000 1.0
C      1  0.5144590000000  0.5267530000000  0.5238200000000 1.0
C      1  0.5384950000000  0.5122110000000  0.5165270000000 1.0
C      1  0.5547150000000  0.5223720000000  0.4955720000000 1.0
C      1  0.5434910000000  0.5095670000000  0.4726090000000 1.0
C      1  0.5200730000000  0.5206480000000  0.4612990000000 1.0
C      1  0.4951820000000  0.5082900000000  0.4639610000000 1.0
C      1  0.4953700000000  0.4799110000000  0.4643890000000 1.0
C      1  0.4719040000000  0.4678800000000  0.4730120000000 1.0
C      1  0.4475980000000  0.4783470000000  0.4829860000000 1.0
C      1  0.4451150000000  0.4789100000000  0.5139770000000 1.0
C      1  0.4683590000000  0.4699070000000  0.5274320000000 1.0
C      1  0.4924440000000  0.4831420000000  0.5314970000000 1.0
C      1  0.5173220000000  0.4709160000000  0.5321030000000 1.0
C      1  0.5383420000000  0.4830910000000  0.5183990000000 1.0
C      1  0.5531500000000  0.4693240000000  0.4986950000000 1.0
C      1  0.5430920000000  0.4799540000000  0.4743770000000 1.0
C      1  0.5203900000000  0.4677570000000  0.4629150000000 1.0
C      1  0.5140920000000  0.5532670000000  0.5237570000000 1.0
END
