TITL C-3578199-7832-267 -9.45354725272455e-07 125000 -706.040340685858 0 0 112 (C1) n - 1
REM
REM in /home/bkarasulu/work/CARBON/AIRSS/Generating-Clusters/EDIP-Nigel-Params/with-SteepDescent/Higher-Symm/SD-CG/HFTN-CG
REM
REM
REM
REM
REM
REM ./C.cell (12c818d87b63d06a65506943cc24bca4)
REM
REM compiler GCC version 9.2.1 20190827 (Red Hat 9.2.1-1)
REM options -cpp -mtune=generic -march=x86-64 -g -O0 -fpre-include=/usr/include/finclude/math-vector-fortran.h
REM seed -1265900357 905529119 -352967789 243854824 1927258941 1579279097 -1985055690 -413239695 -1590633563 -1855189609 652789004 1387218527 -459941625 923959151 1200363249 -759199486 -2143491652 1925014709 1444861072 499297418 -617525768 -119476631 2029090517 271318726 1510604110 1665309804 822655573 292002953 726734775 817563993 -1863355308 -104628727 143581299
REM
CELL 1.54180   50.00000   50.00000   50.00000   90.00000   90.00000   90.00000
LATT -1
SFAC C  
C      1  0.4748130000000  0.5322340000000  0.4858600000000 1.0
C      1  0.4526920000000  0.4701820000000  0.4957490000000 1.0
C      1  0.5149040000000  0.4431660000000  0.4986090000000 1.0
C      1  0.5321470000000  0.4942540000000  0.4894320000000 1.0
C      1  0.5124200000000  0.5369130000000  0.4819300000000 1.0
C      1  0.5299230000000  0.4570810000000  0.5189240000000 1.0
C      1  0.5474110000000  0.5104310000000  0.5084100000000 1.0
C      1  0.5019730000000  0.5478470000000  0.5098460000000 1.0
C      1  0.4613910000000  0.5147470000000  0.5061520000000 1.0
C      1  0.4769180000000  0.4639330000000  0.5085800000000 1.0
C      1  0.5387400000000  0.5472810000000  0.5513160000000 1.0
C      1  0.4644460000000  0.5563990000000  0.5562490000000 1.0
C      1  0.4381390000000  0.4858230000000  0.5509340000000 1.0
C      1  0.4947890000000  0.4350470000000  0.5551230000000 1.0
C      1  0.5609620000000  0.4744000000000  0.5564480000000 1.0
C      1  0.5025450000000  0.3967480000000  0.5268330000000 1.0
C      1  0.5986190000000  0.4700770000000  0.5256680000000 1.0
C      1  0.5551370000000  0.5818000000000  0.5223330000000 1.0
C      1  0.4377040000000  0.5843660000000  0.5267480000000 1.0
C      1  0.4050360000000  0.4671810000000  0.5214160000000 1.0
C      1  0.5211550000000  0.5799820000000  0.4867030000000 1.0
C      1  0.4249460000000  0.5555040000000  0.4868870000000 1.0
C      1  0.4343370000000  0.4501410000000  0.4850390000000 1.0
C      1  0.5269190000000  0.4177340000000  0.4890760000000 1.0
C      1  0.5808850000000  0.5020860000000  0.4897410000000 1.0
C      1  0.4976470000000  0.5930670000000  0.4751440000000 1.0
C      1  0.4084560000000  0.5342500000000  0.4771190000000 1.0
C      1  0.4505050000000  0.4278370000000  0.4718200000000 1.0
C      1  0.5541520000000  0.4236230000000  0.4778560000000 1.0
C      1  0.5902680000000  0.5263330000000  0.4765410000000 1.0
C      1  0.5758120000000  0.4798960000000  0.4694150000000 1.0
C      1  0.5403730000000  0.5676090000000  0.4676030000000 1.0
C      1  0.4506290000000  0.5604200000000  0.4715330000000 1.0
C      1  0.4213080000000  0.4705980000000  0.4643190000000 1.0
C      1  0.5004410000000  0.4183140000000  0.4650120000000 1.0
C      1  0.5048440000000  0.4413460000000  0.4462460000000 1.0
C      1  0.5611530000000  0.4881910000000  0.4443040000000 1.0
C      1  0.5281260000000  0.5535650000000  0.4444140000000 1.0
C      1  0.4571260000000  0.5424810000000  0.4472560000000 1.0
C      1  0.4372450000000  0.4731020000000  0.4385410000000 1.0
C      1  0.5947640000000  0.4965040000000  0.5161770000000 1.0
C      1  0.5290000000000  0.5888440000000  0.5140750000000 1.0
C      1  0.4241850000000  0.5615180000000  0.5163830000000 1.0
C      1  0.4204610000000  0.4447740000000  0.5130790000000 1.0
C      1  0.5278370000000  0.4048720000000  0.5172060000000 1.0
C      1  0.5540190000000  0.4350430000000  0.4516710000000 1.0
C      1  0.5791640000000  0.5331840000000  0.4514970000000 1.0
C      1  0.4887380000000  0.5825120000000  0.4504310000000 1.0
C      1  0.4119660000000  0.5238850000000  0.4510640000000 1.0
C      1  0.4505330000000  0.4268790000000  0.4439220000000 1.0
C      1  0.4922370000000  0.4763470000000  0.4122600000000 1.0
C      1  0.5204250000000  0.4865440000000  0.4098600000000 1.0
C      1  0.5179510000000  0.5162620000000  0.4097240000000 1.0
C      1  0.4885960000000  0.5224460000000  0.4122350000000 1.0
C      1  0.4722810000000  0.4982630000000  0.4106980000000 1.0
C      1  0.4490490000000  0.4584790000000  0.5535890000000 1.0
C      1  0.5240900000000  0.4375320000000  0.5579240000000 1.0
C      1  0.5649370000000  0.5032590000000  0.5562420000000 1.0
C      1  0.5148400000000  0.5628570000000  0.5550170000000 1.0
C      1  0.4441000000000  0.5354310000000  0.5550850000000 1.0
C      1  0.5005970000000  0.5590550000000  0.4397710000000 1.0
C      1  0.4375540000000  0.5235180000000  0.4380680000000 1.0
C      1  0.4581160000000  0.4531020000000  0.4363390000000 1.0
C      1  0.5317330000000  0.4493590000000  0.4412740000000 1.0
C      1  0.5603680000000  0.5162900000000  0.4379680000000 1.0
C      1  0.4736600000000  0.5041080000000  0.5813940000000 1.0
C      1  0.4872800000000  0.4777920000000  0.5811900000000 1.0
C      1  0.5158370000000  0.4826590000000  0.5804920000000 1.0
C      1  0.5212790000000  0.5109150000000  0.5839000000000 1.0
C      1  0.4949140000000  0.5248550000000  0.5845950000000 1.0
C      1  0.4916370000000  0.5468200000000  0.5643480000000 1.0
C      1  0.4575610000000  0.5084140000000  0.5559330000000 1.0
C      1  0.4769570000000  0.4569390000000  0.5634480000000 1.0
C      1  0.5348030000000  0.4638310000000  0.5675920000000 1.0
C      1  0.5434350000000  0.5218120000000  0.5666340000000 1.0
C      1  0.4749400000000  0.5641330000000  0.5079730000000 1.0
C      1  0.4392520000000  0.4950200000000  0.5017200000000 1.0
C      1  0.4875590000000  0.4372500000000  0.5059780000000 1.0
C      1  0.5550160000000  0.4680730000000  0.5076390000000 1.0
C      1  0.5442090000000  0.5399890000000  0.5022420000000 1.0
C      1  0.4395760000000  0.4366020000000  0.5353890000000 1.0
C      1  0.5413690000000  0.4245360000000  0.5367380000000 1.0
C      1  0.5823240000000  0.5146530000000  0.5357490000000 1.0
C      1  0.5084510000000  0.5835210000000  0.5351400000000 1.0
C      1  0.4222890000000  0.5383050000000  0.5351090000000 1.0
C      1  0.4201930000000  0.4975310000000  0.4780960000000 1.0
C      1  0.4770140000000  0.4218800000000  0.4828720000000 1.0
C      1  0.5671940000000  0.4541920000000  0.4829760000000 1.0
C      1  0.5620980000000  0.5517970000000  0.4804730000000 1.0
C      1  0.4694950000000  0.5835910000000  0.4846620000000 1.0
C      1  0.5553340000000  0.5536000000000  0.5276200000000 1.0
C      1  0.4644580000000  0.5761210000000  0.5336610000000 1.0
C      1  0.4213400000000  0.4906540000000  0.5266790000000 1.0
C      1  0.4852680000000  0.4196590000000  0.5312730000000 1.0
C      1  0.5724040000000  0.4603360000000  0.5324420000000 1.0
C      1  0.5319100000000  0.5249100000000  0.4355880000000 1.0
C      1  0.4851280000000  0.5341270000000  0.4393080000000 1.0
C      1  0.4500150000000  0.4982910000000  0.4308210000000 1.0
C      1  0.4867760000000  0.4650120000000  0.4395530000000 1.0
C      1  0.5337510000000  0.4781060000000  0.4363060000000 1.0
C      1  0.4770990000000  0.5086080000000  0.5307230000000 1.0
C      1  0.4882440000000  0.4816010000000  0.5281360000000 1.0
C      1  0.5165720000000  0.4792210000000  0.5367060000000 1.0
C      1  0.5278850000000  0.5082800000000  0.5336350000000 1.0
C      1  0.5020570000000  0.5270720000000  0.5326140000000 1.0
C      1  0.4568230000000  0.4139350000000  0.5336050000000 1.0
C      1  0.5698760000000  0.4313730000000  0.5360250000000 1.0
C      1  0.5816840000000  0.5425550000000  0.5314140000000 1.0
C      1  0.4835980000000  0.5974990000000  0.5380770000000 1.0
C      1  0.4066260000000  0.5152480000000  0.5299680000000 1.0
C      1  0.5034790000000  0.5002580000000  0.4474990000000 1.0
C      1  0.5101200000000  0.5073810000000  0.4765480000000 1.0
END
