TITL C-3577090-796-218 -7.66206062841722e-06 125000 -1136.5118376671 0 0 183 (C1) n - 1
REM
REM in /home/bkarasulu/work/CARBON/AIRSS/Generating-Clusters/EDIP-Nigel-Params/with-SteepDescent/Higher-Symm/SD-CG/HFTN-CG
REM
REM
REM
REM
REM
REM ./C.cell (12c818d87b63d06a65506943cc24bca4)
REM
REM compiler GCC version 9.2.1 20190827 (Red Hat 9.2.1-1)
REM options -cpp -mtune=generic -march=x86-64 -g -O0 -fpre-include=/usr/include/finclude/math-vector-fortran.h
REM seed -635503715 -335787357 -123537618 -1472920851 1113638537 -1855158121 2119794523 -1879522443 1859302070 1084888115 -468472070 -1900532427 -581119917 936740410 890009697 741201289 -707165681 -1128585404 -295094277 -304093654 790631676 1955674785 -2054499724 -1000605338 -489566885 -1209819920 -1069035923 -1472964503 -1023860399 -2066485746 -1201490231 -978623404 -1238020158
REM
CELL 1.54180   50.00000   50.00000   50.00000   90.00000   90.00000   90.00000
LATT -1
SFAC C  
C      1  0.4746470000000  0.5384870000000  0.5328860000000 1.0
C      1  0.4777510000000  0.5208160000000  0.4816470000000 1.0
C      1  0.5091940000000  0.5281130000000  0.4779270000000 1.0
C      1  0.5213130000000  0.5261420000000  0.5042950000000 1.0
C      1  0.4985630000000  0.5200090000000  0.5227060000000 1.0
C      1  0.5152140000000  0.4788320000000  0.5116450000000 1.0
C      1  0.5155920000000  0.4703130000000  0.4830040000000 1.0
C      1  0.4866970000000  0.4653190000000  0.4766570000000 1.0
C      1  0.4733500000000  0.4609430000000  0.5025890000000 1.0
C      1  0.4925800000000  0.4677040000000  0.5259170000000 1.0
C      1  0.4072510000000  0.4393910000000  0.4755670000000 1.0
C      1  0.4823760000000  0.4395630000000  0.4090480000000 1.0
C      1  0.5828940000000  0.4404870000000  0.4600940000000 1.0
C      1  0.5651700000000  0.4380190000000  0.5704010000000 1.0
C      1  0.4528660000000  0.4409780000000  0.5823000000000 1.0
C      1  0.5898810000000  0.5588100000000  0.4813270000000 1.0
C      1  0.5106810000000  0.5666300000000  0.4057180000000 1.0
C      1  0.4196060000000  0.5521680000000  0.4662940000000 1.0
C      1  0.4385470000000  0.5597230000000  0.5657530000000 1.0
C      1  0.5469880000000  0.5622540000000  0.5861920000000 1.0
C      1  0.5957710000000  0.5268480000000  0.4485480000000 1.0
C      1  0.5740750000000  0.5249690000000  0.5781070000000 1.0
C      1  0.4531470000000  0.5270210000000  0.5921380000000 1.0
C      1  0.3851040000000  0.5275430000000  0.4788760000000 1.0
C      1  0.4841890000000  0.5341180000000  0.3903020000000 1.0
C      1  0.3963000000000  0.4690870000000  0.4424090000000 1.0
C      1  0.4228990000000  0.4758480000000  0.5731730000000 1.0
C      1  0.5506760000000  0.4742730000000  0.5958890000000 1.0
C      1  0.6027260000000  0.4763930000000  0.4812760000000 1.0
C      1  0.5068810000000  0.4782260000000  0.3942220000000 1.0
C      1  0.4836030000000  0.5559190000000  0.4113310000000 1.0
C      1  0.5839580000000  0.5543530000000  0.4524770000000 1.0
C      1  0.5641080000000  0.5499590000000  0.5646680000000 1.0
C      1  0.4630220000000  0.5531970000000  0.5810380000000 1.0
C      1  0.3970200000000  0.5544520000000  0.4848280000000 1.0
C      1  0.5099720000000  0.4496540000000  0.4037470000000 1.0
C      1  0.4039950000000  0.4401560000000  0.4454180000000 1.0
C      1  0.4316360000000  0.4492270000000  0.5620490000000 1.0
C      1  0.5400040000000  0.4497790000000  0.5820450000000 1.0
C      1  0.5873570000000  0.4516480000000  0.4877360000000 1.0
C      1  0.5247000000000  0.4583800000000  0.5574670000000 1.0
C      1  0.4481290000000  0.4535550000000  0.5369510000000 1.0
C      1  0.4579140000000  0.4353210000000  0.4567420000000 1.0
C      1  0.5112600000000  0.4421430000000  0.4420670000000 1.0
C      1  0.5604260000000  0.4594710000000  0.4983940000000 1.0
C      1  0.4860720000000  0.5492810000000  0.5579480000000 1.0
C      1  0.5453300000000  0.5427730000000  0.5422870000000 1.0
C      1  0.5479630000000  0.5567760000000  0.4672340000000 1.0
C      1  0.4859980000000  0.5459930000000  0.4415470000000 1.0
C      1  0.4562450000000  0.5440400000000  0.4898110000000 1.0
C      1  0.4476420000000  0.5257800000000  0.4174850000000 1.0
C      1  0.5571060000000  0.5309660000000  0.4237450000000 1.0
C      1  0.5901270000000  0.5287540000000  0.5330330000000 1.0
C      1  0.4999670000000  0.5292510000000  0.5975000000000 1.0
C      1  0.4111660000000  0.5278740000000  0.5195950000000 1.0
C      1  0.5474280000000  0.4718910000000  0.4187190000000 1.0
C      1  0.4386510000000  0.4620090000000  0.4231520000000 1.0
C      1  0.4079700000000  0.4729550000000  0.5279450000000 1.0
C      1  0.5025940000000  0.4709430000000  0.5985140000000 1.0
C      1  0.5929670000000  0.4724800000000  0.5282450000000 1.0
C      1  0.4629170000000  0.4315840000000  0.5114710000000 1.0
C      1  0.4873980000000  0.4387790000000  0.4634940000000 1.0
C      1  0.5252550000000  0.4398030000000  0.4807700000000 1.0
C      1  0.5436930000000  0.4367250000000  0.5072090000000 1.0
C      1  0.5210420000000  0.4401400000000  0.5319910000000 1.0
C      1  0.5261600000000  0.5614370000000  0.5300390000000 1.0
C      1  0.5141730000000  0.5574930000000  0.4738730000000 1.0
C      1  0.4803670000000  0.5635420000000  0.4699190000000 1.0
C      1  0.4725880000000  0.5616580000000  0.5103510000000 1.0
C      1  0.5035290000000  0.5712040000000  0.5462420000000 1.0
C      1  0.4707950000000  0.4798270000000  0.4568820000000 1.0
C      1  0.5293740000000  0.4858230000000  0.4622900000000 1.0
C      1  0.5361070000000  0.4904490000000  0.5292870000000 1.0
C      1  0.4866390000000  0.4865120000000  0.5507500000000 1.0
C      1  0.4529130000000  0.5014780000000  0.5200070000000 1.0
C      1  0.5244980000000  0.5137180000000  0.4576740000000 1.0
C      1  0.4649750000000  0.5069410000000  0.4602090000000 1.0
C      1  0.4621260000000  0.5055570000000  0.5473240000000 1.0
C      1  0.5090150000000  0.5067100000000  0.5480600000000 1.0
C      1  0.5472870000000  0.5112220000000  0.5087480000000 1.0
C      1  0.4064850000000  0.4898610000000  0.5531920000000 1.0
C      1  0.4162190000000  0.4835820000000  0.4258550000000 1.0
C      1  0.5326780000000  0.4919470000000  0.4004640000000 1.0
C      1  0.6077050000000  0.4888270000000  0.5073280000000 1.0
C      1  0.5271040000000  0.4883910000000  0.6050820000000 1.0
C      1  0.5900030000000  0.5114360000000  0.5581340000000 1.0
C      1  0.5800100000000  0.5119990000000  0.4286100000000 1.0
C      1  0.4651930000000  0.5124710000000  0.3944650000000 1.0
C      1  0.3932360000000  0.5116470000000  0.5016200000000 1.0
C      1  0.4752960000000  0.5125090000000  0.6032760000000 1.0
C      1  0.5621860000000  0.5308320000000  0.5231330000000 1.0
C      1  0.5045230000000  0.5291050000000  0.5680770000000 1.0
C      1  0.4391330000000  0.5252400000000  0.5096420000000 1.0
C      1  0.4693710000000  0.5225710000000  0.4374060000000 1.0
C      1  0.5467030000000  0.5307940000000  0.4512940000000 1.0
C      1  0.4363380000000  0.4753270000000  0.5205630000000 1.0
C      1  0.5008270000000  0.4687230000000  0.5693800000000 1.0
C      1  0.5637760000000  0.4771920000000  0.5199740000000 1.0
C      1  0.5270250000000  0.4686370000000  0.4398410000000 1.0
C      1  0.4496040000000  0.4623890000000  0.4500720000000 1.0
C      1  0.4749700000000  0.4248190000000  0.5701290000000 1.0
C      1  0.4250050000000  0.4224120000000  0.4933610000000 1.0
C      1  0.4756610000000  0.4164140000000  0.4275870000000 1.0
C      1  0.5584410000000  0.4239120000000  0.4571920000000 1.0
C      1  0.5584480000000  0.4222940000000  0.5456820000000 1.0
C      1  0.5267310000000  0.5835600000000  0.5747990000000 1.0
C      1  0.5728040000000  0.5752620000000  0.4987110000000 1.0
C      1  0.5213460000000  0.5779760000000  0.4306120000000 1.0
C      1  0.4387200000000  0.5739090000000  0.4621340000000 1.0
C      1  0.4446420000000  0.5746240000000  0.5415930000000 1.0
C      1  0.5168960000000  0.3970970000000  0.5221970000000 1.0
C      1  0.4852070000000  0.3973670000000  0.5243110000000 1.0
C      1  0.4745570000000  0.3976280000000  0.4940990000000 1.0
C      1  0.4988690000000  0.3981390000000  0.4746730000000 1.0
C      1  0.5243970000000  0.3965770000000  0.4911320000000 1.0
C      1  0.4853900000000  0.6015340000000  0.5221550000000 1.0
C      1  0.5170730000000  0.6041840000000  0.5227150000000 1.0
C      1  0.5269340000000  0.6024550000000  0.4937700000000 1.0
C      1  0.5031170000000  0.6003330000000  0.4758630000000 1.0
C      1  0.4777230000000  0.6001490000000  0.4925030000000 1.0
C      1  0.4086510000000  0.5302930000000  0.4491950000000 1.0
C      1  0.5213060000000  0.5421990000000  0.3917480000000 1.0
C      1  0.6039650000000  0.5331260000000  0.4853640000000 1.0
C      1  0.5478090000000  0.5362670000000  0.6031730000000 1.0
C      1  0.4238580000000  0.5345160000000  0.5686600000000 1.0
C      1  0.5907470000000  0.4659980000000  0.4463360000000 1.0
C      1  0.4630800000000  0.4618660000000  0.4045190000000 1.0
C      1  0.3929930000000  0.4652340000000  0.4801810000000 1.0
C      1  0.4526480000000  0.4678380000000  0.5959110000000 1.0
C      1  0.5811580000000  0.4638580000000  0.5754630000000 1.0
C      1  0.5733890000000  0.4831040000000  0.4309340000000 1.0
C      1  0.5931080000000  0.4821300000000  0.5562000000000 1.0
C      1  0.4757950000000  0.4829270000000  0.6050680000000 1.0
C      1  0.3930430000000  0.4824620000000  0.5037030000000 1.0
C      1  0.4786030000000  0.4863200000000  0.3999700000000 1.0
C      1  0.4228630000000  0.5126280000000  0.4302690000000 1.0
C      1  0.4099850000000  0.5189940000000  0.5486160000000 1.0
C      1  0.5253270000000  0.5181210000000  0.6083400000000 1.0
C      1  0.6063240000000  0.5181720000000  0.5098500000000 1.0
C      1  0.5358490000000  0.5211860000000  0.4051080000000 1.0
C      1  0.5195620000000  0.4056410000000  0.5708450000000 1.0
C      1  0.4398880000000  0.4098650000000  0.5396000000000 1.0
C      1  0.4405080000000  0.3973710000000  0.4561670000000 1.0
C      1  0.5234200000000  0.4040590000000  0.4310200000000 1.0
C      1  0.5717360000000  0.4065340000000  0.5018430000000 1.0
C      1  0.4782490000000  0.5938180000000  0.5716780000000 1.0
C      1  0.5627920000000  0.5966060000000  0.5410860000000 1.0
C      1  0.5604340000000  0.5918350000000  0.4558570000000 1.0
C      1  0.4758740000000  0.5911030000000  0.4370230000000 1.0
C      1  0.4292640000000  0.5972140000000  0.5023650000000 1.0
C      1  0.4491580000000  0.5920820000000  0.4835460000000 1.0
C      1  0.5022110000000  0.5940540000000  0.4466560000000 1.0
C      1  0.5550980000000  0.5947210000000  0.4846300000000 1.0
C      1  0.5356530000000  0.6006150000000  0.5480100000000 1.0
C      1  0.4665810000000  0.5943800000000  0.5454690000000 1.0
C      1  0.5521780000000  0.4049390000000  0.4807000000000 1.0
C      1  0.4981670000000  0.4008580000000  0.4439740000000 1.0
C      1  0.4451010000000  0.4030260000000  0.4833340000000 1.0
C      1  0.4672730000000  0.4073410000000  0.5471370000000 1.0
C      1  0.5347890000000  0.4027950000000  0.5470570000000 1.0
C      1  0.4938730000000  0.5587400000000  0.6039410000000 1.0
C      1  0.4042700000000  0.5567840000000  0.5141870000000 1.0
C      1  0.4449940000000  0.5561610000000  0.4154330000000 1.0
C      1  0.5657220000000  0.5598010000000  0.4190930000000 1.0
C      1  0.5935800000000  0.5581270000000  0.5409020000000 1.0
C      1  0.5089060000000  0.4411620000000  0.6032810000000 1.0
C      1  0.5984270000000  0.4424240000000  0.5236700000000 1.0
C      1  0.5464840000000  0.4420970000000  0.4102600000000 1.0
C      1  0.4261370000000  0.4339070000000  0.4254870000000 1.0
C      1  0.4049540000000  0.4436210000000  0.5341660000000 1.0
C      1  0.5499890000000  0.5815360000000  0.4310440000000 1.0
C      1  0.5802690000000  0.5799190000000  0.5265950000000 1.0
C      1  0.4990990000000  0.5830710000000  0.5881730000000 1.0
C      1  0.4237190000000  0.5782580000000  0.5216910000000 1.0
C      1  0.4527510000000  0.5747240000000  0.4371220000000 1.0
C      1  0.4446790000000  0.4093460000000  0.4303860000000 1.0
C      1  0.4209270000000  0.4223360000000  0.5222470000000 1.0
C      1  0.4998220000000  0.4201010000000  0.5848990000000 1.0
C      1  0.5796580000000  0.4198670000000  0.5258390000000 1.0
C      1  0.5470650000000  0.4198860000000  0.4302910000000 1.0
C      1  0.5014500000000  0.4312600000000  0.5033570000000 1.0
C      1  0.5042020000000  0.5671150000000  0.5044350000000 1.0
C      1  0.4792180000000  0.5039740000000  0.5056160000000 1.0
END
