TITL C-3578202-4305-168 -2.01093181177608e-07 125000 -177.509746369232 0 0 30 (Cs) n - 1
REM
REM in /home/bkarasulu/work/CARBON/AIRSS/Generating-Clusters/EDIP-Nigel-Params/with-SteepDescent/Higher-Symm/SD-CG/HFTN-CG
REM
REM
REM
REM
REM
REM ./C.cell (12c818d87b63d06a65506943cc24bca4)
REM
REM compiler GCC version 9.2.1 20190827 (Red Hat 9.2.1-1)
REM options -cpp -mtune=generic -march=x86-64 -g -O0 -fpre-include=/usr/include/finclude/math-vector-fortran.h
REM seed 315656724 30133895 1568586100 -402077351 1596128686 103152326 1063416669 1288373741 -732666305 -827801234 1980329412 291826371 -825187958 -1572466645 2021193165 675026907 -1662387778 479722171 744600276 1214097779 -1061221506 1378759564 -800792081 -1888196833 -1790592590 1170933083 -1172428555 1109386672 1692144178 -303374670 -1682337738 -1271828561 311957891
REM
CELL 1.54180   50.00000   50.00000   50.00000   90.00000   90.00000   90.00000
LATT -1
SFAC C  
C      1  0.5516730000000  0.5434510000000  0.5090390000000 1.0
C      1  0.5005080000000  0.5451260000000  0.5312120000000 1.0
C      1  0.5363160000000  0.5160270000000  0.5427810000000 1.0
C      1  0.4434520000000  0.4681050000000  0.5014230000000 1.0
C      1  0.4579490000000  0.5398450000000  0.4906430000000 1.0
C      1  0.5514700000000  0.4702050000000  0.4989810000000 1.0
C      1  0.4839960000000  0.4463910000000  0.5150400000000 1.0
C      1  0.4898000000000  0.5437870000000  0.4571260000000 1.0
C      1  0.5058390000000  0.4495150000000  0.4694330000000 1.0
C      1  0.4732140000000  0.4852800000000  0.5463740000000 1.0
C      1  0.4577340000000  0.5099170000000  0.4551800000000 1.0
C      1  0.5323400000000  0.4983020000000  0.4517410000000 1.0
C      1  0.5280230000000  0.5574350000000  0.5065570000000 1.0
C      1  0.5511700000000  0.5173460000000  0.5191180000000 1.0
C      1  0.5100040000000  0.5241410000000  0.5486080000000 1.0
C      1  0.4585810000000  0.4451200000000  0.5033870000000 1.0
C      1  0.5321550000000  0.4498040000000  0.4978080000000 1.0
C      1  0.4832050000000  0.5500200000000  0.4838550000000 1.0
C      1  0.4527590000000  0.4946890000000  0.5283130000000 1.0
C      1  0.5519010000000  0.4981690000000  0.4722290000000 1.0
C      1  0.4496190000000  0.5145430000000  0.4818160000000 1.0
C      1  0.4831180000000  0.4598350000000  0.5395510000000 1.0
C      1  0.5057780000000  0.4702450000000  0.4501280000000 1.0
C      1  0.4844440000000  0.5171400000000  0.4492740000000 1.0
C      1  0.5044180000000  0.4561630000000  0.4971280000000 1.0
C      1  0.5043610000000  0.4977980000000  0.4577360000000 1.0
C      1  0.4562190000000  0.4933420000000  0.5000920000000 1.0
C      1  0.5036620000000  0.5434560000000  0.5029720000000 1.0
C      1  0.4912120000000  0.5046410000000  0.5552570000000 1.0
C      1  0.5436070000000  0.4975570000000  0.4995080000000 1.0
END
