TITL C-3578208-4450-440 -0.000146435244625913 125000 -68.8215973445129 0 0 13 (C1) n - 1
REM
REM in /home/bkarasulu/work/CARBON/AIRSS/Generating-Clusters/EDIP-Nigel-Params/with-SteepDescent/Higher-Symm/SD-CG/HFTN-CG
REM
REM
REM
REM
REM
REM ./C.cell (12c818d87b63d06a65506943cc24bca4)
REM
REM compiler GCC version 9.2.1 20190827 (Red Hat 9.2.1-1)
REM options -cpp -mtune=generic -march=x86-64 -g -O0 -fpre-include=/usr/include/finclude/math-vector-fortran.h
REM seed 2053448663 1100440077 1464017113 -38922481 48452860 -1147719060 1123138956 -1247027348 533547121 -1672638470 1032489218 206602096 1838958164 -721822057 -1926564328 -1002966493 677914019 1421545097 1756519082 -895312250 1175150220 395543567 1676219158 -590733534 -2064619151 -386417318 -1434242517 -1515293595 915403325 62843789 1697614396 -1479217746 54877884
REM
CELL 1.54180   50.00000   50.00000   50.00000   90.00000   90.00000   90.00000
LATT -1
SFAC C  
C      1  0.4800910000000  0.5482740000000  0.5151840000000 1.0
C      1  0.5089760000000  0.5601980000000  0.5196870000000 1.0
C      1  0.5179740000000  0.5328360000000  0.5157490000000 1.0
C      1  0.5068040000000  0.5221290000000  0.4913060000000 1.0
C      1  0.4875590000000  0.5437100000000  0.4847340000000 1.0
C      1  0.5145360000000  0.4722580000000  0.4899470000000 1.0
C      1  0.5037270000000  0.4464750000000  0.4787280000000 1.0
C      1  0.4768070000000  0.4472030000000  0.4944880000000 1.0
C      1  0.4920810000000  0.4444700000000  0.5211020000000 1.0
C      1  0.5057000000000  0.4703640000000  0.5185420000000 1.0
C      1  0.5086450000000  0.4266860000000  0.5020080000000 1.0
C      1  0.4969880000000  0.4953140000000  0.4905130000000 1.0
C      1  0.5026900000000  0.5693560000000  0.4914060000000 1.0
END
