TITL C-3577084-3642-268 -3.4062273054978e-07 125000 -641.653333629026 0 0 106 (C1) n - 1
REM
REM in /home/bkarasulu/work/CARBON/AIRSS/Generating-Clusters/EDIP-Nigel-Params/with-SteepDescent/Higher-Symm/SD-CG/HFTN-CG
REM
REM
REM
REM
REM
REM ./C.cell (12c818d87b63d06a65506943cc24bca4)
REM
REM compiler GCC version 9.2.1 20190827 (Red Hat 9.2.1-1)
REM options -cpp -mtune=generic -march=x86-64 -g -O0 -fpre-include=/usr/include/finclude/math-vector-fortran.h
REM seed 546362959 -1458688881 734625232 1992984927 1518496132 1694256038 1646380627 -360505046 980293218 -2085269857 241407634 1957924398 941535724 36056416 221362990 1057290514 1093645046 -155354947 1979190906 1908913335 -259410486 136788604 190425715 1986226004 -698303527 1661872009 -1453714566 -2060959141 -1312240122 810617504 1487257163 -653036589 -706848366
REM
CELL 1.54180   50.00000   50.00000   50.00000   90.00000   90.00000   90.00000
LATT -1
SFAC C  
C      1  0.4794540000000  0.4517550000000  0.5730100000000 1.0
C      1  0.5533560000000  0.5071860000000  0.5762670000000 1.0
C      1  0.4683960000000  0.5385320000000  0.5762590000000 1.0
C      1  0.4906650000000  0.4699420000000  0.5250950000000 1.0
C      1  0.5216520000000  0.5087170000000  0.5220630000000 1.0
C      1  0.4785360000000  0.5197100000000  0.5213430000000 1.0
C      1  0.5291360000000  0.4406440000000  0.5372810000000 1.0
C      1  0.5465330000000  0.5661690000000  0.5351040000000 1.0
C      1  0.4186030000000  0.5076690000000  0.5390040000000 1.0
C      1  0.5437390000000  0.5029310000000  0.4228380000000 1.0
C      1  0.4738710000000  0.5362760000000  0.4252020000000 1.0
C      1  0.4864090000000  0.4615440000000  0.4195540000000 1.0
C      1  0.5303880000000  0.5009180000000  0.4496900000000 1.0
C      1  0.4834590000000  0.5255100000000  0.4520940000000 1.0
C      1  0.4891560000000  0.4696560000000  0.4491660000000 1.0
C      1  0.5602580000000  0.4573320000000  0.4491820000000 1.0
C      1  0.5080680000000  0.5717170000000  0.4484620000000 1.0
C      1  0.4358940000000  0.4689280000000  0.4448360000000 1.0
C      1  0.5500310000000  0.4334100000000  0.4916540000000 1.0
C      1  0.5370030000000  0.5807090000000  0.4889760000000 1.0
C      1  0.4091340000000  0.4931560000000  0.4927160000000 1.0
C      1  0.4963130000000  0.5293180000000  0.4084440000000 1.0
C      1  0.4945180000000  0.4917460000000  0.4109340000000 1.0
C      1  0.5251780000000  0.4854790000000  0.4080390000000 1.0
C      1  0.4470270000000  0.4501890000000  0.4652600000000 1.0
C      1  0.5718070000000  0.4803690000000  0.4645300000000 1.0
C      1  0.4829870000000  0.5726850000000  0.4645920000000 1.0
C      1  0.4556740000000  0.4666900000000  0.5780250000000 1.0
C      1  0.5485000000000  0.4783060000000  0.5760150000000 1.0
C      1  0.4924730000000  0.5541040000000  0.5790590000000 1.0
C      1  0.5250050000000  0.4179050000000  0.4552930000000 1.0
C      1  0.5573470000000  0.5675890000000  0.4467880000000 1.0
C      1  0.4347390000000  0.5090100000000  0.4610770000000 1.0
C      1  0.5618880000000  0.5313740000000  0.4706850000000 1.0
C      1  0.4424460000000  0.5445610000000  0.4755320000000 1.0
C      1  0.4910730000000  0.4247780000000  0.4723280000000 1.0
C      1  0.4480470000000  0.4347910000000  0.5156680000000 1.0
C      1  0.5849860000000  0.4930310000000  0.5151090000000 1.0
C      1  0.4692450000000  0.5749950000000  0.5174460000000 1.0
C      1  0.4477610000000  0.4766270000000  0.5007810000000 1.0
C      1  0.5464220000000  0.4766450000000  0.5004760000000 1.0
C      1  0.5034900000000  0.5542120000000  0.4986230000000 1.0
C      1  0.4616730000000  0.5033950000000  0.5416250000000 1.0
C      1  0.5183260000000  0.4682520000000  0.5405120000000 1.0
C      1  0.5204000000000  0.5320100000000  0.5410040000000 1.0
C      1  0.4828380000000  0.4343650000000  0.5499130000000 1.0
C      1  0.5561410000000  0.5181340000000  0.5471540000000 1.0
C      1  0.4518440000000  0.5393680000000  0.5511010000000 1.0
C      1  0.5448240000000  0.4370650000000  0.4635270000000 1.0
C      1  0.5343190000000  0.5745100000000  0.4605530000000 1.0
C      1  0.4152940000000  0.4865150000000  0.4561360000000 1.0
C      1  0.4761010000000  0.4500940000000  0.4675060000000 1.0
C      1  0.5526400000000  0.5028510000000  0.4687550000000 1.0
C      1  0.4724570000000  0.5458050000000  0.4722260000000 1.0
C      1  0.4175460000000  0.5148870000000  0.5119490000000 1.0
C      1  0.5248310000000  0.4335770000000  0.5085720000000 1.0
C      1  0.5500580000000  0.5621590000000  0.5078850000000 1.0
C      1  0.4329750000000  0.4645010000000  0.5612470000000 1.0
C      1  0.5654160000000  0.4639940000000  0.5563950000000 1.0
C      1  0.5019260000000  0.5727480000000  0.5599300000000 1.0
C      1  0.5653950000000  0.5392980000000  0.4991840000000 1.0
C      1  0.4333440000000  0.5393920000000  0.5039680000000 1.0
C      1  0.4975390000000  0.4221210000000  0.5017990000000 1.0
C      1  0.4494870000000  0.5529220000000  0.5247930000000 1.0
C      1  0.4762700000000  0.4282750000000  0.5223190000000 1.0
C      1  0.5707470000000  0.5182590000000  0.5196510000000 1.0
C      1  0.5180450000000  0.5422090000000  0.4259990000000 1.0
C      1  0.4577790000000  0.4936770000000  0.4271360000000 1.0
C      1  0.5304290000000  0.4601830000000  0.4255150000000 1.0
C      1  0.4603610000000  0.4748250000000  0.5288460000000 1.0
C      1  0.5403770000000  0.4874500000000  0.5285120000000 1.0
C      1  0.4953270000000  0.5445190000000  0.5266940000000 1.0
C      1  0.4715700000000  0.5125070000000  0.5903480000000 1.0
C      1  0.5019010000000  0.4641230000000  0.5874710000000 1.0
C      1  0.5280920000000  0.5167840000000  0.5895560000000 1.0
C      1  0.4312290000000  0.4430310000000  0.4906600000000 1.0
C      1  0.5842440000000  0.4727860000000  0.4915260000000 1.0
C      1  0.4845850000000  0.5877510000000  0.4912640000000 1.0
C      1  0.5551730000000  0.4393600000000  0.5473200000000 1.0
C      1  0.5290060000000  0.5729670000000  0.5540850000000 1.0
C      1  0.4180260000000  0.4875090000000  0.5567410000000 1.0
C      1  0.5138210000000  0.5271460000000  0.4528310000000 1.0
C      1  0.4754690000000  0.4961810000000  0.4508420000000 1.0
C      1  0.5188610000000  0.4721820000000  0.4549250000000 1.0
C      1  0.4359840000000  0.4462390000000  0.5393180000000 1.0
C      1  0.5814420000000  0.4797400000000  0.5395390000000 1.0
C      1  0.4837280000000  0.5818630000000  0.5408390000000 1.0
C      1  0.5452690000000  0.5321960000000  0.4174060000000 1.0
C      1  0.4481880000000  0.5222420000000  0.4210460000000 1.0
C      1  0.5080240000000  0.4411710000000  0.4173590000000 1.0
C      1  0.4786690000000  0.4953800000000  0.5663730000000 1.0
C      1  0.5190900000000  0.4794410000000  0.5689390000000 1.0
C      1  0.5078720000000  0.5210440000000  0.5671280000000 1.0
C      1  0.5205820000000  0.4659340000000  0.4864720000000 1.0
C      1  0.5251600000000  0.5367630000000  0.4816510000000 1.0
C      1  0.4520570000000  0.5030830000000  0.4872860000000 1.0
C      1  0.5127300000000  0.5920060000000  0.4995570000000 1.0
C      1  0.4117860000000  0.4649470000000  0.5001780000000 1.0
C      1  0.5724870000000  0.4478800000000  0.5020590000000 1.0
C      1  0.5650730000000  0.5441910000000  0.4348630000000 1.0
C      1  0.4298560000000  0.5319220000000  0.4419040000000 1.0
C      1  0.5046370000000  0.4200280000000  0.4363280000000 1.0
C      1  0.4933960000000  0.4772850000000  0.4968460000000 1.0
C      1  0.5169280000000  0.5085530000000  0.4934070000000 1.0
C      1  0.4819940000000  0.5082360000000  0.4932610000000 1.0
C      1  0.5022350000000  0.4962260000000  0.6015030000000 1.0
END
