TITL C-3578203-1966-657 5.01201366980622e-07 125000 -703.540020121242 0 0 111 (Cs) n - 1
REM
REM in /home/bkarasulu/work/CARBON/AIRSS/Generating-Clusters/EDIP-Nigel-Params/with-SteepDescent/Higher-Symm/SD-CG/HFTN-CG
REM
REM
REM
REM
REM
REM ./C.cell (12c818d87b63d06a65506943cc24bca4)
REM
REM compiler GCC version 9.2.1 20190827 (Red Hat 9.2.1-1)
REM options -cpp -mtune=generic -march=x86-64 -g -O0 -fpre-include=/usr/include/finclude/math-vector-fortran.h
REM seed -1264874402 1481888782 -1560153477 -376734725 -1296578071 500414087 614829171 -1870896128 559888626 455908045 1994424409 -161981279 577547993 705440082 -1866566952 1767955897 959178615 -442128370 402990605 227576865 32817578 -376513074 556883956 -1158495605 668996829 963809097 -1498875517 -1259131896 -931992141 -495983795 -157686275 108320093 792579495
REM
CELL 1.54180   50.00000   50.00000   50.00000   90.00000   90.00000   90.00000
LATT -1
SFAC C  
C      1  0.4855310000000  0.4060530000000  0.5052510000000 1.0
C      1  0.4851840000000  0.5514980000000  0.5797790000000 1.0
C      1  0.4851200000000  0.5431030000000  0.4159880000000 1.0
C      1  0.5164270000000  0.4046300000000  0.5051580000000 1.0
C      1  0.5163100000000  0.5516930000000  0.5800360000000 1.0
C      1  0.5161230000000  0.5436960000000  0.4146390000000 1.0
C      1  0.4855310000000  0.5939470000000  0.5052510000000 1.0
C      1  0.4851830000000  0.4485020000000  0.5797800000000 1.0
C      1  0.4851200000000  0.4568970000000  0.4159880000000 1.0
C      1  0.5164270000000  0.5953700000000  0.5051570000000 1.0
C      1  0.5163100000000  0.4483080000000  0.5800370000000 1.0
C      1  0.5161230000000  0.4563030000000  0.4146390000000 1.0
C      1  0.5563890000000  0.5141860000000  0.4268170000000 1.0
C      1  0.5566970000000  0.4298020000000  0.5242200000000 1.0
C      1  0.5567180000000  0.5559900000000  0.5487640000000 1.0
C      1  0.4443120000000  0.5143300000000  0.4261330000000 1.0
C      1  0.4444330000000  0.4276500000000  0.5255220000000 1.0
C      1  0.4440900000000  0.5580440000000  0.5503520000000 1.0
C      1  0.5563890000000  0.4858130000000  0.4268170000000 1.0
C      1  0.5566980000000  0.5701980000000  0.5242200000000 1.0
C      1  0.5567180000000  0.4440100000000  0.5487640000000 1.0
C      1  0.4443120000000  0.4856700000000  0.4261330000000 1.0
C      1  0.4444330000000  0.5723510000000  0.5255210000000 1.0
C      1  0.4440900000000  0.4419560000000  0.5503520000000 1.0
C      1  0.4697980000000  0.5870120000000  0.5285990000000 1.0
C      1  0.4693150000000  0.4808150000000  0.4111570000000 1.0
C      1  0.4691810000000  0.4316450000000  0.5622280000000 1.0
C      1  0.5326100000000  0.5871880000000  0.5282800000000 1.0
C      1  0.5320640000000  0.4807640000000  0.4104140000000 1.0
C      1  0.5325810000000  0.4321690000000  0.5615350000000 1.0
C      1  0.4697970000000  0.4129880000000  0.5286000000000 1.0
C      1  0.4693150000000  0.5191840000000  0.4111570000000 1.0
C      1  0.4691810000000  0.5683560000000  0.5622280000000 1.0
C      1  0.5326090000000  0.4128120000000  0.5282800000000 1.0
C      1  0.5320640000000  0.5192350000000  0.4104140000000 1.0
C      1  0.5325820000000  0.5678310000000  0.5615340000000 1.0
C      1  0.5237560000000  0.4472340000000  0.4428650000000 1.0
C      1  0.5230870000000  0.4771120000000  0.5732140000000 1.0
C      1  0.5238640000000  0.5756140000000  0.4832100000000 1.0
C      1  0.4774060000000  0.4450470000000  0.4426260000000 1.0
C      1  0.4773520000000  0.4772610000000  0.5746520000000 1.0
C      1  0.4776820000000  0.5766340000000  0.4817880000000 1.0
C      1  0.5237570000000  0.5527660000000  0.4428640000000 1.0
C      1  0.5230870000000  0.5228890000000  0.5732130000000 1.0
C      1  0.5238640000000  0.4243860000000  0.4832110000000 1.0
C      1  0.4774060000000  0.5549530000000  0.4426260000000 1.0
C      1  0.4773520000000  0.5227400000000  0.5746510000000 1.0
C      1  0.4776820000000  0.4233660000000  0.4817890000000 1.0
C      1  0.4859010000000  0.4803930000000  0.5458250000000 1.0
C      1  0.4869950000000  0.5485490000000  0.4895950000000 1.0
C      1  0.4873080000000  0.4658930000000  0.4628040000000 1.0
C      1  0.5142960000000  0.4748030000000  0.5444840000000 1.0
C      1  0.5143820000000  0.5514880000000  0.4990090000000 1.0
C      1  0.5143960000000  0.4734220000000  0.4554740000000 1.0
C      1  0.4859010000000  0.5196070000000  0.5458250000000 1.0
C      1  0.4869950000000  0.4514510000000  0.4895950000000 1.0
C      1  0.4873080000000  0.5341070000000  0.4628030000000 1.0
C      1  0.5142960000000  0.5251970000000  0.5444830000000 1.0
C      1  0.5143820000000  0.4485120000000  0.4990090000000 1.0
C      1  0.5143960000000  0.5265780000000  0.4554740000000 1.0
C      1  0.4634040000000  0.4845900000000  0.4706580000000 1.0
C      1  0.4635080000000  0.4851280000000  0.5259220000000 1.0
C      1  0.4628990000000  0.5300030000000  0.4998330000000 1.0
C      1  0.5356570000000  0.4843380000000  0.4725030000000 1.0
C      1  0.5356350000000  0.4842070000000  0.5266980000000 1.0
C      1  0.5357270000000  0.5314470000000  0.4998020000000 1.0
C      1  0.4634040000000  0.5154100000000  0.4706580000000 1.0
C      1  0.4635080000000  0.5148720000000  0.5259220000000 1.0
C      1  0.4628990000000  0.4699970000000  0.4998330000000 1.0
C      1  0.5356570000000  0.5156620000000  0.4725030000000 1.0
C      1  0.5356360000000  0.5157930000000  0.5266980000000 1.0
C      1  0.5357270000000  0.4685530000000  0.4998020000000 1.0
C      1  0.4358000000000  0.4423100000000  0.5002780000000 1.0
C      1  0.4361720000000  0.5286100000000  0.5495720000000 1.0
C      1  0.4404650000000  0.5264490000000  0.4538050000000 1.0
C      1  0.5598740000000  0.4487900000000  0.5001830000000 1.0
C      1  0.5596480000000  0.5257720000000  0.5441120000000 1.0
C      1  0.5597630000000  0.5254000000000  0.4552730000000 1.0
C      1  0.4358000000000  0.5576910000000  0.5002770000000 1.0
C      1  0.4361720000000  0.4713900000000  0.5495720000000 1.0
C      1  0.4404650000000  0.4735510000000  0.4538050000000 1.0
C      1  0.5598740000000  0.5512090000000  0.5001830000000 1.0
C      1  0.5596480000000  0.4742280000000  0.5441120000000 1.0
C      1  0.5597630000000  0.4745990000000  0.4552740000000 1.0
C      1  0.4478480000000  0.5716200000000  0.4759950000000 1.0
C      1  0.4475810000000  0.4438100000000  0.4509840000000 1.0
C      1  0.4478220000000  0.4853080000000  0.5739410000000 1.0
C      1  0.5536630000000  0.5694330000000  0.4766270000000 1.0
C      1  0.5535650000000  0.4450660000000  0.4514040000000 1.0
C      1  0.5528540000000  0.4855430000000  0.5716030000000 1.0
C      1  0.4478480000000  0.4283800000000  0.4759950000000 1.0
C      1  0.4475810000000  0.5561890000000  0.4509840000000 1.0
C      1  0.4478220000000  0.5146930000000  0.5739410000000 1.0
C      1  0.5536630000000  0.4305670000000  0.4766270000000 1.0
C      1  0.5535650000000  0.5549330000000  0.4514030000000 1.0
C      1  0.5528540000000  0.5144580000000  0.5716030000000 1.0
C      1  0.5828790000000  0.4848800000000  0.4736820000000 1.0
C      1  0.5828950000000  0.4849300000000  0.5261170000000 1.0
C      1  0.5829410000000  0.5301750000000  0.4998580000000 1.0
C      1  0.4188510000000  0.4847760000000  0.4738900000000 1.0
C      1  0.4196760000000  0.4850610000000  0.5260640000000 1.0
C      1  0.4190450000000  0.5301310000000  0.5001630000000 1.0
C      1  0.5828790000000  0.5151200000000  0.4736820000000 1.0
C      1  0.5828950000000  0.5150700000000  0.5261160000000 1.0
C      1  0.5829410000000  0.4698240000000  0.4998590000000 1.0
C      1  0.4188510000000  0.5152240000000  0.4738890000000 1.0
C      1  0.4196760000000  0.5149390000000  0.5260640000000 1.0
C      1  0.4190450000000  0.4698700000000  0.5001630000000 1.0
C      1  0.5006580000000  0.5000000000000  0.5891610000000 1.0
C      1  0.5048410000000  0.5776770000000  0.4560380000000 1.0
C      1  0.5048400000000  0.4223230000000  0.4560380000000 1.0
END
