TITL C-3577078-809-642 8.18575879368153e-07 125000 -416.31463849119 0 0 67 (C1) n - 1
REM
REM in /home/bkarasulu/work/CARBON/AIRSS/Generating-Clusters/EDIP-Nigel-Params/with-SteepDescent/Higher-Symm/SD-CG/HFTN-CG
REM
REM
REM
REM
REM
REM ./C.cell (12c818d87b63d06a65506943cc24bca4)
REM
REM compiler GCC version 9.2.1 20190827 (Red Hat 9.2.1-1)
REM options -cpp -mtune=generic -march=x86-64 -g -O0 -fpre-include=/usr/include/finclude/math-vector-fortran.h
REM seed 1004080485 -77874829 -1747841990 -257248117 1439967095 -1136453645 -1516838182 -86405327 1720511299 -1792021640 -1238636929 -1406188543 1913436534 -247881910 1246241296 -850891914 322937701 169430312 204915777 -439890850 1660269931 -476190497 552111902 359798087 1829205946 1171266877 38369412 974953151 2040185786 1310194824 -891482712 1388133187 -1968702519
REM
CELL 1.54180   50.00000   50.00000   50.00000   90.00000   90.00000   90.00000
LATT -1
SFAC C  
C      1  0.4586780000000  0.5236690000000  0.4611830000000 1.0
C      1  0.4761590000000  0.4828360000000  0.4880170000000 1.0
C      1  0.4842360000000  0.5341970000000  0.4761480000000 1.0
C      1  0.4982930000000  0.5309680000000  0.5679530000000 1.0
C      1  0.4645020000000  0.4774260000000  0.5368120000000 1.0
C      1  0.5286810000000  0.4537890000000  0.4599200000000 1.0
C      1  0.4879240000000  0.4871170000000  0.5169300000000 1.0
C      1  0.4539410000000  0.4914570000000  0.4666340000000 1.0
C      1  0.4809980000000  0.5344090000000  0.5054660000000 1.0
C      1  0.4740560000000  0.5209270000000  0.5578410000000 1.0
C      1  0.5152560000000  0.4708450000000  0.5151610000000 1.0
C      1  0.5083320000000  0.5150670000000  0.4717850000000 1.0
C      1  0.4906070000000  0.4791530000000  0.5752880000000 1.0
C      1  0.4306810000000  0.4677640000000  0.5040950000000 1.0
C      1  0.4635510000000  0.4461500000000  0.5324900000000 1.0
C      1  0.5337600000000  0.4279040000000  0.5445410000000 1.0
C      1  0.5626510000000  0.5365290000000  0.4660900000000 1.0
C      1  0.4785280000000  0.4800300000000  0.4249110000000 1.0
C      1  0.4901870000000  0.5608270000000  0.5155120000000 1.0
C      1  0.4758030000000  0.4527720000000  0.4868760000000 1.0
C      1  0.5747250000000  0.4960650000000  0.4910960000000 1.0
C      1  0.5548990000000  0.5127070000000  0.4487610000000 1.0
C      1  0.5016220000000  0.4671560000000  0.4500720000000 1.0
C      1  0.4924750000000  0.5793190000000  0.4932240000000 1.0
C      1  0.5480430000000  0.4312200000000  0.4995030000000 1.0
C      1  0.4991970000000  0.5152450000000  0.5185960000000 1.0
C      1  0.5185170000000  0.5551250000000  0.5276190000000 1.0
C      1  0.5772850000000  0.5259970000000  0.4899650000000 1.0
C      1  0.4767450000000  0.5071820000000  0.4198610000000 1.0
C      1  0.5414460000000  0.4811650000000  0.4682120000000 1.0
C      1  0.5252730000000  0.4354600000000  0.4834740000000 1.0
C      1  0.5094610000000  0.4672820000000  0.5581860000000 1.0
C      1  0.5639500000000  0.5356380000000  0.5145230000000 1.0
C      1  0.5523290000000  0.4380000000000  0.5263820000000 1.0
C      1  0.5241220000000  0.5141760000000  0.4453750000000 1.0
C      1  0.4336200000000  0.5406900000000  0.5275010000000 1.0
C      1  0.5398520000000  0.5538260000000  0.4757430000000 1.0
C      1  0.5702820000000  0.4862130000000  0.4614340000000 1.0
C      1  0.5363930000000  0.5429260000000  0.5048240000000 1.0
C      1  0.5519000000000  0.4674180000000  0.5314670000000 1.0
C      1  0.5728070000000  0.4872580000000  0.5212930000000 1.0
C      1  0.4375460000000  0.4859230000000  0.5263170000000 1.0
C      1  0.4756470000000  0.4488220000000  0.4565080000000 1.0
C      1  0.4276030000000  0.4863680000000  0.4796700000000 1.0
C      1  0.5391060000000  0.5094340000000  0.5496890000000 1.0
C      1  0.5642160000000  0.5131300000000  0.5341910000000 1.0
C      1  0.4582530000000  0.4705680000000  0.4440030000000 1.0
C      1  0.4356510000000  0.5366510000000  0.4781620000000 1.0
C      1  0.4887500000000  0.4310830000000  0.5324500000000 1.0
C      1  0.5154920000000  0.5284760000000  0.5443620000000 1.0
C      1  0.5224030000000  0.5159830000000  0.4985070000000 1.0
C      1  0.5087440000000  0.4383000000000  0.5522100000000 1.0
C      1  0.4693540000000  0.4920610000000  0.5626930000000 1.0
C      1  0.4981100000000  0.4884670000000  0.4707570000000 1.0
C      1  0.4816990000000  0.5316900000000  0.4313610000000 1.0
C      1  0.4638490000000  0.5654870000000  0.5316150000000 1.0
C      1  0.4908550000000  0.5629830000000  0.4704150000000 1.0
C      1  0.5161150000000  0.5589270000000  0.4558910000000 1.0
C      1  0.4206060000000  0.5133900000000  0.4902860000000 1.0
C      1  0.4518030000000  0.4457880000000  0.5044870000000 1.0
C      1  0.4303580000000  0.5128240000000  0.5176370000000 1.0
C      1  0.5106000000000  0.5382750000000  0.4340290000000 1.0
C      1  0.4549060000000  0.5421320000000  0.5500700000000 1.0
C      1  0.5031060000000  0.4454920000000  0.5015200000000 1.0
C      1  0.4419120000000  0.5546180000000  0.5018200000000 1.0
C      1  0.5363830000000  0.4892640000000  0.4978190000000 1.0
C      1  0.5351690000000  0.4799590000000  0.5527670000000 1.0
END
