TITL C-3578198-8939-340 4.93677826081503e-07 125000 -337.094353605486 0 0 55 (C1) n - 1
REM
REM in /home/bkarasulu/work/CARBON/AIRSS/Generating-Clusters/EDIP-Nigel-Params/with-SteepDescent/Higher-Symm/SD-CG/HFTN-CG
REM
REM
REM
REM
REM
REM ./C.cell (12c818d87b63d06a65506943cc24bca4)
REM
REM compiler GCC version 9.2.1 20190827 (Red Hat 9.2.1-1)
REM options -cpp -mtune=generic -march=x86-64 -g -O0 -fpre-include=/usr/include/finclude/math-vector-fortran.h
REM seed -954910538 2124361071 -1958203699 -1030612401 -802526352 1391031413 -1696891670 1941438950 -998247081 23034211 247183042 -456087470 -892192272 -1261942158 1736163659 -205041654 627382038 -2134572165 -1018884274 -1308853799 1750708425 -1775847470 1816987514 -321537337 2126056272 816846993 -381091513 -1456930589 -24561896 -279469782 291627304 -1759858573 1106948053
REM
CELL 1.54180   50.00000   50.00000   50.00000   90.00000   90.00000   90.00000
LATT -1
SFAC C  
C      1  0.4730240000000  0.4713940000000  0.4474120000000 1.0
C      1  0.4655610000000  0.4731700000000  0.5247280000000 1.0
C      1  0.5344470000000  0.4627460000000  0.5465980000000 1.0
C      1  0.5539570000000  0.4605420000000  0.4730420000000 1.0
C      1  0.4696560000000  0.5328620000000  0.5454970000000 1.0
C      1  0.4474950000000  0.5343010000000  0.4723580000000 1.0
C      1  0.5189600000000  0.5253050000000  0.4524860000000 1.0
C      1  0.5416730000000  0.5274890000000  0.5254010000000 1.0
C      1  0.5045190000000  0.4649400000000  0.5515260000000 1.0
C      1  0.5601840000000  0.4573050000000  0.5020720000000 1.0
C      1  0.5027650000000  0.4711880000000  0.4514170000000 1.0
C      1  0.4585780000000  0.4748160000000  0.4955970000000 1.0
C      1  0.4896290000000  0.5294630000000  0.4473990000000 1.0
C      1  0.5406200000000  0.5230000000000  0.4954610000000 1.0
C      1  0.5000480000000  0.5322030000000  0.5518000000000 1.0
C      1  0.4437750000000  0.5346690000000  0.5025970000000 1.0
C      1  0.4901330000000  0.5750120000000  0.5303060000000 1.0
C      1  0.5317530000000  0.5701930000000  0.5036970000000 1.0
C      1  0.5062800000000  0.5713020000000  0.4635450000000 1.0
C      1  0.4643380000000  0.5767230000000  0.4906090000000 1.0
C      1  0.4870200000000  0.4255260000000  0.4535410000000 1.0
C      1  0.5294620000000  0.4220580000000  0.4914830000000 1.0
C      1  0.5106040000000  0.4243230000000  0.5336430000000 1.0
C      1  0.4726790000000  0.4301030000000  0.5055720000000 1.0
C      1  0.4944460000000  0.4781860000000  0.5270510000000 1.0
C      1  0.5390160000000  0.4729140000000  0.5163440000000 1.0
C      1  0.5065800000000  0.4840790000000  0.4785140000000 1.0
C      1  0.4770930000000  0.4930510000000  0.4797840000000 1.0
C      1  0.4667000000000  0.5136160000000  0.4595770000000 1.0
C      1  0.5294530000000  0.5048230000000  0.4730300000000 1.0
C      1  0.5186940000000  0.5129130000000  0.5391340000000 1.0
C      1  0.4620800000000  0.5188930000000  0.5195040000000 1.0
C      1  0.4841790000000  0.5583540000000  0.4503500000000 1.0
C      1  0.4478360000000  0.5631160000000  0.5117000000000 1.0
C      1  0.5107080000000  0.5593370000000  0.5450980000000 1.0
C      1  0.5421130000000  0.5505320000000  0.4854730000000 1.0
C      1  0.4904450000000  0.4386680000000  0.5503380000000 1.0
C      1  0.4574640000000  0.4466710000000  0.4856780000000 1.0
C      1  0.5096690000000  0.4428920000000  0.4514210000000 1.0
C      1  0.5516470000000  0.4298730000000  0.5111830000000 1.0
C      1  0.5345040000000  0.4380110000000  0.4670890000000 1.0
C      1  0.4655170000000  0.4438570000000  0.4571020000000 1.0
C      1  0.4657920000000  0.4426020000000  0.5327460000000 1.0
C      1  0.5388210000000  0.4325380000000  0.5387190000000 1.0
C      1  0.5354130000000  0.5571160000000  0.5291270000000 1.0
C      1  0.4639520000000  0.5623180000000  0.5370490000000 1.0
C      1  0.4586330000000  0.5616330000000  0.4652430000000 1.0
C      1  0.5283340000000  0.5527360000000  0.4600140000000 1.0
C      1  0.4544340000000  0.4979460000000  0.5375890000000 1.0
C      1  0.5424670000000  0.4956250000000  0.5478420000000 1.0
C      1  0.5503270000000  0.4871860000000  0.4633520000000 1.0
C      1  0.4558290000000  0.4951150000000  0.4401970000000 1.0
C      1  0.4939900000000  0.5775970000000  0.4996710000000 1.0
C      1  0.5048240000000  0.4347770000000  0.5056210000000 1.0
C      1  0.5111580000000  0.4668020000000  0.5049510000000 1.0
END
