TITL C-3578197-9521-517 2.63457115017024e-07 125000 -366.791850563906 0 0 62 (C1) n - 1
REM
REM in /home/bkarasulu/work/CARBON/AIRSS/Generating-Clusters/EDIP-Nigel-Params/with-SteepDescent/Higher-Symm/SD-CG/HFTN-CG
REM
REM
REM
REM
REM
REM ./C.cell (12c818d87b63d06a65506943cc24bca4)
REM
REM compiler GCC version 9.2.1 20190827 (Red Hat 9.2.1-1)
REM options -cpp -mtune=generic -march=x86-64 -g -O0 -fpre-include=/usr/include/finclude/math-vector-fortran.h
REM seed -704252646 336601993 1324819503 -1949182043 -743070143 -193663347 -578301844 1629760799 -1113225259 1993395722 -14388435 -1515323274 -1804687620 -402395647 -1877763389 -991349177 -950258596 -1122032459 -1916176368 -764824316 -309346070 1405994356 1395038453 877023003 924867229 1896055206 -245500198 -1338111539 -1205542207 -593180875 -1447813375 -740994832 1818500084
REM
CELL 1.54180   50.00000   50.00000   50.00000   90.00000   90.00000   90.00000
LATT -1
SFAC C  
C      1  0.4451230000000  0.5396220000000  0.5169160000000 1.0
C      1  0.4406250000000  0.5216000000000  0.4771040000000 1.0
C      1  0.4438150000000  0.4795610000000  0.4659880000000 1.0
C      1  0.4431040000000  0.4623750000000  0.5056450000000 1.0
C      1  0.4427500000000  0.4979340000000  0.5316960000000 1.0
C      1  0.5601160000000  0.5259510000000  0.5145690000000 1.0
C      1  0.5559280000000  0.5286910000000  0.4706560000000 1.0
C      1  0.5605860000000  0.4850060000000  0.4739900000000 1.0
C      1  0.5573430000000  0.4593730000000  0.5089860000000 1.0
C      1  0.5558520000000  0.4899330000000  0.5393980000000 1.0
C      1  0.5584440000000  0.5279920000000  0.5452890000000 1.0
C      1  0.5577890000000  0.5534040000000  0.4867720000000 1.0
C      1  0.5559970000000  0.5118260000000  0.4457660000000 1.0
C      1  0.5591010000000  0.4528100000000  0.4760840000000 1.0
C      1  0.5544030000000  0.4588230000000  0.5420090000000 1.0
C      1  0.4440220000000  0.5243020000000  0.5503180000000 1.0
C      1  0.4455460000000  0.5566880000000  0.4926880000000 1.0
C      1  0.4425210000000  0.5063940000000  0.4473860000000 1.0
C      1  0.4454030000000  0.4487270000000  0.4741350000000 1.0
C      1  0.4420390000000  0.4666600000000  0.5387810000000 1.0
C      1  0.4728220000000  0.4741560000000  0.5059360000000 1.0
C      1  0.4729570000000  0.4987120000000  0.5253290000000 1.0
C      1  0.4729380000000  0.5252500000000  0.5100640000000 1.0
C      1  0.4710260000000  0.5171150000000  0.4809110000000 1.0
C      1  0.4730170000000  0.4863100000000  0.4781000000000 1.0
C      1  0.5275440000000  0.4743810000000  0.5067440000000 1.0
C      1  0.5280510000000  0.4972610000000  0.5267500000000 1.0
C      1  0.5298200000000  0.5236220000000  0.5099640000000 1.0
C      1  0.5279440000000  0.5174580000000  0.4805790000000 1.0
C      1  0.5301690000000  0.4874020000000  0.4786310000000 1.0
C      1  0.4727020000000  0.5680730000000  0.4919540000000 1.0
C      1  0.4699240000000  0.5118370000000  0.4353330000000 1.0
C      1  0.4734790000000  0.4413570000000  0.4661880000000 1.0
C      1  0.4674020000000  0.4560750000000  0.5485360000000 1.0
C      1  0.4715200000000  0.5275440000000  0.5620480000000 1.0
C      1  0.5312860000000  0.5656680000000  0.4902050000000 1.0
C      1  0.5289040000000  0.5155410000000  0.4345350000000 1.0
C      1  0.5321710000000  0.4432050000000  0.4661610000000 1.0
C      1  0.5263530000000  0.4497270000000  0.5475800000000 1.0
C      1  0.5315890000000  0.5301090000000  0.5585590000000 1.0
C      1  0.4863690000000  0.4863160000000  0.4316650000000 1.0
C      1  0.4880060000000  0.4299250000000  0.4899230000000 1.0
C      1  0.4838670000000  0.4739100000000  0.5645590000000 1.0
C      1  0.4864650000000  0.5508870000000  0.5523290000000 1.0
C      1  0.4864030000000  0.5677820000000  0.4668370000000 1.0
C      1  0.5150180000000  0.4916280000000  0.4262500000000 1.0
C      1  0.5172610000000  0.4283280000000  0.4862910000000 1.0
C      1  0.5121540000000  0.4665460000000  0.5666480000000 1.0
C      1  0.5158070000000  0.5528030000000  0.5472630000000 1.0
C      1  0.5148900000000  0.5609960000000  0.4645890000000 1.0
C      1  0.4874580000000  0.4689310000000  0.4574100000000 1.0
C      1  0.4850150000000  0.4474920000000  0.5158710000000 1.0
C      1  0.4854250000000  0.5018040000000  0.5529860000000 1.0
C      1  0.4874020000000  0.5521280000000  0.5135900000000 1.0
C      1  0.4830570000000  0.5304350000000  0.4565790000000 1.0
C      1  0.5182750000000  0.4693420000000  0.4576420000000 1.0
C      1  0.5152790000000  0.4491150000000  0.5188950000000 1.0
C      1  0.5160290000000  0.5030860000000  0.5537880000000 1.0
C      1  0.5181690000000  0.5515230000000  0.5152540000000 1.0
C      1  0.5135660000000  0.5310720000000  0.4568070000000 1.0
C      1  0.5703380000000  0.4958240000000  0.5040840000000 1.0
C      1  0.4307460000000  0.4974830000000  0.4978750000000 1.0
END
