TITL C-3578195-8548-115 -8.5844251915028e-07 125000 -97.5470893500527 0 0 19 (C1) n - 1
REM
REM in /home/bkarasulu/work/CARBON/AIRSS/Generating-Clusters/EDIP-Nigel-Params/with-SteepDescent/Higher-Symm/SD-CG/HFTN-CG
REM
REM
REM
REM
REM
REM ./C.cell (12c818d87b63d06a65506943cc24bca4)
REM
REM compiler GCC version 9.2.1 20190827 (Red Hat 9.2.1-1)
REM options -cpp -mtune=generic -march=x86-64 -g -O0 -fpre-include=/usr/include/finclude/math-vector-fortran.h
REM seed 1538248663 -2079402202 281467384 661173813 1274818010 -1315201900 682097036 42903847 -929673535 1710722394 1776860085 1043402945 323658072 1239747767 -240390675 473478354 954228527 2141710435 -562398828 1596529420 -924547431 -1755860024 -944082328 -388259868 -1353792918 -1585932020 -1908913646 396612814 1646099320 -347211312 207199995 1089298183 -205423099
REM
CELL 1.54180   50.00000   50.00000   50.00000   90.00000   90.00000   90.00000
LATT -1
SFAC C  
C      1  0.4848420000000  0.5397790000000  0.5030310000000 1.0
C      1  0.4491620000000  0.5257340000000  0.4546170000000 1.0
C      1  0.4480490000000  0.5549720000000  0.5233630000000 1.0
C      1  0.6271260000000  0.4028430000000  0.5412760000000 1.0
C      1  0.4916650000000  0.5130130000000  0.5105290000000 1.0
C      1  0.4535880000000  0.5346360000000  0.5027020000000 1.0
C      1  0.5485430000000  0.4653570000000  0.5115470000000 1.0
C      1  0.4756940000000  0.5603280000000  0.5220900000000 1.0
C      1  0.4158660000000  0.5487600000000  0.4778880000000 1.0
C      1  0.4630360000000  0.4760000000000  0.5216580000000 1.0
C      1  0.4713580000000  0.4941220000000  0.5045240000000 1.0
C      1  0.5881180000000  0.4338740000000  0.5266180000000 1.0
C      1  0.5682760000000  0.4496570000000  0.5193120000000 1.0
C      1  0.5088400000000  0.4969510000000  0.4946480000000 1.0
C      1  0.4415270000000  0.5423090000000  0.4767800000000 1.0
C      1  0.6079080000000  0.4181300000000  0.5341450000000 1.0
C      1  0.5285630000000  0.4812480000000  0.5048170000000 1.0
C      1  0.4532050000000  0.5354630000000  0.4282800000000 1.0
C      1  0.4746330000000  0.5268210000000  0.4421760000000 1.0
END
