TITL C-3578196-9646-753 4.09844573878308e-07 125000 -553.352652142079 0 0 89 (C1) n - 1
REM
REM in /home/bkarasulu/work/CARBON/AIRSS/Generating-Clusters/EDIP-Nigel-Params/with-SteepDescent/Higher-Symm/SD-CG/HFTN-CG
REM
REM
REM
REM
REM
REM ./C.cell (12c818d87b63d06a65506943cc24bca4)
REM
REM compiler GCC version 9.2.1 20190827 (Red Hat 9.2.1-1)
REM options -cpp -mtune=generic -march=x86-64 -g -O0 -fpre-include=/usr/include/finclude/math-vector-fortran.h
REM seed -1021165266 -1810157442 -775380498 2094281892 -1642467625 -1974511865 444534660 254173130 827496329 346895970 1965316249 -793699651 525060455 -810356240 379272696 33131426 -869987172 238295745 380990819 1374445794 1717724517 1177352980 953981009 922375467 -836962910 -992383640 1200275266 1778532367 -1105998793 -1763263092 -2080235370 1364824185 -373705401
REM
CELL 1.54180   50.00000   50.00000   50.00000   90.00000   90.00000   90.00000
LATT -1
SFAC C  
C      1  0.4851940000000  0.5807790000000  0.5566170000000 1.0
C      1  0.5570840000000  0.5639940000000  0.4926710000000 1.0
C      1  0.4545290000000  0.5554930000000  0.4387730000000 1.0
C      1  0.4798370000000  0.4256450000000  0.5617620000000 1.0
C      1  0.5661520000000  0.4459020000000  0.4880610000000 1.0
C      1  0.4618100000000  0.4437760000000  0.4392300000000 1.0
C      1  0.4690610000000  0.5319280000000  0.4338590000000 1.0
C      1  0.4638720000000  0.5631600000000  0.5510670000000 1.0
C      1  0.5624040000000  0.5392330000000  0.5049890000000 1.0
C      1  0.4721750000000  0.4695390000000  0.4358770000000 1.0
C      1  0.4576900000000  0.4422000000000  0.5543520000000 1.0
C      1  0.5657540000000  0.4679350000000  0.5055200000000 1.0
C      1  0.5154370000000  0.5238570000000  0.5203150000000 1.0
C      1  0.4982790000000  0.5273890000000  0.4736650000000 1.0
C      1  0.4688490000000  0.5298270000000  0.5116280000000 1.0
C      1  0.5168570000000  0.4744010000000  0.5138610000000 1.0
C      1  0.4896440000000  0.4790750000000  0.4768980000000 1.0
C      1  0.4689570000000  0.4719580000000  0.5161010000000 1.0
C      1  0.4409880000000  0.4888110000000  0.5520920000000 1.0
C      1  0.5650950000000  0.4901340000000  0.5476350000000 1.0
C      1  0.5191990000000  0.4843110000000  0.4195030000000 1.0
C      1  0.4439410000000  0.5187710000000  0.5510530000000 1.0
C      1  0.5580540000000  0.5186670000000  0.5488700000000 1.0
C      1  0.5161360000000  0.5150860000000  0.4217840000000 1.0
C      1  0.5369350000000  0.5789670000000  0.4796700000000 1.0
C      1  0.4654230000000  0.5653930000000  0.4625870000000 1.0
C      1  0.5061020000000  0.5843420000000  0.5382030000000 1.0
C      1  0.5443450000000  0.4308510000000  0.4784280000000 1.0
C      1  0.4708490000000  0.4274190000000  0.4602820000000 1.0
C      1  0.4994290000000  0.4181140000000  0.5427940000000 1.0
C      1  0.4183080000000  0.4806920000000  0.5334310000000 1.0
C      1  0.5471220000000  0.4778450000000  0.5665230000000 1.0
C      1  0.5488250000000  0.4770240000000  0.4197280000000 1.0
C      1  0.4227040000000  0.5292400000000  0.5324200000000 1.0
C      1  0.5415030000000  0.5262040000000  0.5718880000000 1.0
C      1  0.5434650000000  0.5274410000000  0.4227110000000 1.0
C      1  0.5087320000000  0.5614640000000  0.4412100000000 1.0
C      1  0.4637460000000  0.5833850000000  0.5081630000000 1.0
C      1  0.5571870000000  0.5676500000000  0.5425690000000 1.0
C      1  0.5142080000000  0.4294300000000  0.4384490000000 1.0
C      1  0.4646300000000  0.4237830000000  0.5107190000000 1.0
C      1  0.5423640000000  0.4307420000000  0.5225210000000 1.0
C      1  0.5386350000000  0.4736120000000  0.4696050000000 1.0
C      1  0.4412250000000  0.4824780000000  0.4768310000000 1.0
C      1  0.4908510000000  0.4759770000000  0.5572820000000 1.0
C      1  0.5385720000000  0.4993330000000  0.4565970000000 1.0
C      1  0.4304190000000  0.5076330000000  0.4886430000000 1.0
C      1  0.5017360000000  0.5014130000000  0.5665610000000 1.0
C      1  0.4967910000000  0.5377260000000  0.4243740000000 1.0
C      1  0.4464310000000  0.5736900000000  0.5300220000000 1.0
C      1  0.5672790000000  0.5423390000000  0.5335710000000 1.0
C      1  0.5022690000000  0.4636270000000  0.4348240000000 1.0
C      1  0.4429230000000  0.4321050000000  0.5308190000000 1.0
C      1  0.5608570000000  0.4552910000000  0.5311300000000 1.0
C      1  0.4245070000000  0.4553430000000  0.5173050000000 1.0
C      1  0.5320620000000  0.4523780000000  0.5576280000000 1.0
C      1  0.5560500000000  0.4565750000000  0.4393230000000 1.0
C      1  0.4310580000000  0.5525030000000  0.5168560000000 1.0
C      1  0.5191770000000  0.5455030000000  0.5643120000000 1.0
C      1  0.5424890000000  0.5434290000000  0.4488230000000 1.0
C      1  0.5410960000000  0.4340950000000  0.4492030000000 1.0
C      1  0.4546200000000  0.4297500000000  0.4838240000000 1.0
C      1  0.5283760000000  0.4217160000000  0.5481270000000 1.0
C      1  0.5371630000000  0.5732190000000  0.4503470000000 1.0
C      1  0.4487010000000  0.5693840000000  0.4860000000000 1.0
C      1  0.5288380000000  0.5665340000000  0.5460490000000 1.0
C      1  0.5187770000000  0.4332790000000  0.4973230000000 1.0
C      1  0.5000340000000  0.4250160000000  0.4642960000000 1.0
C      1  0.4932730000000  0.4348810000000  0.5188180000000 1.0
C      1  0.5085580000000  0.5743220000000  0.4874020000000 1.0
C      1  0.4940620000000  0.5584560000000  0.4671380000000 1.0
C      1  0.4936570000000  0.5813340000000  0.5114640000000 1.0
C      1  0.4669050000000  0.4873970000000  0.4606360000000 1.0
C      1  0.4642240000000  0.4706720000000  0.5457480000000 1.0
C      1  0.5417600000000  0.4839370000000  0.4991070000000 1.0
C      1  0.4707640000000  0.5184080000000  0.4607420000000 1.0
C      1  0.4693430000000  0.5343820000000  0.5422760000000 1.0
C      1  0.5401030000000  0.5187400000000  0.5007720000000 1.0
C      1  0.4511780000000  0.5305400000000  0.4861030000000 1.0
C      1  0.5009000000000  0.5261520000000  0.5489320000000 1.0
C      1  0.5301820000000  0.5237110000000  0.4709300000000 1.0
C      1  0.4469860000000  0.4622710000000  0.4981830000000 1.0
C      1  0.5092640000000  0.4609410000000  0.5399520000000 1.0
C      1  0.5102970000000  0.4625930000000  0.4658990000000 1.0
C      1  0.5294610000000  0.4995110000000  0.5780270000000 1.0
C      1  0.4149440000000  0.5057740000000  0.5154070000000 1.0
C      1  0.5572780000000  0.5028280000000  0.4328800000000 1.0
C      1  0.4932720000000  0.5172420000000  0.5028270000000 1.0
C      1  0.4917810000000  0.4862060000000  0.5038270000000 1.0
END
