TITL C-3577077-324-674 1.535584112305e-06 125000 -694.786254337388 0 0 110 (C1) n - 1
REM
REM in /home/bkarasulu/work/CARBON/AIRSS/Generating-Clusters/EDIP-Nigel-Params/with-SteepDescent/Higher-Symm/SD-CG/HFTN-CG
REM
REM
REM
REM
REM
REM ./C.cell (12c818d87b63d06a65506943cc24bca4)
REM
REM compiler GCC version 9.2.1 20190827 (Red Hat 9.2.1-1)
REM options -cpp -mtune=generic -march=x86-64 -g -O0 -fpre-include=/usr/include/finclude/math-vector-fortran.h
REM seed 136196958 -1229059194 1571898940 1472296356 -85999762 -1109169895 -1165196919 187757262 -1166595983 1416777906 -724253581 -658432 1960946827 272677071 -871377883 -1326306638 -502405262 -1868109802 -1076683142 -1670782814 -2037964021 443821459 315011807 1710748401 -909938783 1435638132 -443433123 -1911554115 89645380 -1692051637 -509728510 1347523379 555178940
REM
CELL 1.54180   50.00000   50.00000   50.00000   90.00000   90.00000   90.00000
LATT -1
SFAC C  
C      1  0.4303500000000  0.5264770000000  0.4832230000000 1.0
C      1  0.4303830000000  0.4729300000000  0.4801330000000 1.0
C      1  0.4983160000000  0.4078960000000  0.5330780000000 1.0
C      1  0.4989980000000  0.5925610000000  0.5318330000000 1.0
C      1  0.5166710000000  0.4451510000000  0.5086690000000 1.0
C      1  0.5174420000000  0.5530080000000  0.5083930000000 1.0
C      1  0.4577760000000  0.4824810000000  0.4665450000000 1.0
C      1  0.4580570000000  0.5162640000000  0.4679900000000 1.0
C      1  0.4568780000000  0.5601380000000  0.4402760000000 1.0
C      1  0.4577990000000  0.4387300000000  0.4390670000000 1.0
C      1  0.5254000000000  0.4759040000000  0.3985050000000 1.0
C      1  0.5247790000000  0.5244380000000  0.3990260000000 1.0
C      1  0.5498470000000  0.5366860000000  0.4390670000000 1.0
C      1  0.5505730000000  0.4632110000000  0.4384990000000 1.0
C      1  0.4995260000000  0.5145330000000  0.4082090000000 1.0
C      1  0.4999900000000  0.4852380000000  0.4078650000000 1.0
C      1  0.4842180000000  0.4749950000000  0.4805000000000 1.0
C      1  0.4851920000000  0.5220670000000  0.4812810000000 1.0
C      1  0.5595910000000  0.4330260000000  0.5346220000000 1.0
C      1  0.5604340000000  0.5675090000000  0.5347450000000 1.0
C      1  0.5713080000000  0.5143620000000  0.5131500000000 1.0
C      1  0.5704980000000  0.4843800000000  0.5133620000000 1.0
C      1  0.4697530000000  0.4168830000000  0.5316470000000 1.0
C      1  0.4703500000000  0.5833040000000  0.5319670000000 1.0
C      1  0.4083470000000  0.4860680000000  0.4674600000000 1.0
C      1  0.4090400000000  0.5125230000000  0.4705570000000 1.0
C      1  0.4906310000000  0.5581500000000  0.5682860000000 1.0
C      1  0.4896050000000  0.4432940000000  0.5678050000000 1.0
C      1  0.4847370000000  0.4247030000000  0.4398650000000 1.0
C      1  0.4836270000000  0.5744660000000  0.4410010000000 1.0
C      1  0.4734750000000  0.5149840000000  0.5817280000000 1.0
C      1  0.4731670000000  0.4863100000000  0.5812650000000 1.0
C      1  0.5496200000000  0.4703590000000  0.5675150000000 1.0
C      1  0.5503020000000  0.5294180000000  0.5672750000000 1.0
C      1  0.4633110000000  0.4114130000000  0.4804890000000 1.0
C      1  0.4610390000000  0.5890710000000  0.4805420000000 1.0
C      1  0.5856420000000  0.4732810000000  0.5352190000000 1.0
C      1  0.5865790000000  0.5251390000000  0.5349950000000 1.0
C      1  0.4593810000000  0.4873580000000  0.5151740000000 1.0
C      1  0.4559790000000  0.5137170000000  0.5254600000000 1.0
C      1  0.4875600000000  0.4537420000000  0.5018370000000 1.0
C      1  0.4897660000000  0.5420600000000  0.5020910000000 1.0
C      1  0.4771020000000  0.4664950000000  0.5263870000000 1.0
C      1  0.4777510000000  0.5340340000000  0.5276230000000 1.0
C      1  0.5421810000000  0.5151820000000  0.4197790000000 1.0
C      1  0.5426550000000  0.4849650000000  0.4194430000000 1.0
C      1  0.5641800000000  0.4712200000000  0.4628760000000 1.0
C      1  0.5638010000000  0.5285590000000  0.4630980000000 1.0
C      1  0.5299510000000  0.5576980000000  0.4461850000000 1.0
C      1  0.5308670000000  0.4418490000000  0.4452630000000 1.0
C      1  0.4245730000000  0.5450060000000  0.5304050000000 1.0
C      1  0.4249850000000  0.4572190000000  0.5285220000000 1.0
C      1  0.5186550000000  0.5847600000000  0.5077020000000 1.0
C      1  0.5194590000000  0.4141960000000  0.5075790000000 1.0
C      1  0.4432790000000  0.4261000000000  0.4632690000000 1.0
C      1  0.4416650000000  0.5731560000000  0.4638680000000 1.0
C      1  0.4885710000000  0.4166240000000  0.4675790000000 1.0
C      1  0.4870160000000  0.5836510000000  0.4684570000000 1.0
C      1  0.4424920000000  0.5464210000000  0.5554180000000 1.0
C      1  0.4417680000000  0.4562100000000  0.5543170000000 1.0
C      1  0.5717960000000  0.5513290000000  0.4780290000000 1.0
C      1  0.5726450000000  0.4485830000000  0.4777670000000 1.0
C      1  0.5432450000000  0.5264500000000  0.5054290000000 1.0
C      1  0.5422110000000  0.4727740000000  0.5048950000000 1.0
C      1  0.5357740000000  0.5800400000000  0.4648680000000 1.0
C      1  0.5367700000000  0.4198750000000  0.4645410000000 1.0
C      1  0.5225430000000  0.4865370000000  0.5229120000000 1.0
C      1  0.5252780000000  0.5132740000000  0.5258770000000 1.0
C      1  0.4260830000000  0.4433370000000  0.4807330000000 1.0
C      1  0.4247330000000  0.5561950000000  0.4820440000000 1.0
C      1  0.5249510000000  0.5543650000000  0.5409960000000 1.0
C      1  0.5241020000000  0.4463860000000  0.5404920000000 1.0
C      1  0.4988180000000  0.5282480000000  0.5713400000000 1.0
C      1  0.4981310000000  0.4728410000000  0.5703740000000 1.0
C      1  0.5138610000000  0.4074860000000  0.4784300000000 1.0
C      1  0.5127090000000  0.5924020000000  0.4789190000000 1.0
C      1  0.5544630000000  0.4416520000000  0.5621880000000 1.0
C      1  0.5556010000000  0.5581310000000  0.5621850000000 1.0
C      1  0.4476090000000  0.5202730000000  0.5685090000000 1.0
C      1  0.4470420000000  0.4816900000000  0.5685050000000 1.0
C      1  0.5263870000000  0.5155620000000  0.5802820000000 1.0
C      1  0.5258460000000  0.4847160000000  0.5799350000000 1.0
C      1  0.5581170000000  0.5754720000000  0.4839770000000 1.0
C      1  0.5588370000000  0.4245540000000  0.4838430000000 1.0
C      1  0.5098450000000  0.5761410000000  0.5545240000000 1.0
C      1  0.5090780000000  0.4252200000000  0.5549520000000 1.0
C      1  0.4930590000000  0.4711610000000  0.4334130000000 1.0
C      1  0.4926060000000  0.5279010000000  0.4342440000000 1.0
C      1  0.5052400000000  0.4435490000000  0.4309410000000 1.0
C      1  0.5042930000000  0.5556960000000  0.4322900000000 1.0
C      1  0.5057550000000  0.4832710000000  0.4607650000000 1.0
C      1  0.5060730000000  0.5150760000000  0.4610000000000 1.0
C      1  0.4310680000000  0.4808560000000  0.5098540000000 1.0
C      1  0.4289940000000  0.5194700000000  0.5140490000000 1.0
C      1  0.4309120000000  0.4350800000000  0.5087460000000 1.0
C      1  0.4285620000000  0.5668470000000  0.5096400000000 1.0
C      1  0.4624100000000  0.5300170000000  0.4406410000000 1.0
C      1  0.4628030000000  0.4689700000000  0.4391260000000 1.0
C      1  0.4546170000000  0.5802900000000  0.5076980000000 1.0
C      1  0.4597610000000  0.4267560000000  0.5056130000000 1.0
C      1  0.4994940000000  0.5197760000000  0.5419090000000 1.0
C      1  0.4985110000000  0.4809200000000  0.5406200000000 1.0
C      1  0.5502400000000  0.4163960000000  0.5118890000000 1.0
C      1  0.5496060000000  0.5833510000000  0.5120580000000 1.0
C      1  0.4693780000000  0.5571930000000  0.5467430000000 1.0
C      1  0.4681110000000  0.4440320000000  0.5463780000000 1.0
C      1  0.5725070000000  0.4850980000000  0.5575520000000 1.0
C      1  0.5729570000000  0.5140970000000  0.5573980000000 1.0
C      1  0.5398210000000  0.4837360000000  0.4762680000000 1.0
C      1  0.5398580000000  0.5153530000000  0.4766340000000 1.0
END
