TITL C-3577084-3642-355 1.04793519694651e-06 125000 -509.48030888567 0 0 82 (C1) n - 1
REM
REM in /home/bkarasulu/work/CARBON/AIRSS/Generating-Clusters/EDIP-Nigel-Params/with-SteepDescent/Higher-Symm/SD-CG/HFTN-CG
REM
REM
REM
REM
REM
REM ./C.cell (12c818d87b63d06a65506943cc24bca4)
REM
REM compiler GCC version 9.2.1 20190827 (Red Hat 9.2.1-1)
REM options -cpp -mtune=generic -march=x86-64 -g -O0 -fpre-include=/usr/include/finclude/math-vector-fortran.h
REM seed 1033869013 -1156493696 -2012209899 43278062 65626147 -694629565 665399158 1843326794 782481625 -202058296 183737068 -1835535326 481552582 1822348521 -339945312 -972560745 -1001582441 1254088372 -1764874548 997383585 -1731158632 -2018832101 -2104423606 -935196240 1641879677 -1262038573 -1609521146 -236891129 -1328116763 -2048241392 -902254121 2001146497 268572739
REM
CELL 1.54180   50.00000   50.00000   50.00000   90.00000   90.00000   90.00000
LATT -1
SFAC C  
C      1  0.5008600000000  0.5706540000000  0.5293600000000 1.0
C      1  0.4305170000000  0.5665810000000  0.5101660000000 1.0
C      1  0.5727880000000  0.5387750000000  0.5278770000000 1.0
C      1  0.4460130000000  0.4695460000000  0.4988800000000 1.0
C      1  0.5357640000000  0.4358900000000  0.4426200000000 1.0
C      1  0.4751120000000  0.5195860000000  0.5025250000000 1.0
C      1  0.4516570000000  0.5103070000000  0.5581220000000 1.0
C      1  0.4990350000000  0.5398170000000  0.4685180000000 1.0
C      1  0.5298370000000  0.4983140000000  0.5012100000000 1.0
C      1  0.4670440000000  0.4608920000000  0.5426900000000 1.0
C      1  0.5747880000000  0.4749170000000  0.5105630000000 1.0
C      1  0.5262900000000  0.5607040000000  0.5410220000000 1.0
C      1  0.4472750000000  0.5307270000000  0.4922310000000 1.0
C      1  0.4835800000000  0.4950310000000  0.4251700000000 1.0
C      1  0.5112190000000  0.4752620000000  0.5756230000000 1.0
C      1  0.4809390000000  0.4940520000000  0.4863980000000 1.0
C      1  0.5032360000000  0.5841350000000  0.5016600000000 1.0
C      1  0.4669150000000  0.5578070000000  0.5412060000000 1.0
C      1  0.5211140000000  0.4788310000000  0.5264180000000 1.0
C      1  0.4933700000000  0.5239850000000  0.5508420000000 1.0
C      1  0.4310120000000  0.5662360000000  0.4814810000000 1.0
C      1  0.4368990000000  0.4407440000000  0.5023930000000 1.0
C      1  0.5588620000000  0.5019840000000  0.4422490000000 1.0
C      1  0.4779500000000  0.4199410000000  0.5140340000000 1.0
C      1  0.5403360000000  0.5148750000000  0.5568220000000 1.0
C      1  0.4454470000000  0.4263390000000  0.4771330000000 1.0
C      1  0.4892910000000  0.4785990000000  0.5266130000000 1.0
C      1  0.5232070000000  0.5282670000000  0.5111310000000 1.0
C      1  0.4753870000000  0.4241840000000  0.4846770000000 1.0
C      1  0.4473200000000  0.5357730000000  0.5439820000000 1.0
C      1  0.5653350000000  0.5144420000000  0.5423700000000 1.0
C      1  0.4336010000000  0.4865280000000  0.5208310000000 1.0
C      1  0.5144320000000  0.5170210000000  0.4558240000000 1.0
C      1  0.4958690000000  0.4925190000000  0.5911940000000 1.0
C      1  0.4578680000000  0.5748890000000  0.5194240000000 1.0
C      1  0.5220070000000  0.4219120000000  0.4941730000000 1.0
C      1  0.5581630000000  0.5389370000000  0.4731240000000 1.0
C      1  0.5059850000000  0.4270380000000  0.5181450000000 1.0
C      1  0.4085390000000  0.5069920000000  0.4870320000000 1.0
C      1  0.5744780000000  0.4593060000000  0.4570800000000 1.0
C      1  0.5444660000000  0.4395620000000  0.4885840000000 1.0
C      1  0.4783880000000  0.4546120000000  0.4846450000000 1.0
C      1  0.4988870000000  0.5404690000000  0.4166660000000 1.0
C      1  0.4914050000000  0.5149540000000  0.5771720000000 1.0
C      1  0.5766850000000  0.5212290000000  0.4875260000000 1.0
C      1  0.5623800000000  0.4837830000000  0.4628800000000 1.0
C      1  0.4491980000000  0.4693060000000  0.4478710000000 1.0
C      1  0.5449330000000  0.5594860000000  0.4899000000000 1.0
C      1  0.4294500000000  0.5363140000000  0.5201030000000 1.0
C      1  0.4763270000000  0.4709870000000  0.4371080000000 1.0
C      1  0.4762750000000  0.5744450000000  0.4968230000000 1.0
C      1  0.4734280000000  0.5480750000000  0.4524150000000 1.0
C      1  0.5493800000000  0.5562040000000  0.5196990000000 1.0
C      1  0.5566650000000  0.4695080000000  0.5555620000000 1.0
C      1  0.4946450000000  0.4618500000000  0.4589930000000 1.0
C      1  0.5105050000000  0.4933150000000  0.4754430000000 1.0
C      1  0.5219700000000  0.5749390000000  0.4801580000000 1.0
C      1  0.4911020000000  0.5628260000000  0.4325820000000 1.0
C      1  0.4332180000000  0.5110030000000  0.4741480000000 1.0
C      1  0.4504930000000  0.4868190000000  0.4724860000000 1.0
C      1  0.4511990000000  0.5614330000000  0.4634250000000 1.0
C      1  0.5028170000000  0.4167380000000  0.4715810000000 1.0
C      1  0.5551810000000  0.4399550000000  0.4620860000000 1.0
C      1  0.5206350000000  0.5309720000000  0.5423420000000 1.0
C      1  0.5438100000000  0.5230710000000  0.4526960000000 1.0
C      1  0.4455460000000  0.4837560000000  0.5471400000000 1.0
C      1  0.4975210000000  0.4551500000000  0.5581040000000 1.0
C      1  0.5085980000000  0.4360380000000  0.4499200000000 1.0
C      1  0.4156050000000  0.5091100000000  0.5144290000000 1.0
C      1  0.5124870000000  0.5724440000000  0.4517320000000 1.0
C      1  0.4782540000000  0.5073000000000  0.5306040000000 1.0
C      1  0.5616290000000  0.4945030000000  0.4909180000000 1.0
C      1  0.5599390000000  0.4487980000000  0.5111610000000 1.0
C      1  0.4414880000000  0.4431610000000  0.4548920000000 1.0
C      1  0.5168770000000  0.4382950000000  0.5421350000000 1.0
C      1  0.5448750000000  0.4491460000000  0.5366790000000 1.0
C      1  0.4563320000000  0.4361430000000  0.5261470000000 1.0
C      1  0.5916620000000  0.5337890000000  0.5079360000000 1.0
C      1  0.4963520000000  0.5407590000000  0.4987110000000 1.0
C      1  0.5315760000000  0.4865090000000  0.5563550000000 1.0
C      1  0.5026530000000  0.5148010000000  0.4282580000000 1.0
C      1  0.5758210000000  0.4861060000000  0.5391750000000 1.0
END
