TITL C-3578194-7807-208 -2.19562049771505e-06 125000 -1224.00784417993 0 0 196 (C1) n - 1
REM
REM in /home/bkarasulu/work/CARBON/AIRSS/Generating-Clusters/EDIP-Nigel-Params/with-SteepDescent/Higher-Symm/SD-CG/HFTN-CG
REM
REM
REM
REM
REM
REM ./C.cell (12c818d87b63d06a65506943cc24bca4)
REM
REM compiler GCC version 9.2.1 20190827 (Red Hat 9.2.1-1)
REM options -cpp -mtune=generic -march=x86-64 -g -O0 -fpre-include=/usr/include/finclude/math-vector-fortran.h
REM seed -28086661 -1240354991 592074712 228389438 -165749665 714168469 -693459298 1828003687 779577037 1131099652 496301291 -769709799 -934662735 -832341674 1384504710 -938844491 -1608610291 957435121 -513842112 1435019603 902137957 1664968224 1789575074 -1333244168 -540617035 -1824496736 1114216447 -734030717 986505939 357157583 -658933780 -1242754844 -487559266
REM
CELL 1.54180   50.00000   50.00000   50.00000   90.00000   90.00000   90.00000
LATT -1
SFAC C  
C      1  0.4268010000000  0.5478630000000  0.5910890000000 1.0
C      1  0.5731500000000  0.4521170000000  0.5904510000000 1.0
C      1  0.5733230000000  0.5474350000000  0.4088570000000 1.0
C      1  0.4269820000000  0.4523970000000  0.4089860000000 1.0
C      1  0.4829610000000  0.5366300000000  0.6201720000000 1.0
C      1  0.5170440000000  0.4634280000000  0.6201380000000 1.0
C      1  0.5172450000000  0.5363220000000  0.3801200000000 1.0
C      1  0.4830240000000  0.4635040000000  0.3801860000000 1.0
C      1  0.5267170000000  0.5548590000000  0.5104330000000 1.0
C      1  0.4727800000000  0.4451520000000  0.5104460000000 1.0
C      1  0.4737740000000  0.5550030000000  0.4900880000000 1.0
C      1  0.5255780000000  0.4443900000000  0.4912840000000 1.0
C      1  0.4962350000000  0.5683340000000  0.4764880000000 1.0
C      1  0.5037660000000  0.4312980000000  0.4764620000000 1.0
C      1  0.5041820000000  0.5671460000000  0.5245570000000 1.0
C      1  0.4951090000000  0.4330560000000  0.5249550000000 1.0
C      1  0.4033760000000  0.5421540000000  0.5231400000000 1.0
C      1  0.5960320000000  0.4585550000000  0.5219730000000 1.0
C      1  0.5969610000000  0.5419970000000  0.4767450000000 1.0
C      1  0.4033830000000  0.4583270000000  0.4772010000000 1.0
C      1  0.3907180000000  0.5169260000000  0.5321340000000 1.0
C      1  0.6087880000000  0.4837130000000  0.5317800000000 1.0
C      1  0.6092560000000  0.5164910000000  0.4678480000000 1.0
C      1  0.3909840000000  0.4838300000000  0.4676790000000 1.0
C      1  0.5321240000000  0.4115300000000  0.4427720000000 1.0
C      1  0.4682570000000  0.5879520000000  0.4433020000000 1.0
C      1  0.4675550000000  0.4122240000000  0.5567370000000 1.0
C      1  0.5320750000000  0.5876460000000  0.5562450000000 1.0
C      1  0.4348540000000  0.4688880000000  0.3877020000000 1.0
C      1  0.5654780000000  0.5309580000000  0.3875440000000 1.0
C      1  0.5654170000000  0.4681570000000  0.6121260000000 1.0
C      1  0.4346320000000  0.5316080000000  0.6125690000000 1.0
C      1  0.5059100000000  0.5641660000000  0.4253170000000 1.0
C      1  0.4944960000000  0.4356270000000  0.4253120000000 1.0
C      1  0.4941980000000  0.5647720000000  0.5753160000000 1.0
C      1  0.5055620000000  0.4351040000000  0.5755900000000 1.0
C      1  0.5193770000000  0.4746640000000  0.4413950000000 1.0
C      1  0.4812680000000  0.5250660000000  0.4415960000000 1.0
C      1  0.4805710000000  0.4751540000000  0.5592280000000 1.0
C      1  0.5191000000000  0.5248160000000  0.5591060000000 1.0
C      1  0.4127020000000  0.5373650000000  0.4540070000000 1.0
C      1  0.5898550000000  0.4608670000000  0.4518340000000 1.0
C      1  0.5878080000000  0.5375120000000  0.5460630000000 1.0
C      1  0.4119090000000  0.4621820000000  0.5463350000000 1.0
C      1  0.5788600000000  0.5822780000000  0.4542940000000 1.0
C      1  0.4211760000000  0.4176880000000  0.4544560000000 1.0
C      1  0.4207950000000  0.5822530000000  0.5457020000000 1.0
C      1  0.5787970000000  0.4181950000000  0.5444860000000 1.0
C      1  0.5300710000000  0.4774510000000  0.5774440000000 1.0
C      1  0.4697340000000  0.5224980000000  0.5775140000000 1.0
C      1  0.4699780000000  0.4777290000000  0.4229590000000 1.0
C      1  0.5304520000000  0.5220620000000  0.4228020000000 1.0
C      1  0.5351210000000  0.4043370000000  0.5479590000000 1.0
C      1  0.4647970000000  0.5955050000000  0.5483140000000 1.0
C      1  0.4655810000000  0.4050310000000  0.4512470000000 1.0
C      1  0.5344660000000  0.5947550000000  0.4510660000000 1.0
C      1  0.5321630000000  0.5520890000000  0.4313490000000 1.0
C      1  0.4681830000000  0.4476810000000  0.4314330000000 1.0
C      1  0.4679920000000  0.5526520000000  0.5689470000000 1.0
C      1  0.5317260000000  0.4472430000000  0.5689890000000 1.0
C      1  0.4631000000000  0.5488360000000  0.4164320000000 1.0
C      1  0.5374930000000  0.4510110000000  0.4160490000000 1.0
C      1  0.5373610000000  0.5488850000000  0.5839260000000 1.0
C      1  0.4623490000000  0.4512150000000  0.5842240000000 1.0
C      1  0.4558960000000  0.5047530000000  0.5293560000000 1.0
C      1  0.5440890000000  0.4954090000000  0.5296600000000 1.0
C      1  0.5435600000000  0.5043420000000  0.4712970000000 1.0
C      1  0.4560430000000  0.4955470000000  0.4710220000000 1.0
C      1  0.4319330000000  0.5900290000000  0.5186910000000 1.0
C      1  0.5675860000000  0.4100390000000  0.5176200000000 1.0
C      1  0.5666080000000  0.5891020000000  0.4811550000000 1.0
C      1  0.4334150000000  0.4107900000000  0.4812920000000 1.0
C      1  0.4417270000000  0.4092990000000  0.4342220000000 1.0
C      1  0.5583370000000  0.5905490000000  0.4340740000000 1.0
C      1  0.5588710000000  0.4090470000000  0.5650340000000 1.0
C      1  0.4412740000000  0.5910010000000  0.5657740000000 1.0
C      1  0.5564520000000  0.5335530000000  0.5986720000000 1.0
C      1  0.4432920000000  0.4666660000000  0.5988800000000 1.0
C      1  0.4440980000000  0.5335370000000  0.4015390000000 1.0
C      1  0.5564440000000  0.4663470000000  0.4011160000000 1.0
C      1  0.5634550000000  0.4865610000000  0.4195600000000 1.0
C      1  0.4371940000000  0.5132180000000  0.4198640000000 1.0
C      1  0.4365700000000  0.4868840000000  0.5803410000000 1.0
C      1  0.5631710000000  0.5132100000000  0.5802860000000 1.0
C      1  0.5428130000000  0.4020240000000  0.4685210000000 1.0
C      1  0.4576480000000  0.5978190000000  0.4693580000000 1.0
C      1  0.4584320000000  0.4036300000000  0.5300770000000 1.0
C      1  0.5413430000000  0.5961950000000  0.5296200000000 1.0
C      1  0.5530920000000  0.4811730000000  0.4888470000000 1.0
C      1  0.4473280000000  0.5193050000000  0.4884980000000 1.0
C      1  0.4468480000000  0.4812650000000  0.5117890000000 1.0
C      1  0.5528260000000  0.5189990000000  0.5120190000000 1.0
C      1  0.4578720000000  0.5588250000000  0.5399440000000 1.0
C      1  0.5413490000000  0.4412440000000  0.5400010000000 1.0
C      1  0.5422760000000  0.5583250000000  0.4603180000000 1.0
C      1  0.4578480000000  0.4415100000000  0.4603510000000 1.0
C      1  0.5183120000000  0.4798740000000  0.5165660000000 1.0
C      1  0.4814470000000  0.5205930000000  0.5166390000000 1.0
C      1  0.4815180000000  0.4795110000000  0.4841500000000 1.0
C      1  0.5184110000000  0.5204770000000  0.4840740000000 1.0
C      1  0.4589240000000  0.5026680000000  0.4391840000000 1.0
C      1  0.5416760000000  0.4972340000000  0.4389450000000 1.0
C      1  0.5412700000000  0.5024350000000  0.5613470000000 1.0
C      1  0.4584630000000  0.4976390000000  0.5613650000000 1.0
C      1  0.4483830000000  0.5469200000000  0.4784680000000 1.0
C      1  0.5493660000000  0.4544600000000  0.4808110000000 1.0
C      1  0.5518070000000  0.5463970000000  0.5221540000000 1.0
C      1  0.4478190000000  0.4538920000000  0.5220830000000 1.0
C      1  0.4033430000000  0.5116510000000  0.5581620000000 1.0
C      1  0.5964040000000  0.4884370000000  0.5579740000000 1.0
C      1  0.5969020000000  0.5113030000000  0.4417240000000 1.0
C      1  0.4034350000000  0.4885830000000  0.4415160000000 1.0
C      1  0.5524480000000  0.4314940000000  0.5849820000000 1.0
C      1  0.4476400000000  0.5683560000000  0.5854620000000 1.0
C      1  0.4479440000000  0.4320570000000  0.4146310000000 1.0
C      1  0.5523050000000  0.5677430000000  0.4144970000000 1.0
C      1  0.4783040000000  0.4492580000000  0.4820460000000 1.0
C      1  0.5216350000000  0.5505360000000  0.4820510000000 1.0
C      1  0.5204980000000  0.4496310000000  0.5191460000000 1.0
C      1  0.4785430000000  0.5506140000000  0.5184740000000 1.0
C      1  0.6013280000000  0.5312670000000  0.5197950000000 1.0
C      1  0.3981580000000  0.4679750000000  0.5203000000000 1.0
C      1  0.3989830000000  0.5311960000000  0.4801810000000 1.0
C      1  0.6028580000000  0.4670050000000  0.4784650000000 1.0
C      1  0.4992790000000  0.4848120000000  0.4199000000000 1.0
C      1  0.5011760000000  0.5149430000000  0.4199050000000 1.0
C      1  0.5007700000000  0.4848800000000  0.5806880000000 1.0
C      1  0.4990330000000  0.5150830000000  0.5806490000000 1.0
C      1  0.5115960000000  0.4824120000000  0.4734330000000 1.0
C      1  0.4888930000000  0.5169420000000  0.4735190000000 1.0
C      1  0.4882740000000  0.4828280000000  0.5273330000000 1.0
C      1  0.5112440000000  0.5171240000000  0.5272460000000 1.0
C      1  0.6203210000000  0.5052870000000  0.5149120000000 1.0
C      1  0.3791160000000  0.4967370000000  0.5138900000000 1.0
C      1  0.3798430000000  0.5055430000000  0.4847610000000 1.0
C      1  0.6214690000000  0.4966670000000  0.4858870000000 1.0
C      1  0.5058980000000  0.5271630000000  0.6068710000000 1.0
C      1  0.4940020000000  0.4728810000000  0.6069730000000 1.0
C      1  0.4943970000000  0.5268940000000  0.3935480000000 1.0
C      1  0.5059230000000  0.4729110000000  0.3935050000000 1.0
C      1  0.4212350000000  0.5345480000000  0.5656770000000 1.0
C      1  0.5784270000000  0.4655760000000  0.5650460000000 1.0
C      1  0.5791580000000  0.5342670000000  0.4342500000000 1.0
C      1  0.4212020000000  0.4655800000000  0.4343660000000 1.0
C      1  0.4298890000000  0.5853840000000  0.4705380000000 1.0
C      1  0.5697050000000  0.4156330000000  0.4694520000000 1.0
C      1  0.5692500000000  0.5854510000000  0.5291260000000 1.0
C      1  0.4307240000000  0.4145500000000  0.5293440000000 1.0
C      1  0.5103310000000  0.4440460000000  0.4008050000000 1.0
C      1  0.4900570000000  0.5557970000000  0.4008480000000 1.0
C      1  0.4895440000000  0.4439630000000  0.5998740000000 1.0
C      1  0.5102560000000  0.5560850000000  0.5996200000000 1.0
C      1  0.5748200000000  0.4481320000000  0.5412330000000 1.0
C      1  0.4246000000000  0.5523850000000  0.5421600000000 1.0
C      1  0.4242890000000  0.4478340000000  0.4579450000000 1.0
C      1  0.5758960000000  0.5521610000000  0.4577020000000 1.0
C      1  0.3987540000000  0.4433530000000  0.5024980000000 1.0
C      1  0.6012380000000  0.5562630000000  0.5023970000000 1.0
C      1  0.6009030000000  0.4432810000000  0.4970190000000 1.0
C      1  0.3985110000000  0.5563260000000  0.4974980000000 1.0
C      1  0.4194140000000  0.4850690000000  0.5017040000000 1.0
C      1  0.5799430000000  0.5157340000000  0.5011310000000 1.0
C      1  0.5810520000000  0.4851680000000  0.4971050000000 1.0
C      1  0.4201770000000  0.5156970000000  0.4989910000000 1.0
C      1  0.4286140000000  0.5640800000000  0.4495530000000 1.0
C      1  0.5727460000000  0.4356620000000  0.4481210000000 1.0
C      1  0.5718440000000  0.5644010000000  0.5503700000000 1.0
C      1  0.4281620000000  0.4356460000000  0.5504380000000 1.0
C      1  0.4242520000000  0.5719890000000  0.4959500000000 1.0
C      1  0.5748190000000  0.4285430000000  0.4950940000000 1.0
C      1  0.5753030000000  0.5716740000000  0.5040850000000 1.0
C      1  0.4246840000000  0.4281330000000  0.5042370000000 1.0
C      1  0.5194390000000  0.4010240000000  0.4953280000000 1.0
C      1  0.4795040000000  0.5982340000000  0.4954260000000 1.0
C      1  0.4837260000000  0.4033470000000  0.5026660000000 1.0
C      1  0.5160610000000  0.5966100000000  0.5023290000000 1.0
C      1  0.5517050000000  0.5717230000000  0.5712640000000 1.0
C      1  0.4479030000000  0.4283220000000  0.5716620000000 1.0
C      1  0.4487870000000  0.5716850000000  0.4287170000000 1.0
C      1  0.5518260000000  0.4281210000000  0.4285220000000 1.0
C      1  0.5390250000000  0.5234760000000  0.3937040000000 1.0
C      1  0.4613090000000  0.4763450000000  0.3938670000000 1.0
C      1  0.4610520000000  0.5239890000000  0.6065470000000 1.0
C      1  0.5389830000000  0.4758970000000  0.6063710000000 1.0
C      1  0.4887060000000  0.5681880000000  0.4478290000000 1.0
C      1  0.5118640000000  0.4315920000000  0.4477020000000 1.0
C      1  0.5115660000000  0.5678560000000  0.5528980000000 1.0
C      1  0.4880080000000  0.4320730000000  0.5532800000000 1.0
C      1  0.5379710000000  0.5975400000000  0.4794350000000 1.0
C      1  0.4620140000000  0.4023420000000  0.4796260000000 1.0
C      1  0.4602920000000  0.5979670000000  0.5200600000000 1.0
C      1  0.5392040000000  0.4022930000000  0.5196280000000 1.0
C      1  0.4115000000000  0.4841680000000  0.5659740000000 1.0
C      1  0.5882910000000  0.5158420000000  0.5659760000000 1.0
C      1  0.5889770000000  0.4839010000000  0.4332400000000 1.0
C      1  0.4119300000000  0.5159650000000  0.4338680000000 1.0
END
