TITL C-3578202-4305-291 -3.42334507859042e-06 125000 -961.797260042877 0 0 154 (C1) n - 1
REM
REM in /home/bkarasulu/work/CARBON/AIRSS/Generating-Clusters/EDIP-Nigel-Params/with-SteepDescent/Higher-Symm/SD-CG/HFTN-CG
REM
REM
REM
REM
REM
REM ./C.cell (12c818d87b63d06a65506943cc24bca4)
REM
REM compiler GCC version 9.2.1 20190827 (Red Hat 9.2.1-1)
REM options -cpp -mtune=generic -march=x86-64 -g -O0 -fpre-include=/usr/include/finclude/math-vector-fortran.h
REM seed -1191414857 1550618205 1740115777 529661414 575997869 422852834 -1898473864 -1584207238 1394705835 -2060817210 -2012647242 -680563536 -1264911173 -1002789058 1567769050 -1609547722 -1077983346 -1740885660 -813498717 1122980700 240139396 -1856308218 376079839 1417490739 -1144741474 -232293276 858793979 -144026590 -210156528 -776702701 -738292914 -427449802 -1530559945
REM
CELL 1.54180   50.00000   50.00000   50.00000   90.00000   90.00000   90.00000
LATT -1
SFAC C  
C      1  0.5190580000000  0.4117710000000  0.5623720000000 1.0
C      1  0.5573000000000  0.4123490000000  0.4791390000000 1.0
C      1  0.4731440000000  0.4134580000000  0.4385740000000 1.0
C      1  0.4373810000000  0.4130030000000  0.5226150000000 1.0
C      1  0.5203360000000  0.5869070000000  0.4401530000000 1.0
C      1  0.5601650000000  0.5878760000000  0.5224840000000 1.0
C      1  0.4791890000000  0.5919330000000  0.5655230000000 1.0
C      1  0.4372360000000  0.5977470000000  0.4795990000000 1.0
C      1  0.4324570000000  0.4757430000000  0.4973540000000 1.0
C      1  0.5077640000000  0.4939430000000  0.5756670000000 1.0
C      1  0.5623150000000  0.4992430000000  0.4895870000000 1.0
C      1  0.5066430000000  0.4990930000000  0.4165990000000 1.0
C      1  0.4266670000000  0.5061020000000  0.4938750000000 1.0
C      1  0.5243500000000  0.5243160000000  0.4227990000000 1.0
C      1  0.5650830000000  0.5243270000000  0.5101900000000 1.0
C      1  0.4892940000000  0.5176750000000  0.5662750000000 1.0
C      1  0.5455630000000  0.4735180000000  0.5937370000000 1.0
C      1  0.5855160000000  0.4707480000000  0.4648580000000 1.0
C      1  0.4585860000000  0.4661950000000  0.4111730000000 1.0
C      1  0.4164840000000  0.4718840000000  0.5406760000000 1.0
C      1  0.5493540000000  0.5211010000000  0.4050230000000 1.0
C      1  0.5843830000000  0.5283730000000  0.5439130000000 1.0
C      1  0.4582730000000  0.5232160000000  0.5894610000000 1.0
C      1  0.4117950000000  0.5127660000000  0.4668460000000 1.0
C      1  0.5281360000000  0.4183480000000  0.4456110000000 1.0
C      1  0.4371520000000  0.4154980000000  0.4680620000000 1.0
C      1  0.4655870000000  0.4121580000000  0.5592150000000 1.0
C      1  0.5557400000000  0.4127990000000  0.5323690000000 1.0
C      1  0.5331180000000  0.5905910000000  0.5611460000000 1.0
C      1  0.4418670000000  0.5941690000000  0.5359440000000 1.0
C      1  0.4664110000000  0.5848860000000  0.4473130000000 1.0
C      1  0.5569630000000  0.5872140000000  0.4683520000000 1.0
C      1  0.4638620000000  0.4168680000000  0.4831540000000 1.0
C      1  0.4804800000000  0.4096810000000  0.5340490000000 1.0
C      1  0.5290710000000  0.4167870000000  0.5173970000000 1.0
C      1  0.5117320000000  0.4180240000000  0.4705220000000 1.0
C      1  0.4682230000000  0.5926240000000  0.5203070000000 1.0
C      1  0.4826240000000  0.5866140000000  0.4728460000000 1.0
C      1  0.5311490000000  0.5826040000000  0.4836840000000 1.0
C      1  0.5155090000000  0.5887350000000  0.5360530000000 1.0
C      1  0.4568920000000  0.5546010000000  0.5496960000000 1.0
C      1  0.5416320000000  0.5530460000000  0.5412230000000 1.0
C      1  0.5572100000000  0.5513580000000  0.4404280000000 1.0
C      1  0.4367880000000  0.5514190000000  0.4673380000000 1.0
C      1  0.4710750000000  0.4592850000000  0.4557070000000 1.0
C      1  0.5452790000000  0.4527690000000  0.4664060000000 1.0
C      1  0.5433920000000  0.4488090000000  0.5553160000000 1.0
C      1  0.4608470000000  0.4483310000000  0.5338450000000 1.0
C      1  0.5105050000000  0.5969000000000  0.4669810000000 1.0
C      1  0.4652070000000  0.6027100000000  0.4918400000000 1.0
C      1  0.4894890000000  0.6043850000000  0.5391380000000 1.0
C      1  0.5337080000000  0.5940940000000  0.5115140000000 1.0
C      1  0.5088850000000  0.4031820000000  0.5356300000000 1.0
C      1  0.4628270000000  0.4043600000000  0.5110660000000 1.0
C      1  0.4844860000000  0.4045730000000  0.4652060000000 1.0
C      1  0.5306110000000  0.4045460000000  0.4900680000000 1.0
C      1  0.5347330000000  0.5037460000000  0.4727950000000 1.0
C      1  0.4618130000000  0.5423900000000  0.4815880000000 1.0
C      1  0.4670440000000  0.5122320000000  0.5230110000000 1.0
C      1  0.5199990000000  0.5132440000000  0.5192010000000 1.0
C      1  0.5352500000000  0.4864040000000  0.5279020000000 1.0
C      1  0.4765160000000  0.4871680000000  0.5107750000000 1.0
C      1  0.4769300000000  0.4897140000000  0.4585660000000 1.0
C      1  0.5227060000000  0.4754770000000  0.4631110000000 1.0
C      1  0.5805170000000  0.5744170000000  0.4778160000000 1.0
C      1  0.4747740000000  0.5689490000000  0.4256230000000 1.0
C      1  0.4196770000000  0.5802550000000  0.5245240000000 1.0
C      1  0.5236150000000  0.5741100000000  0.5829040000000 1.0
C      1  0.5781160000000  0.4279770000000  0.5229570000000 1.0
C      1  0.4767820000000  0.4281640000000  0.5806740000000 1.0
C      1  0.4137840000000  0.4274820000000  0.4803070000000 1.0
C      1  0.5182740000000  0.4277800000000  0.4211630000000 1.0
C      1  0.4081770000000  0.5151410000000  0.5154950000000 1.0
C      1  0.5204240000000  0.5118920000000  0.6023980000000 1.0
C      1  0.5971280000000  0.5135380000000  0.4818410000000 1.0
C      1  0.4812800000000  0.5099060000000  0.4043040000000 1.0
C      1  0.3869060000000  0.4713580000000  0.4695740000000 1.0
C      1  0.5212320000000  0.4836290000000  0.3954940000000 1.0
C      1  0.6016510000000  0.4833500000000  0.5269820000000 1.0
C      1  0.4707780000000  0.4774450000000  0.6087760000000 1.0
C      1  0.4820660000000  0.5386390000000  0.4026020000000 1.0
C      1  0.4095600000000  0.5442000000000  0.5145010000000 1.0
C      1  0.5173050000000  0.5403720000000  0.6012430000000 1.0
C      1  0.6004620000000  0.5416770000000  0.4829800000000 1.0
C      1  0.4867890000000  0.4552250000000  0.6058180000000 1.0
C      1  0.3891040000000  0.4551660000000  0.4915180000000 1.0
C      1  0.5126330000000  0.4565320000000  0.3957500000000 1.0
C      1  0.6005860000000  0.4587900000000  0.5151310000000 1.0
C      1  0.5093440000000  0.5464400000000  0.4106190000000 1.0
C      1  0.4134040000000  0.5561040000000  0.4877980000000 1.0
C      1  0.4919920000000  0.5429220000000  0.5871210000000 1.0
C      1  0.5904230000000  0.5463910000000  0.5105080000000 1.0
C      1  0.5109260000000  0.4584180000000  0.5889280000000 1.0
C      1  0.4120130000000  0.4601520000000  0.5116750000000 1.0
C      1  0.4854930000000  0.4543150000000  0.4078250000000 1.0
C      1  0.5879650000000  0.4548590000000  0.4892760000000 1.0
C      1  0.5214220000000  0.5513710000000  0.4848900000000 1.0
C      1  0.4861100000000  0.5589210000000  0.4875950000000 1.0
C      1  0.4775890000000  0.5627040000000  0.5178570000000 1.0
C      1  0.5038810000000  0.5579860000000  0.5333150000000 1.0
C      1  0.5198250000000  0.4475800000000  0.5128810000000 1.0
C      1  0.4951680000000  0.4509280000000  0.5396640000000 1.0
C      1  0.4739370000000  0.4467170000000  0.4837110000000 1.0
C      1  0.5061290000000  0.4469230000000  0.4840340000000 1.0
C      1  0.4518740000000  0.5227540000000  0.4999530000000 1.0
C      1  0.4939180000000  0.5252720000000  0.5356460000000 1.0
C      1  0.5380550000000  0.5374380000000  0.5139750000000 1.0
C      1  0.5296100000000  0.5315320000000  0.4577100000000 1.0
C      1  0.4594970000000  0.4641050000000  0.5060560000000 1.0
C      1  0.5010360000000  0.4794850000000  0.4408120000000 1.0
C      1  0.5471540000000  0.4684650000000  0.4994900000000 1.0
C      1  0.5148750000000  0.4743210000000  0.5481230000000 1.0
C      1  0.5019090000000  0.4365100000000  0.5677600000000 1.0
C      1  0.5712740000000  0.4322020000000  0.4955370000000 1.0
C      1  0.4908110000000  0.4329140000000  0.4260970000000 1.0
C      1  0.4240450000000  0.4330790000000  0.5066520000000 1.0
C      1  0.5028120000000  0.5660160000000  0.4302100000000 1.0
C      1  0.5808920000000  0.5740340000000  0.5065000000000 1.0
C      1  0.4965880000000  0.5694750000000  0.5749290000000 1.0
C      1  0.4157240000000  0.5840980000000  0.4962200000000 1.0
C      1  0.5701130000000  0.5313550000000  0.4237940000000 1.0
C      1  0.4302760000000  0.5275690000000  0.4489720000000 1.0
C      1  0.4473540000000  0.5319270000000  0.5636060000000 1.0
C      1  0.5598320000000  0.5367720000000  0.5589670000000 1.0
C      1  0.5585370000000  0.4675630000000  0.5689300000000 1.0
C      1  0.4430000000000  0.4636830000000  0.5535930000000 1.0
C      1  0.4472190000000  0.4545770000000  0.4369870000000 1.0
C      1  0.5660740000000  0.4612650000000  0.4452050000000 1.0
C      1  0.4311300000000  0.4775540000000  0.4482380000000 1.0
C      1  0.4574230000000  0.4869880000000  0.5637190000000 1.0
C      1  0.5579160000000  0.4907690000000  0.5502350000000 1.0
C      1  0.5589920000000  0.4847300000000  0.4287470000000 1.0
C      1  0.4466420000000  0.5083980000000  0.5466870000000 1.0
C      1  0.4485030000000  0.5016250000000  0.4421460000000 1.0
C      1  0.5749460000000  0.5062900000000  0.4382680000000 1.0
C      1  0.5467740000000  0.5120580000000  0.5667300000000 1.0
C      1  0.4520860000000  0.5809290000000  0.5601510000000 1.0
C      1  0.5596040000000  0.5852740000000  0.5511130000000 1.0
C      1  0.5498620000000  0.5796890000000  0.4412470000000 1.0
C      1  0.4396380000000  0.5798410000000  0.4555150000000 1.0
C      1  0.4446490000000  0.4234620000000  0.4406680000000 1.0
C      1  0.5555380000000  0.4187050000000  0.4512710000000 1.0
C      1  0.5467390000000  0.4208910000000  0.5588800000000 1.0
C      1  0.4402340000000  0.4199310000000  0.5500020000000 1.0
C      1  0.5934030000000  0.4979950000000  0.4589320000000 1.0
C      1  0.4562060000000  0.4965650000000  0.4124510000000 1.0
C      1  0.4174160000000  0.5018890000000  0.5403890000000 1.0
C      1  0.5462110000000  0.5023630000000  0.5943780000000 1.0
C      1  0.5844200000000  0.4994430000000  0.5412110000000 1.0
C      1  0.4564030000000  0.4937570000000  0.5916620000000 1.0
C      1  0.4042110000000  0.4869140000000  0.4544210000000 1.0
C      1  0.5493200000000  0.4907490000000  0.4013930000000 1.0
C      1  0.4896170000000  0.4934570000000  0.4863630000000 1.0
C      1  0.5129480000000  0.5082820000000  0.4914480000000 1.0
END
