TITL C-3578203-1966-36 9.57314142896691e-07 125000 -799.549734900079 0 0 128 (C1) n - 1
REM
REM in /home/bkarasulu/work/CARBON/AIRSS/Generating-Clusters/EDIP-Nigel-Params/with-SteepDescent/Higher-Symm/SD-CG/HFTN-CG
REM
REM
REM
REM
REM
REM ./C.cell (12c818d87b63d06a65506943cc24bca4)
REM
REM compiler GCC version 9.2.1 20190827 (Red Hat 9.2.1-1)
REM options -cpp -mtune=generic -march=x86-64 -g -O0 -fpre-include=/usr/include/finclude/math-vector-fortran.h
REM seed 1206697768 -479581584 -1889386450 -696531267 1429222321 -1383593973 1190228174 -1483275707 -1957169916 511974501 -612517238 264362972 -252770479 795178097 -1421600251 -1565221680 -894053801 1017791021 -866994108 2005056406 1612888650 1357927271 -2058748543 1301634322 1113715302 1084715354 -293575496 -610158295 1308597683 1944679818 8413906 -827402152 -1773075874
REM
CELL 1.54180   50.00000   50.00000   50.00000   90.00000   90.00000   90.00000
LATT -1
SFAC C  
C      1  0.4878840000000  0.4271690000000  0.5488690000000 1.0
C      1  0.4617080000000  0.4279330000000  0.4634910000000 1.0
C      1  0.5474570000000  0.4266560000000  0.4864060000000 1.0
C      1  0.4291930000000  0.4858000000000  0.4749840000000 1.0
C      1  0.5584670000000  0.4883700000000  0.4493060000000 1.0
C      1  0.5165560000000  0.4841380000000  0.5761430000000 1.0
C      1  0.4862060000000  0.3902100000000  0.4822580000000 1.0
C      1  0.5177640000000  0.3916230000000  0.5040710000000 1.0
C      1  0.4894950000000  0.3904940000000  0.5114410000000 1.0
C      1  0.4443350000000  0.4710210000000  0.5844530000000 1.0
C      1  0.4556890000000  0.4718020000000  0.4082640000000 1.0
C      1  0.6028010000000  0.4693210000000  0.5063840000000 1.0
C      1  0.5877250000000  0.4877380000000  0.5238630000000 1.0
C      1  0.4361850000000  0.4885440000000  0.5623260000000 1.0
C      1  0.4798600000000  0.4883870000000  0.4094570000000 1.0
C      1  0.5052990000000  0.4864890000000  0.4270640000000 1.0
C      1  0.5604060000000  0.4858050000000  0.5387250000000 1.0
C      1  0.4381510000000  0.4858880000000  0.5311330000000 1.0
C      1  0.5040140000000  0.5391540000000  0.5414820000000 1.0
C      1  0.4605040000000  0.5401880000000  0.4804490000000 1.0
C      1  0.5358380000000  0.5388280000000  0.4744330000000 1.0
C      1  0.4754750000000  0.5142790000000  0.4006010000000 1.0
C      1  0.5972030000000  0.5136690000000  0.5244570000000 1.0
C      1  0.4287180000000  0.5139370000000  0.5702420000000 1.0
C      1  0.4889390000000  0.4601400000000  0.6091520000000 1.0
C      1  0.4131750000000  0.4605920000000  0.4362440000000 1.0
C      1  0.5990540000000  0.4641470000000  0.4564180000000 1.0
C      1  0.5083660000000  0.5356890000000  0.4297090000000 1.0
C      1  0.5567070000000  0.5356990000000  0.5411900000000 1.0
C      1  0.4360110000000  0.5354240000000  0.5268630000000 1.0
C      1  0.4806980000000  0.4463810000000  0.4236030000000 1.0
C      1  0.5760840000000  0.4450680000000  0.5208160000000 1.0
C      1  0.4452320000000  0.4459450000000  0.5548060000000 1.0
C      1  0.4417400000000  0.4305870000000  0.4849780000000 1.0
C      1  0.5392260000000  0.4301030000000  0.4584270000000 1.0
C      1  0.5160830000000  0.4300300000000  0.5568680000000 1.0
C      1  0.4045990000000  0.5526480000000  0.4950690000000 1.0
C      1  0.5515330000000  0.5543530000000  0.4188280000000 1.0
C      1  0.5439590000000  0.5527720000000  0.5842140000000 1.0
C      1  0.4796270000000  0.4178950000000  0.5200010000000 1.0
C      1  0.4884800000000  0.4185330000000  0.4731960000000 1.0
C      1  0.5253400000000  0.4200120000000  0.5065540000000 1.0
C      1  0.4863500000000  0.5816070000000  0.5570830000000 1.0
C      1  0.4566730000000  0.5822630000000  0.4579010000000 1.0
C      1  0.5569730000000  0.5826340000000  0.4825410000000 1.0
C      1  0.5647530000000  0.4502640000000  0.4936460000000 1.0
C      1  0.4745470000000  0.4525550000000  0.5576880000000 1.0
C      1  0.4645020000000  0.4534730000000  0.4479130000000 1.0
C      1  0.5441540000000  0.5780420000000  0.5087070000000 1.0
C      1  0.4702040000000  0.5765740000000  0.5327660000000 1.0
C      1  0.4857020000000  0.5763760000000  0.4561020000000 1.0
C      1  0.5666850000000  0.5339400000000  0.4310160000000 1.0
C      1  0.5260530000000  0.5320900000000  0.5908230000000 1.0
C      1  0.4084360000000  0.5318580000000  0.4763440000000 1.0
C      1  0.4492760000000  0.4198360000000  0.5127580000000 1.0
C      1  0.5115470000000  0.4212900000000  0.4517250000000 1.0
C      1  0.5355330000000  0.4215450000000  0.5359530000000 1.0
C      1  0.5367490000000  0.4849970000000  0.5181140000000 1.0
C      1  0.4684370000000  0.4846910000000  0.5197310000000 1.0
C      1  0.5021070000000  0.4885730000000  0.4662850000000 1.0
C      1  0.5221950000000  0.5106220000000  0.4224470000000 1.0
C      1  0.5556250000000  0.5100160000000  0.5559750000000 1.0
C      1  0.4242210000000  0.5096140000000  0.5190380000000 1.0
C      1  0.4516700000000  0.5091980000000  0.4632270000000 1.0
C      1  0.5579670000000  0.5101630000000  0.4744790000000 1.0
C      1  0.4935100000000  0.5108660000000  0.5589880000000 1.0
C      1  0.5295100000000  0.5343810000000  0.5244390000000 1.0
C      1  0.4635660000000  0.5340220000000  0.5104110000000 1.0
C      1  0.5074690000000  0.5321520000000  0.4625520000000 1.0
C      1  0.4907550000000  0.5472770000000  0.5917060000000 1.0
C      1  0.4251370000000  0.5469660000000  0.4450570000000 1.0
C      1  0.5852210000000  0.5492440000000  0.4611460000000 1.0
C      1  0.5868770000000  0.4837240000000  0.4417080000000 1.0
C      1  0.5068110000000  0.4806280000000  0.6039570000000 1.0
C      1  0.4074970000000  0.4808280000000  0.4545550000000 1.0
C      1  0.5145990000000  0.4697700000000  0.5319080000000 1.0
C      1  0.4701170000000  0.4643320000000  0.4962540000000 1.0
C      1  0.5243000000000  0.4697120000000  0.4724700000000 1.0
C      1  0.4173830000000  0.5077480000000  0.4910880000000 1.0
C      1  0.5499040000000  0.5095510000000  0.4308920000000 1.0
C      1  0.5341160000000  0.5082140000000  0.5755110000000 1.0
C      1  0.5471890000000  0.4763740000000  0.4906720000000 1.0
C      1  0.4875810000000  0.4796350000000  0.5427180000000 1.0
C      1  0.4730400000000  0.4781610000000  0.4678020000000 1.0
C      1  0.4974620000000  0.5069840000000  0.6087210000000 1.0
C      1  0.4061360000000  0.5070090000000  0.4432960000000 1.0
C      1  0.5973760000000  0.5098190000000  0.4452000000000 1.0
C      1  0.5550080000000  0.5597130000000  0.5592420000000 1.0
C      1  0.4209350000000  0.5594950000000  0.5169590000000 1.0
C      1  0.5241980000000  0.5602420000000  0.4222590000000 1.0
C      1  0.5831750000000  0.5687750000000  0.4828450000000 1.0
C      1  0.4731680000000  0.5676720000000  0.5797650000000 1.0
C      1  0.4438820000000  0.5674280000000  0.4354180000000 1.0
C      1  0.5023970000000  0.5091780000000  0.4903130000000 1.0
C      1  0.5255460000000  0.5100960000000  0.5094670000000 1.0
C      1  0.4773060000000  0.5088290000000  0.5069910000000 1.0
C      1  0.4323650000000  0.4365720000000  0.5313990000000 1.0
C      1  0.5067700000000  0.4367180000000  0.4263280000000 1.0
C      1  0.5611260000000  0.4361400000000  0.5427830000000 1.0
C      1  0.4441620000000  0.5659340000000  0.4799670000000 1.0
C      1  0.5442800000000  0.5654380000000  0.4612240000000 1.0
C      1  0.5111900000000  0.5646550000000  0.5567850000000 1.0
C      1  0.5360310000000  0.5774620000000  0.5459910000000 1.0
C      1  0.4417420000000  0.5778560000000  0.5074440000000 1.0
C      1  0.5221450000000  0.5779180000000  0.4453010000000 1.0
C      1  0.4822450000000  0.5364580000000  0.4154260000000 1.0
C      1  0.5819920000000  0.5366280000000  0.5253860000000 1.0
C      1  0.4372910000000  0.5363010000000  0.5566490000000 1.0
C      1  0.4319190000000  0.5193650000000  0.4414250000000 1.0
C      1  0.5859900000000  0.5216430000000  0.4685460000000 1.0
C      1  0.4841110000000  0.5197220000000  0.5870380000000 1.0
C      1  0.4393470000000  0.4598010000000  0.4920650000000 1.0
C      1  0.5394880000000  0.4596730000000  0.4491230000000 1.0
C      1  0.5253720000000  0.4599460000000  0.5581820000000 1.0
C      1  0.4638040000000  0.5567100000000  0.4189320000000 1.0
C      1  0.5876290000000  0.5573790000000  0.5080440000000 1.0
C      1  0.4489260000000  0.5569870000000  0.5707460000000 1.0
C      1  0.4713690000000  0.4593530000000  0.5875470000000 1.0
C      1  0.4407240000000  0.4627540000000  0.4316680000000 1.0
C      1  0.5935810000000  0.4548780000000  0.4817700000000 1.0
C      1  0.5222600000000  0.4615930000000  0.4252520000000 1.0
C      1  0.5551360000000  0.4613370000000  0.5563430000000 1.0
C      1  0.4256630000000  0.4617090000000  0.5182760000000 1.0
C      1  0.5281860000000  0.5541230000000  0.5018440000000 1.0
C      1  0.4839270000000  0.5530200000000  0.5214770000000 1.0
C      1  0.4883260000000  0.5528140000000  0.4736530000000 1.0
C      1  0.4938970000000  0.4357790000000  0.4992090000000 1.0
C      1  0.5000560000000  0.5618650000000  0.4989160000000 1.0
END
