TITL C-3577080-309-480 1.22498685681347e-06 125000 -895.420365227957 0 0 143 (C1) n - 1
REM
REM in /home/bkarasulu/work/CARBON/AIRSS/Generating-Clusters/EDIP-Nigel-Params/with-SteepDescent/Higher-Symm/SD-CG/HFTN-CG
REM
REM
REM
REM
REM
REM ./C.cell (12c818d87b63d06a65506943cc24bca4)
REM
REM compiler GCC version 9.2.1 20190827 (Red Hat 9.2.1-1)
REM options -cpp -mtune=generic -march=x86-64 -g -O0 -fpre-include=/usr/include/finclude/math-vector-fortran.h
REM seed -1807952697 880356094 -271208284 1111172221 -1454913327 -88291535 -1042259773 -1566706110 127528408 110280057 238436996 325613565 604296061 -57337359 -1594927223 -1630873588 155173604 1669239268 1694449272 -1300612385 -653965088 -1846153520 -1709511648 1797377334 -27064294 1711098708 493574812 -1679901334 623763188 882343979 -899981295 2090198038 1733449520
REM
CELL 1.54180   50.00000   50.00000   50.00000   90.00000   90.00000   90.00000
LATT -1
SFAC C  
C      1  0.4848760000000  0.5250460000000  0.6101750000000 1.0
C      1  0.5142350000000  0.4775930000000  0.3851140000000 1.0
C      1  0.4423960000000  0.5541030000000  0.5568820000000 1.0
C      1  0.5618260000000  0.4478550000000  0.4391350000000 1.0
C      1  0.4850010000000  0.4166550000000  0.5423310000000 1.0
C      1  0.5078810000000  0.5767440000000  0.4746390000000 1.0
C      1  0.4678860000000  0.5860820000000  0.5310940000000 1.0
C      1  0.5354260000000  0.4195990000000  0.4708600000000 1.0
C      1  0.4897570000000  0.4457070000000  0.4191260000000 1.0
C      1  0.5136010000000  0.5560500000000  0.5801130000000 1.0
C      1  0.5396360000000  0.4893880000000  0.3847970000000 1.0
C      1  0.4584730000000  0.5162110000000  0.6099350000000 1.0
C      1  0.5147480000000  0.5029870000000  0.5606130000000 1.0
C      1  0.4846220000000  0.4971970000000  0.4444790000000 1.0
C      1  0.4415630000000  0.5796490000000  0.5408910000000 1.0
C      1  0.5618950000000  0.4232220000000  0.4578890000000 1.0
C      1  0.4726460000000  0.4472410000000  0.4993430000000 1.0
C      1  0.5307900000000  0.5555440000000  0.5109450000000 1.0
C      1  0.5571000000000  0.5346110000000  0.4071580000000 1.0
C      1  0.4382660000000  0.4714860000000  0.5931790000000 1.0
C      1  0.5750120000000  0.5150620000000  0.5099720000000 1.0
C      1  0.4282220000000  0.4831130000000  0.4846830000000 1.0
C      1  0.5067820000000  0.5367570000000  0.5993090000000 1.0
C      1  0.4947870000000  0.4652710000000  0.3995880000000 1.0
C      1  0.5834490000000  0.5135250000000  0.4450630000000 1.0
C      1  0.4133530000000  0.4903230000000  0.5510210000000 1.0
C      1  0.5083420000000  0.5994730000000  0.4953680000000 1.0
C      1  0.4886910000000  0.3938140000000  0.5220170000000 1.0
C      1  0.5540420000000  0.6039130000000  0.4823880000000 1.0
C      1  0.4410400000000  0.3984160000000  0.5214360000000 1.0
C      1  0.4984860000000  0.4780500000000  0.5577620000000 1.0
C      1  0.4974450000000  0.5219780000000  0.4515360000000 1.0
C      1  0.4339520000000  0.5603190000000  0.4927830000000 1.0
C      1  0.5687640000000  0.4426200000000  0.5046970000000 1.0
C      1  0.4692370000000  0.5181100000000  0.4024910000000 1.0
C      1  0.5319170000000  0.4787830000000  0.5981510000000 1.0
C      1  0.4082880000000  0.5188870000000  0.5005030000000 1.0
C      1  0.5881120000000  0.4901240000000  0.4994000000000 1.0
C      1  0.4866610000000  0.5660530000000  0.5724490000000 1.0
C      1  0.5157230000000  0.4352010000000  0.4277180000000 1.0
C      1  0.5515960000000  0.5763970000000  0.5157380000000 1.0
C      1  0.4511070000000  0.4254590000000  0.4888790000000 1.0
C      1  0.5733240000000  0.5680530000000  0.5337040000000 1.0
C      1  0.4327810000000  0.4316080000000  0.4664070000000 1.0
C      1  0.5383690000000  0.5667250000000  0.4364090000000 1.0
C      1  0.4515740000000  0.4365250000000  0.5641520000000 1.0
C      1  0.4175070000000  0.4649680000000  0.5059320000000 1.0
C      1  0.5803930000000  0.5364390000000  0.4896660000000 1.0
C      1  0.5166130000000  0.5235220000000  0.5387110000000 1.0
C      1  0.4903220000000  0.4738950000000  0.4608610000000 1.0
C      1  0.5166740000000  0.5819340000000  0.5439410000000 1.0
C      1  0.4871680000000  0.4235700000000  0.4627530000000 1.0
C      1  0.4197680000000  0.5414090000000  0.5395810000000 1.0
C      1  0.5836870000000  0.4613110000000  0.4574060000000 1.0
C      1  0.4882620000000  0.4557570000000  0.5937310000000 1.0
C      1  0.5084900000000  0.5444480000000  0.4017770000000 1.0
C      1  0.4764860000000  0.4491230000000  0.4468930000000 1.0
C      1  0.5310540000000  0.5491640000000  0.5546090000000 1.0
C      1  0.4613290000000  0.4612930000000  0.5792820000000 1.0
C      1  0.5324570000000  0.5418710000000  0.4199410000000 1.0
C      1  0.4485660000000  0.5461650000000  0.4406690000000 1.0
C      1  0.5465840000000  0.4631560000000  0.5536220000000 1.0
C      1  0.4506330000000  0.5060420000000  0.5205850000000 1.0
C      1  0.5467430000000  0.4914940000000  0.4724020000000 1.0
C      1  0.5245430000000  0.4464680000000  0.4827790000000 1.0
C      1  0.4822020000000  0.5318980000000  0.5030910000000 1.0
C      1  0.5810750000000  0.4373610000000  0.4772340000000 1.0
C      1  0.4220410000000  0.5664400000000  0.5199610000000 1.0
C      1  0.5621080000000  0.5628750000000  0.4539740000000 1.0
C      1  0.4301070000000  0.4409970000000  0.5452210000000 1.0
C      1  0.5260240000000  0.5178950000000  0.4384310000000 1.0
C      1  0.4694310000000  0.4844430000000  0.5601930000000 1.0
C      1  0.4240200000000  0.4928450000000  0.5803240000000 1.0
C      1  0.5735070000000  0.5130600000000  0.4159020000000 1.0
C      1  0.4902770000000  0.5399800000000  0.5309240000000 1.0
C      1  0.5228340000000  0.4686350000000  0.4628760000000 1.0
C      1  0.5161490000000  0.5841100000000  0.4463730000000 1.0
C      1  0.4644590000000  0.4115320000000  0.5625200000000 1.0
C      1  0.5683590000000  0.5339120000000  0.4619870000000 1.0
C      1  0.4280310000000  0.4688830000000  0.5344560000000 1.0
C      1  0.5183820000000  0.5061810000000  0.5082680000000 1.0
C      1  0.4781030000000  0.4778040000000  0.4896810000000 1.0
C      1  0.5428660000000  0.5184940000000  0.4624600000000 1.0
C      1  0.4559230000000  0.4807540000000  0.5336780000000 1.0
C      1  0.5695690000000  0.5812880000000  0.4759580000000 1.0
C      1  0.4248430000000  0.4213970000000  0.5237770000000 1.0
C      1  0.5835710000000  0.5647990000000  0.4971810000000 1.0
C      1  0.4151410000000  0.4362840000000  0.4992410000000 1.0
C      1  0.5337770000000  0.6132170000000  0.5000810000000 1.0
C      1  0.4636600000000  0.3879250000000  0.5079360000000 1.0
C      1  0.5319520000000  0.4877430000000  0.4228680000000 1.0
C      1  0.4672600000000  0.5149260000000  0.5720410000000 1.0
C      1  0.4962050000000  0.5206150000000  0.3927110000000 1.0
C      1  0.5039870000000  0.4766500000000  0.6055430000000 1.0
C      1  0.5632220000000  0.5471900000000  0.5505710000000 1.0
C      1  0.4430320000000  0.4516620000000  0.4486180000000 1.0
C      1  0.4172610000000  0.5366390000000  0.4793730000000 1.0
C      1  0.5835350000000  0.4670200000000  0.5183780000000 1.0
C      1  0.5225310000000  0.5511070000000  0.4838370000000 1.0
C      1  0.4803480000000  0.4442110000000  0.5281400000000 1.0
C      1  0.5707380000000  0.4998700000000  0.5590110000000 1.0
C      1  0.4318740000000  0.5002590000000  0.4394340000000 1.0
C      1  0.4780040000000  0.5715610000000  0.4655120000000 1.0
C      1  0.5297980000000  0.4231750000000  0.5331520000000 1.0
C      1  0.5333250000000  0.4587310000000  0.4367330000000 1.0
C      1  0.4711090000000  0.5433490000000  0.5574740000000 1.0
C      1  0.4650660000000  0.6000690000000  0.5049220000000 1.0
C      1  0.5373950000000  0.4009450000000  0.4954380000000 1.0
C      1  0.5443990000000  0.4918350000000  0.5017570000000 1.0
C      1  0.4536160000000  0.4985210000000  0.4916950000000 1.0
C      1  0.4267950000000  0.4763810000000  0.4554960000000 1.0
C      1  0.5746890000000  0.5215710000000  0.5403640000000 1.0
C      1  0.4865290000000  0.5610840000000  0.4119640000000 1.0
C      1  0.5100320000000  0.4449420000000  0.5745470000000 1.0
C      1  0.5542270000000  0.4149640000000  0.5159160000000 1.0
C      1  0.4549970000000  0.5820130000000  0.4834510000000 1.0
C      1  0.5302800000000  0.4525020000000  0.5313190000000 1.0
C      1  0.4713400000000  0.5428230000000  0.4595480000000 1.0
C      1  0.5130960000000  0.4150150000000  0.4497880000000 1.0
C      1  0.4881730000000  0.5900550000000  0.5534980000000 1.0
C      1  0.5419860000000  0.4591130000000  0.5048890000000 1.0
C      1  0.4593730000000  0.5313340000000  0.4853580000000 1.0
C      1  0.5385590000000  0.4996810000000  0.5775170000000 1.0
C      1  0.4650600000000  0.4972460000000  0.4229800000000 1.0
C      1  0.5774980000000  0.4879780000000  0.4688130000000 1.0
C      1  0.4218470000000  0.5142750000000  0.5268430000000 1.0
C      1  0.4913610000000  0.5824510000000  0.4309470000000 1.0
C      1  0.5107800000000  0.4196250000000  0.5568390000000 1.0
C      1  0.5587090000000  0.4886240000000  0.4075650000000 1.0
C      1  0.4402290000000  0.5171010000000  0.5865830000000 1.0
C      1  0.5735830000000  0.4730590000000  0.5472000000000 1.0
C      1  0.4276560000000  0.5273270000000  0.4512870000000 1.0
C      1  0.5127710000000  0.3920660000000  0.5067060000000 1.0
C      1  0.4862070000000  0.6163870000000  0.4967600000000 1.0
C      1  0.4606710000000  0.5452250000000  0.4126020000000 1.0
C      1  0.5371920000000  0.4555930000000  0.5806030000000 1.0
C      1  0.5380700000000  0.6021490000000  0.5283030000000 1.0
C      1  0.4643940000000  0.3991430000000  0.4808750000000 1.0
C      1  0.5021880000000  0.4646060000000  0.5315800000000 1.0
C      1  0.5059250000000  0.5260260000000  0.4857380000000 1.0
C      1  0.5056950000000  0.5643890000000  0.5223580000000 1.0
C      1  0.4965420000000  0.4358740000000  0.4875230000000 1.0
C      1  0.4991950000000  0.4843270000000  0.5099340000000 1.0
END
