TITL C-3577091-527-623 -2.10850392519095e-06 125000 -810.489763621296 0 0 130 (C1) n - 1
REM
REM in /home/bkarasulu/work/CARBON/AIRSS/Generating-Clusters/EDIP-Nigel-Params/with-SteepDescent/Higher-Symm/SD-CG/HFTN-CG
REM
REM
REM
REM
REM
REM ./C.cell (12c818d87b63d06a65506943cc24bca4)
REM
REM compiler GCC version 9.2.1 20190827 (Red Hat 9.2.1-1)
REM options -cpp -mtune=generic -march=x86-64 -g -O0 -fpre-include=/usr/include/finclude/math-vector-fortran.h
REM seed -1783810530 -1298850497 -295027807 -1364760643 102297515 -1127518445 -975683354 150194361 1978489777 -770381916 -2012035660 311967385 -512681582 -2070467314 -218208883 -57340667 -1822685447 229085650 851674340 941952016 183589836 -1346727187 -508681816 -1485803256 144535647 -521091684 1935461894 1787678001 -1556723336 -720529905 -1908250817 -2078006123 -556895084
REM
CELL 1.54180   50.00000   50.00000   50.00000   90.00000   90.00000   90.00000
LATT -1
SFAC C  
C      1  0.4333230000000  0.4646040000000  0.4680630000000 1.0
C      1  0.5713350000000  0.5342940000000  0.5340400000000 1.0
C      1  0.5346740000000  0.5804880000000  0.4589140000000 1.0
C      1  0.4635140000000  0.4157770000000  0.5478350000000 1.0
C      1  0.4784110000000  0.5690820000000  0.4918870000000 1.0
C      1  0.5229720000000  0.4340810000000  0.5119380000000 1.0
C      1  0.4230190000000  0.5227570000000  0.4303480000000 1.0
C      1  0.5764790000000  0.4716770000000  0.5668200000000 1.0
C      1  0.6133270000000  0.4954650000000  0.5088730000000 1.0
C      1  0.3901060000000  0.5032520000000  0.4920160000000 1.0
C      1  0.4539430000000  0.4973740000000  0.4751160000000 1.0
C      1  0.5476300000000  0.5054800000000  0.5232180000000 1.0
C      1  0.5362570000000  0.5204330000000  0.4404810000000 1.0
C      1  0.4584580000000  0.4924180000000  0.5743980000000 1.0
C      1  0.5137810000000  0.4679160000000  0.4126170000000 1.0
C      1  0.4869480000000  0.5330610000000  0.5870240000000 1.0
C      1  0.5087160000000  0.5112380000000  0.3944400000000 1.0
C      1  0.4912060000000  0.4863570000000  0.6035660000000 1.0
C      1  0.4389160000000  0.5680090000000  0.4520930000000 1.0
C      1  0.5604910000000  0.4286490000000  0.5429600000000 1.0
C      1  0.4228710000000  0.4781360000000  0.5436070000000 1.0
C      1  0.5853190000000  0.5274560000000  0.4480360000000 1.0
C      1  0.4524330000000  0.5230060000000  0.4913760000000 1.0
C      1  0.5489640000000  0.4796150000000  0.5068180000000 1.0
C      1  0.4050040000000  0.5152640000000  0.4494990000000 1.0
C      1  0.5961760000000  0.4795540000000  0.5495780000000 1.0
C      1  0.5169440000000  0.4599490000000  0.5711760000000 1.0
C      1  0.4783830000000  0.5408880000000  0.4177780000000 1.0
C      1  0.5568500000000  0.5696560000000  0.5037630000000 1.0
C      1  0.4475990000000  0.4289390000000  0.4995460000000 1.0
C      1  0.5233880000000  0.5219760000000  0.5883180000000 1.0
C      1  0.4813110000000  0.4739880000000  0.4126470000000 1.0
C      1  0.5322380000000  0.4226740000000  0.5387080000000 1.0
C      1  0.4667960000000  0.5750850000000  0.4550950000000 1.0
C      1  0.4028160000000  0.5218140000000  0.4760550000000 1.0
C      1  0.5983840000000  0.4767750000000  0.5224570000000 1.0
C      1  0.4861740000000  0.4194200000000  0.5693990000000 1.0
C      1  0.5081780000000  0.5758340000000  0.4303900000000 1.0
C      1  0.5836440000000  0.4597860000000  0.4802220000000 1.0
C      1  0.4179980000000  0.5434940000000  0.5158980000000 1.0
C      1  0.5557020000000  0.5634120000000  0.4465330000000 1.0
C      1  0.4417340000000  0.4331500000000  0.5578340000000 1.0
C      1  0.5735660000000  0.5380040000000  0.5646250000000 1.0
C      1  0.4303900000000  0.4579010000000  0.4383430000000 1.0
C      1  0.5784660000000  0.5554490000000  0.4897650000000 1.0
C      1  0.4240850000000  0.4413270000000  0.5109310000000 1.0
C      1  0.4883700000000  0.4448280000000  0.5390310000000 1.0
C      1  0.5062540000000  0.5650630000000  0.4597640000000 1.0
C      1  0.5915290000000  0.5396150000000  0.5114460000000 1.0
C      1  0.4122520000000  0.4586390000000  0.4894450000000 1.0
C      1  0.5724880000000  0.4364330000000  0.5193860000000 1.0
C      1  0.4258250000000  0.5645090000000  0.4757000000000 1.0
C      1  0.5369630000000  0.5188840000000  0.4748910000000 1.0
C      1  0.4551340000000  0.4826760000000  0.5221320000000 1.0
C      1  0.5361010000000  0.4751530000000  0.5906140000000 1.0
C      1  0.4615020000000  0.5187200000000  0.4028950000000 1.0
C      1  0.4792280000000  0.5258140000000  0.5327110000000 1.0
C      1  0.5194230000000  0.4752980000000  0.4700850000000 1.0
C      1  0.6113460000000  0.5216320000000  0.5044630000000 1.0
C      1  0.3929180000000  0.4771210000000  0.4966590000000 1.0
C      1  0.4433790000000  0.4748880000000  0.4185280000000 1.0
C      1  0.5600570000000  0.5189570000000  0.5827710000000 1.0
C      1  0.4827180000000  0.5377630000000  0.4880780000000 1.0
C      1  0.5211370000000  0.4650680000000  0.5151870000000 1.0
C      1  0.4961780000000  0.4232210000000  0.4725020000000 1.0
C      1  0.5079060000000  0.5762360000000  0.5322510000000 1.0
C      1  0.5466240000000  0.5502520000000  0.5235100000000 1.0
C      1  0.4570950000000  0.4485340000000  0.4795930000000 1.0
C      1  0.5196470000000  0.4959310000000  0.6041490000000 1.0
C      1  0.4814610000000  0.4985970000000  0.3936170000000 1.0
C      1  0.5465680000000  0.4885720000000  0.4776750000000 1.0
C      1  0.4509020000000  0.5143650000000  0.5217680000000 1.0
C      1  0.5288490000000  0.4499200000000  0.4295530000000 1.0
C      1  0.4720110000000  0.5507680000000  0.5680580000000 1.0
C      1  0.4988360000000  0.5262700000000  0.5101720000000 1.0
C      1  0.5008760000000  0.4765290000000  0.4944160000000 1.0
C      1  0.5545040000000  0.4907680000000  0.5727610000000 1.0
C      1  0.4457310000000  0.5043560000000  0.4241200000000 1.0
C      1  0.5433410000000  0.4300120000000  0.4823650000000 1.0
C      1  0.4620560000000  0.5711600000000  0.5187850000000 1.0
C      1  0.4250870000000  0.5216800000000  0.5569250000000 1.0
C      1  0.5702910000000  0.4835310000000  0.4410340000000 1.0
C      1  0.5762850000000  0.4625880000000  0.5084780000000 1.0
C      1  0.4243730000000  0.5388450000000  0.4879540000000 1.0
C      1  0.5102250000000  0.4940550000000  0.4479680000000 1.0
C      1  0.4888100000000  0.5066130000000  0.5538950000000 1.0
C      1  0.5702320000000  0.5454250000000  0.4633030000000 1.0
C      1  0.4293180000000  0.4509510000000  0.5382800000000 1.0
C      1  0.4780560000000  0.5710350000000  0.4272890000000 1.0
C      1  0.5155810000000  0.4300620000000  0.5628170000000 1.0
C      1  0.4697050000000  0.4188680000000  0.5163780000000 1.0
C      1  0.5342960000000  0.5812360000000  0.4891870000000 1.0
C      1  0.5203430000000  0.4371910000000  0.4643310000000 1.0
C      1  0.4820300000000  0.5641510000000  0.5406170000000 1.0
C      1  0.5653020000000  0.5118760000000  0.4346130000000 1.0
C      1  0.4307110000000  0.4948950000000  0.5659320000000 1.0
C      1  0.5638830000000  0.4439520000000  0.4658190000000 1.0
C      1  0.4394570000000  0.5562930000000  0.5306810000000 1.0
C      1  0.4363190000000  0.4310470000000  0.4342230000000 1.0
C      1  0.5670680000000  0.5642930000000  0.5710720000000 1.0
C      1  0.5043480000000  0.5386740000000  0.4035390000000 1.0
C      1  0.4902830000000  0.4638110000000  0.5839300000000 1.0
C      1  0.5238810000000  0.5552070000000  0.4165550000000 1.0
C      1  0.4741820000000  0.4396230000000  0.5876560000000 1.0
C      1  0.5256330000000  0.4956600000000  0.4131700000000 1.0
C      1  0.4728860000000  0.5085230000000  0.5950560000000 1.0
C      1  0.4314250000000  0.5493160000000  0.4327740000000 1.0
C      1  0.5676250000000  0.4452920000000  0.5642610000000 1.0
C      1  0.4652190000000  0.5034690000000  0.4475500000000 1.0
C      1  0.5356810000000  0.4973230000000  0.5492050000000 1.0
C      1  0.4588810000000  0.4179230000000  0.4408410000000 1.0
C      1  0.5454550000000  0.5787850000000  0.5643310000000 1.0
C      1  0.4458320000000  0.5424980000000  0.5556960000000 1.0
C      1  0.5520310000000  0.4604390000000  0.4441210000000 1.0
C      1  0.5297290000000  0.5264940000000  0.5069880000000 1.0
C      1  0.4691940000000  0.4752390000000  0.4932920000000 1.0
C      1  0.5076050000000  0.5774050000000  0.5023790000000 1.0
C      1  0.4962740000000  0.4231090000000  0.5019400000000 1.0
C      1  0.5187040000000  0.4749780000000  0.5444350000000 1.0
C      1  0.4814290000000  0.5272900000000  0.4445720000000 1.0
C      1  0.4753110000000  0.4751360000000  0.5439020000000 1.0
C      1  0.5027550000000  0.5343190000000  0.4633600000000 1.0
C      1  0.5312840000000  0.5646160000000  0.5447310000000 1.0
C      1  0.4729820000000  0.4339650000000  0.4590630000000 1.0
C      1  0.5517230000000  0.5552280000000  0.4196540000000 1.0
C      1  0.4463540000000  0.4417610000000  0.5842230000000 1.0
C      1  0.5169570000000  0.5165430000000  0.5594590000000 1.0
C      1  0.4836780000000  0.4829860000000  0.4412780000000 1.0
C      1  0.5830840000000  0.4846290000000  0.4663890000000 1.0
C      1  0.4140750000000  0.5196580000000  0.5307320000000 1.0
END
