TITL C-3577082-504-49 -4.9112285926328e-06 125000 -639.12668190949 0 0 109 (C1) n - 1
REM
REM in /home/bkarasulu/work/CARBON/AIRSS/Generating-Clusters/EDIP-Nigel-Params/with-SteepDescent/Higher-Symm/SD-CG/HFTN-CG
REM
REM
REM
REM
REM
REM ./C.cell (12c818d87b63d06a65506943cc24bca4)
REM
REM compiler GCC version 9.2.1 20190827 (Red Hat 9.2.1-1)
REM options -cpp -mtune=generic -march=x86-64 -g -O0 -fpre-include=/usr/include/finclude/math-vector-fortran.h
REM seed -1920097647 -380013971 1567601928 -561863654 -893539806 -529784393 1198829312 1410944246 1940401671 478388747 1235286307 783515740 966264388 537755740 1011246416 -1043509139 1471784136 -152873592 -656541220 -1518340929 -810956069 2112549835 -132348142 1423429545 -125672819 6189756 -695223230 -530147287 -1848219815 -2021332460 -2110627549 -1583651698 873038102
REM
CELL 1.54180   50.00000   50.00000   50.00000   90.00000   90.00000   90.00000
LATT -1
SFAC C  
C      1  0.4412190000000  0.4338090000000  0.5095970000000 1.0
C      1  0.4150830000000  0.4775410000000  0.5027280000000 1.0
C      1  0.4175560000000  0.5264820000000  0.5031220000000 1.0
C      1  0.4372250000000  0.5722200000000  0.5037740000000 1.0
C      1  0.4868660000000  0.5870780000000  0.5052690000000 1.0
C      1  0.5357610000000  0.5798630000000  0.5042160000000 1.0
C      1  0.5710970000000  0.5440450000000  0.5060780000000 1.0
C      1  0.5932560000000  0.4983730000000  0.5033600000000 1.0
C      1  0.5725140000000  0.4523360000000  0.5043830000000 1.0
C      1  0.5359830000000  0.4162900000000  0.5001440000000 1.0
C      1  0.4862030000000  0.4093410000000  0.5020160000000 1.0
C      1  0.5290880000000  0.5391220000000  0.4882970000000 1.0
C      1  0.5508110000000  0.5184110000000  0.4761220000000 1.0
C      1  0.5512370000000  0.4909450000000  0.4900210000000 1.0
C      1  0.5281300000000  0.4703440000000  0.4823180000000 1.0
C      1  0.5062820000000  0.4418380000000  0.4696820000000 1.0
C      1  0.4782560000000  0.4488360000000  0.4827710000000 1.0
C      1  0.4521840000000  0.4661690000000  0.4729600000000 1.0
C      1  0.4526910000000  0.4958890000000  0.4853010000000 1.0
C      1  0.4512180000000  0.5275440000000  0.4746380000000 1.0
C      1  0.4747520000000  0.5458760000000  0.4856380000000 1.0
C      1  0.5054100000000  0.5546880000000  0.4743300000000 1.0
C      1  0.4956990000000  0.5446290000000  0.4253610000000 1.0
C      1  0.5369550000000  0.5662690000000  0.4377300000000 1.0
C      1  0.5631590000000  0.5386800000000  0.4326400000000 1.0
C      1  0.5638600000000  0.4904020000000  0.4378720000000 1.0
C      1  0.5707530000000  0.4566770000000  0.4212530000000 1.0
C      1  0.5293910000000  0.4262200000000  0.4287760000000 1.0
C      1  0.4814870000000  0.4349660000000  0.4286460000000 1.0
C      1  0.4629680000000  0.4585120000000  0.4306770000000 1.0
C      1  0.4245790000000  0.4846580000000  0.4433040000000 1.0
C      1  0.4399620000000  0.5080180000000  0.4298830000000 1.0
C      1  0.4588780000000  0.5534430000000  0.4331800000000 1.0
C      1  0.4909420000000  0.5913960000000  0.5341310000000 1.0
C      1  0.5340020000000  0.5806270000000  0.5323790000000 1.0
C      1  0.5734880000000  0.5468040000000  0.5348340000000 1.0
C      1  0.5904580000000  0.4970650000000  0.5323690000000 1.0
C      1  0.5753780000000  0.4498250000000  0.5332490000000 1.0
C      1  0.5359840000000  0.4123390000000  0.5281250000000 1.0
C      1  0.4923720000000  0.4175200000000  0.5286000000000 1.0
C      1  0.4528190000000  0.4449560000000  0.5369720000000 1.0
C      1  0.4191650000000  0.4820730000000  0.5307500000000 1.0
C      1  0.4143580000000  0.5262060000000  0.5319610000000 1.0
C      1  0.4379250000000  0.5691320000000  0.5317080000000 1.0
C      1  0.4528510000000  0.5227270000000  0.5288860000000 1.0
C      1  0.4711270000000  0.5474800000000  0.5177670000000 1.0
C      1  0.5003340000000  0.5538320000000  0.5302870000000 1.0
C      1  0.5198500000000  0.5314170000000  0.5166490000000 1.0
C      1  0.5445800000000  0.5212970000000  0.5321660000000 1.0
C      1  0.5532890000000  0.4938520000000  0.5210840000000 1.0
C      1  0.5410000000000  0.4675520000000  0.5318190000000 1.0
C      1  0.5215620000000  0.4565560000000  0.5097410000000 1.0
C      1  0.4897040000000  0.4522830000000  0.5122150000000 1.0
C      1  0.4736930000000  0.4737960000000  0.5301250000000 1.0
C      1  0.4533150000000  0.4939190000000  0.5165650000000 1.0
C      1  0.5683100000000  0.5337290000000  0.5603700000000 1.0
C      1  0.5776350000000  0.4914550000000  0.5568020000000 1.0
C      1  0.5625510000000  0.4501170000000  0.5592890000000 1.0
C      1  0.5288720000000  0.4232510000000  0.5521680000000 1.0
C      1  0.4756770000000  0.4296640000000  0.5475240000000 1.0
C      1  0.4388490000000  0.4538200000000  0.5631620000000 1.0
C      1  0.4277500000000  0.4809470000000  0.5581820000000 1.0
C      1  0.4276260000000  0.5336810000000  0.5564230000000 1.0
C      1  0.4578550000000  0.5673290000000  0.5507360000000 1.0
C      1  0.4992400000000  0.5792670000000  0.5597200000000 1.0
C      1  0.5396950000000  0.5666780000000  0.5553870000000 1.0
C      1  0.5641680000000  0.4818040000000  0.4115890000000 1.0
C      1  0.5533160000000  0.4355760000000  0.4218410000000 1.0
C      1  0.5074730000000  0.4385190000000  0.4402060000000 1.0
C      1  0.4705620000000  0.4475070000000  0.4050490000000 1.0
C      1  0.4359610000000  0.4585490000000  0.4393830000000 1.0
C      1  0.4144250000000  0.4990600000000  0.4201800000000 1.0
C      1  0.4453810000000  0.5316810000000  0.4456710000000 1.0
C      1  0.4738170000000  0.5521440000000  0.4099890000000 1.0
C      1  0.5102490000000  0.5593650000000  0.4449980000000 1.0
C      1  0.5493180000000  0.5554860000000  0.4153940000000 1.0
C      1  0.5537200000000  0.5156850000000  0.4465860000000 1.0
C      1  0.5254140000000  0.5437950000000  0.5646060000000 1.0
C      1  0.5442170000000  0.5221980000000  0.5750820000000 1.0
C      1  0.5506100000000  0.4936360000000  0.5657910000000 1.0
C      1  0.5408230000000  0.4656250000000  0.5739440000000 1.0
C      1  0.5186680000000  0.4469380000000  0.5638950000000 1.0
C      1  0.4890680000000  0.4495560000000  0.5641440000000 1.0
C      1  0.4670330000000  0.4680590000000  0.5736260000000 1.0
C      1  0.4539010000000  0.4952560000000  0.5636100000000 1.0
C      1  0.4515720000000  0.5240780000000  0.5710230000000 1.0
C      1  0.4714770000000  0.5446470000000  0.5618930000000 1.0
C      1  0.4979060000000  0.5521340000000  0.5734480000000 1.0
C      1  0.5103460000000  0.5802190000000  0.4893180000000 1.0
C      1  0.5573210000000  0.5649350000000  0.4920190000000 1.0
C      1  0.5856730000000  0.5238980000000  0.4914390000000 1.0
C      1  0.5856220000000  0.4738020000000  0.4898390000000 1.0
C      1  0.5506420000000  0.4394490000000  0.4894970000000 1.0
C      1  0.5103850000000  0.4152580000000  0.4847600000000 1.0
C      1  0.4595790000000  0.4176190000000  0.4928010000000 1.0
C      1  0.4305020000000  0.4549250000000  0.4911230000000 1.0
C      1  0.4148930000000  0.5023580000000  0.4877580000000 1.0
C      1  0.4246970000000  0.5505010000000  0.4895970000000 1.0
C      1  0.4615640000000  0.5816530000000  0.4918930000000 1.0
C      1  0.5059420000000  0.4966440000000  0.4094310000000 1.0
C      1  0.5005090000000  0.5015520000000  0.5626620000000 1.0
C      1  0.4953810000000  0.4931800000000  0.5364050000000 1.0
C      1  0.5016400000000  0.4978850000000  0.4356050000000 1.0
C      1  0.4976900000000  0.4961070000000  0.5891490000000 1.0
C      1  0.5082800000000  0.4938090000000  0.3840850000000 1.0
C      1  0.5025680000000  0.5082580000000  0.5134090000000 1.0
C      1  0.5010260000000  0.4967670000000  0.6147100000000 1.0
C      1  0.4988660000000  0.4948500000000  0.4619300000000 1.0
C      1  0.4959970000000  0.4991680000000  0.4881200000000 1.0
END
