TITL C-3577087-600-561 -1.234413781237e-06 125000 -894.470715233573 0 0 144 (C1) n - 1
REM
REM in /home/bkarasulu/work/CARBON/AIRSS/Generating-Clusters/EDIP-Nigel-Params/with-SteepDescent/Higher-Symm/SD-CG/HFTN-CG
REM
REM
REM
REM
REM
REM ./C.cell (12c818d87b63d06a65506943cc24bca4)
REM
REM compiler GCC version 9.2.1 20190827 (Red Hat 9.2.1-1)
REM options -cpp -mtune=generic -march=x86-64 -g -O0 -fpre-include=/usr/include/finclude/math-vector-fortran.h
REM seed -1424566630 1886583789 142104746 -1074689410 -346434204 57345229 1905688514 -1355811651 -14384225 -1876768632 772501706 403091695 541741921 -1330309418 -990445628 -1002389688 1031958329 526776999 2070730683 -565939274 -1132830909 1279643449 1953632580 837904304 -466735402 -1714160732 2072319296 1942638095 2060785001 2084329775 786173844 866038774 -1992364434
REM
CELL 1.54180   50.00000   50.00000   50.00000   90.00000   90.00000   90.00000
LATT -1
SFAC C  
C      1  0.5585640000000  0.4886490000000  0.5162200000000 1.0
C      1  0.4902570000000  0.4540590000000  0.5149580000000 1.0
C      1  0.4475800000000  0.5008070000000  0.5164930000000 1.0
C      1  0.5077390000000  0.5519850000000  0.5155550000000 1.0
C      1  0.5531580000000  0.4891140000000  0.4850900000000 1.0
C      1  0.4936510000000  0.4501030000000  0.4820420000000 1.0
C      1  0.4456570000000  0.5045280000000  0.4777120000000 1.0
C      1  0.5050950000000  0.5497770000000  0.4855260000000 1.0
C      1  0.5979310000000  0.5220780000000  0.4404870000000 1.0
C      1  0.5269360000000  0.3947300000000  0.4510860000000 1.0
C      1  0.3969070000000  0.4708460000000  0.4362750000000 1.0
C      1  0.4675810000000  0.6050740000000  0.4549410000000 1.0
C      1  0.5985030000000  0.5261510000000  0.5570330000000 1.0
C      1  0.5259200000000  0.4116890000000  0.5559610000000 1.0
C      1  0.3965860000000  0.4679870000000  0.5537840000000 1.0
C      1  0.4782880000000  0.5910050000000  0.5521570000000 1.0
C      1  0.5638360000000  0.5424420000000  0.5870660000000 1.0
C      1  0.5422880000000  0.4447600000000  0.5882410000000 1.0
C      1  0.4415320000000  0.4617800000000  0.5741560000000 1.0
C      1  0.4585000000000  0.5567690000000  0.5766430000000 1.0
C      1  0.5602270000000  0.5449560000000  0.4168840000000 1.0
C      1  0.5343870000000  0.4396970000000  0.4295920000000 1.0
C      1  0.4420880000000  0.4532760000000  0.4196510000000 1.0
C      1  0.4606590000000  0.5640170000000  0.4272540000000 1.0
C      1  0.5119850000000  0.5799140000000  0.5258450000000 1.0
C      1  0.5861550000000  0.4886560000000  0.5288680000000 1.0
C      1  0.4896390000000  0.4265430000000  0.5287740000000 1.0
C      1  0.4220490000000  0.5022170000000  0.5323800000000 1.0
C      1  0.5052560000000  0.5777780000000  0.4720730000000 1.0
C      1  0.5779870000000  0.4875420000000  0.4678140000000 1.0
C      1  0.4921030000000  0.4219930000000  0.4713410000000 1.0
C      1  0.4240070000000  0.5049710000000  0.4582530000000 1.0
C      1  0.4998420000000  0.5703360000000  0.4005630000000 1.0
C      1  0.5489590000000  0.5041190000000  0.3936630000000 1.0
C      1  0.4961760000000  0.4373790000000  0.4007630000000 1.0
C      1  0.4491200000000  0.4919950000000  0.3920240000000 1.0
C      1  0.4998850000000  0.5564740000000  0.5998780000000 1.0
C      1  0.5672580000000  0.4966570000000  0.6016590000000 1.0
C      1  0.4970970000000  0.4460880000000  0.6024990000000 1.0
C      1  0.4383030000000  0.4978510000000  0.6046930000000 1.0
C      1  0.4781790000000  0.5407320000000  0.4792370000000 1.0
C      1  0.5485070000000  0.5213230000000  0.4875350000000 1.0
C      1  0.5239760000000  0.4605590000000  0.4806940000000 1.0
C      1  0.4499060000000  0.4747240000000  0.4804430000000 1.0
C      1  0.4813060000000  0.5458800000000  0.5289840000000 1.0
C      1  0.5501960000000  0.5181900000000  0.5191470000000 1.0
C      1  0.5231160000000  0.4626040000000  0.5128940000000 1.0
C      1  0.4508860000000  0.4725910000000  0.5091460000000 1.0
C      1  0.5842740000000  0.4406540000000  0.5131740000000 1.0
C      1  0.4409450000000  0.4138390000000  0.5119490000000 1.0
C      1  0.4153000000000  0.5549450000000  0.5116730000000 1.0
C      1  0.5646970000000  0.5817520000000  0.5118560000000 1.0
C      1  0.5857860000000  0.4402640000000  0.4862490000000 1.0
C      1  0.4398200000000  0.4155570000000  0.4850670000000 1.0
C      1  0.4127190000000  0.5525870000000  0.4849880000000 1.0
C      1  0.5648940000000  0.5813880000000  0.4850480000000 1.0
C      1  0.4801340000000  0.5179370000000  0.5781490000000 1.0
C      1  0.5279410000000  0.5169150000000  0.5926580000000 1.0
C      1  0.5189720000000  0.4870120000000  0.5915540000000 1.0
C      1  0.4841380000000  0.4900170000000  0.5871170000000 1.0
C      1  0.4884020000000  0.5271290000000  0.4173390000000 1.0
C      1  0.5183390000000  0.5257770000000  0.4227810000000 1.0
C      1  0.5066610000000  0.4799640000000  0.4202030000000 1.0
C      1  0.4780320000000  0.4811220000000  0.4292590000000 1.0
C      1  0.5518740000000  0.5626640000000  0.5563580000000 1.0
C      1  0.5631740000000  0.4537920000000  0.5570220000000 1.0
C      1  0.4493120000000  0.4397810000000  0.5546860000000 1.0
C      1  0.4358060000000  0.5465850000000  0.5574860000000 1.0
C      1  0.5506770000000  0.5617110000000  0.4411090000000 1.0
C      1  0.5588070000000  0.4481150000000  0.4442990000000 1.0
C      1  0.4523390000000  0.4385650000000  0.4438780000000 1.0
C      1  0.4376150000000  0.5497090000000  0.4397860000000 1.0
C      1  0.4998350000000  0.5889640000000  0.4220370000000 1.0
C      1  0.5565240000000  0.4957440000000  0.4222780000000 1.0
C      1  0.4956750000000  0.4167740000000  0.4206300000000 1.0
C      1  0.4275140000000  0.4993560000000  0.4085840000000 1.0
C      1  0.5083350000000  0.5583220000000  0.5710310000000 1.0
C      1  0.5647240000000  0.4955560000000  0.5720860000000 1.0
C      1  0.4956900000000  0.4454760000000  0.5727640000000 1.0
C      1  0.4179670000000  0.4982950000000  0.5847620000000 1.0
C      1  0.4813630000000  0.5618970000000  0.5573160000000 1.0
C      1  0.5713440000000  0.5244330000000  0.5654460000000 1.0
C      1  0.5238620000000  0.4377690000000  0.5668970000000 1.0
C      1  0.4135660000000  0.4704730000000  0.5760340000000 1.0
C      1  0.4713300000000  0.5913620000000  0.4307300000000 1.0
C      1  0.5734280000000  0.5208270000000  0.4265740000000 1.0
C      1  0.5239870000000  0.4120530000000  0.4290270000000 1.0
C      1  0.4181660000000  0.4720940000000  0.4175630000000 1.0
C      1  0.5535290000000  0.5218390000000  0.6059500000000 1.0
C      1  0.5227240000000  0.4596180000000  0.6053110000000 1.0
C      1  0.4563060000000  0.4783900000000  0.5945580000000 1.0
C      1  0.4759390000000  0.5407860000000  0.5960070000000 1.0
C      1  0.5386570000000  0.5303810000000  0.4007660000000 1.0
C      1  0.5169310000000  0.4543810000000  0.4109480000000 1.0
C      1  0.4613660000000  0.4708250000000  0.4067020000000 1.0
C      1  0.4789770000000  0.5524440000000  0.4080130000000 1.0
C      1  0.4729630000000  0.5088940000000  0.5305850000000 1.0
C      1  0.5258250000000  0.5193460000000  0.5382520000000 1.0
C      1  0.5217650000000  0.4902150000000  0.5399250000000 1.0
C      1  0.4919250000000  0.4830390000000  0.5366020000000 1.0
C      1  0.4714280000000  0.5150710000000  0.4655730000000 1.0
C      1  0.5236200000000  0.5291790000000  0.4718320000000 1.0
C      1  0.5188430000000  0.4984510000000  0.4639230000000 1.0
C      1  0.4907510000000  0.4942850000000  0.4712020000000 1.0
C      1  0.4877620000000  0.4727850000000  0.5637030000000 1.0
C      1  0.4614960000000  0.5179210000000  0.5562600000000 1.0
C      1  0.5277840000000  0.5335260000000  0.5654910000000 1.0
C      1  0.5356130000000  0.4804400000000  0.5653850000000 1.0
C      1  0.4765180000000  0.4687300000000  0.4655620000000 1.0
C      1  0.4689750000000  0.5110580000000  0.4345040000000 1.0
C      1  0.5260270000000  0.5436430000000  0.4456390000000 1.0
C      1  0.5252320000000  0.4983280000000  0.4335090000000 1.0
C      1  0.5645560000000  0.4334040000000  0.4694060000000 1.0
C      1  0.4327000000000  0.4335970000000  0.4649920000000 1.0
C      1  0.4343730000000  0.5593370000000  0.4685500000000 1.0
C      1  0.5683330000000  0.5612980000000  0.4663190000000 1.0
C      1  0.5630890000000  0.4381680000000  0.5311320000000 1.0
C      1  0.4328480000000  0.4334440000000  0.5301840000000 1.0
C      1  0.4353500000000  0.5606190000000  0.5299610000000 1.0
C      1  0.5690450000000  0.5626100000000  0.5314950000000 1.0
C      1  0.5370000000000  0.4348720000000  0.5165180000000 1.0
C      1  0.4247840000000  0.4580230000000  0.5144870000000 1.0
C      1  0.4616370000000  0.5664290000000  0.5156830000000 1.0
C      1  0.5764250000000  0.5363920000000  0.5184100000000 1.0
C      1  0.5382630000000  0.4313810000000  0.4836110000000 1.0
C      1  0.4233790000000  0.4589380000000  0.4772890000000 1.0
C      1  0.4607320000000  0.5639100000000  0.4839710000000 1.0
C      1  0.5747670000000  0.5357960000000  0.4813950000000 1.0
C      1  0.5175390000000  0.4157120000000  0.5294070000000 1.0
C      1  0.4074270000000  0.4770970000000  0.5297660000000 1.0
C      1  0.4820620000000  0.5910150000000  0.5241830000000 1.0
C      1  0.5967980000000  0.5175620000000  0.5303040000000 1.0
C      1  0.5191520000000  0.4102960000000  0.4730590000000 1.0
C      1  0.4086460000000  0.4794540000000  0.4601290000000 1.0
C      1  0.4773360000000  0.5873700000000  0.4744300000000 1.0
C      1  0.5909180000000  0.5147730000000  0.4666160000000 1.0
C      1  0.5253450000000  0.5783990000000  0.5544380000000 1.0
C      1  0.5833210000000  0.4767150000000  0.5568780000000 1.0
C      1  0.4766960000000  0.4278970000000  0.5561770000000 1.0
C      1  0.4232420000000  0.5156820000000  0.5594030000000 1.0
C      1  0.5184260000000  0.5816810000000  0.4451470000000 1.0
C      1  0.5707060000000  0.4750150000000  0.4413040000000 1.0
C      1  0.4777780000000  0.4220140000000  0.4447990000000 1.0
C      1  0.4366340000000  0.5169570000000  0.4329290000000 1.0
END
