TITL C-3577080-309-224 -1.80070630176205e-06 125000 -466.862479183195 0 0 76 (C3) n - 1
REM
REM in /home/bkarasulu/work/CARBON/AIRSS/Generating-Clusters/EDIP-Nigel-Params/with-SteepDescent/Higher-Symm/SD-CG/HFTN-CG
REM
REM
REM
REM
REM
REM ./C.cell (12c818d87b63d06a65506943cc24bca4)
REM
REM compiler GCC version 9.2.1 20190827 (Red Hat 9.2.1-1)
REM options -cpp -mtune=generic -march=x86-64 -g -O0 -fpre-include=/usr/include/finclude/math-vector-fortran.h
REM seed -1827290066 926182298 772960272 -1037468475 499544685 576283720 194748187 -1255855969 -1205246085 988525230 -1270665493 -78685291 -1795248894 1792597395 -1120590967 -1639278550 2112105587 -1690756373 -1412261269 1232276457 -641397951 -671879079 -367131053 -1591078343 -1498793986 -1711994400 -283902112 -129711960 2051187030 396549637 1425672379 -1872780280 -648899252
REM
CELL 1.54180   50.00000   50.00000   50.00000   90.00000   90.00000   90.00000
LATT -1
SFAC C  
C      1  0.5617060000000  0.5077620000000  0.4766970000000 1.0
C      1  0.4484800000000  0.5076310000000  0.4586220000000 1.0
C      1  0.4894400000000  0.5075060000000  0.5657160000000 1.0
C      1  0.5760410000000  0.4671800000000  0.5177490000000 1.0
C      1  0.4770120000000  0.4671970000000  0.4256270000000 1.0
C      1  0.4467460000000  0.4669280000000  0.5574500000000 1.0
C      1  0.4629250000000  0.4618720000000  0.4509260000000 1.0
C      1  0.4757180000000  0.4617080000000  0.5569930000000 1.0
C      1  0.5611780000000  0.4619400000000  0.4928800000000 1.0
C      1  0.4339370000000  0.4564080000000  0.5335260000000 1.0
C      1  0.5617650000000  0.4565780000000  0.5407900000000 1.0
C      1  0.5041410000000  0.4566920000000  0.4264560000000 1.0
C      1  0.5620030000000  0.4801660000000  0.4704860000000 1.0
C      1  0.4430520000000  0.4800110000000  0.4614320000000 1.0
C      1  0.4946870000000  0.4799000000000  0.5689740000000 1.0
C      1  0.4883320000000  0.5824840000000  0.4711170000000 1.0
C      1  0.4800630000000  0.5823800000000  0.5250560000000 1.0
C      1  0.5309100000000  0.5824860000000  0.5052480000000 1.0
C      1  0.5331600000000  0.5695070000000  0.4804760000000 1.0
C      1  0.4658010000000  0.5694090000000  0.4815370000000 1.0
C      1  0.5003990000000  0.5693590000000  0.5393410000000 1.0
C      1  0.4904460000000  0.4264440000000  0.4651460000000 1.0
C      1  0.4744010000000  0.4263170000000  0.5260010000000 1.0
C      1  0.5351260000000  0.4264320000000  0.5094690000000 1.0
C      1  0.5358700000000  0.5323260000000  0.5029330000000 1.0
C      1  0.4840290000000  0.5323120000000  0.4679110000000 1.0
C      1  0.4796190000000  0.5321990000000  0.5303180000000 1.0
C      1  0.5768500000000  0.5151730000000  0.4996910000000 1.0
C      1  0.4607940000000  0.5151200000000  0.4340190000000 1.0
C      1  0.4619480000000  0.5148930000000  0.5673630000000 1.0
C      1  0.4878760000000  0.4369140000000  0.5490020000000 1.0
C      1  0.5482690000000  0.4371080000000  0.4863130000000 1.0
C      1  0.4637820000000  0.4370230000000  0.4653550000000 1.0
C      1  0.5214850000000  0.5096550000000  0.5143240000000 1.0
C      1  0.5011690000000  0.5096940000000  0.4746430000000 1.0
C      1  0.4769620000000  0.5095950000000  0.5120780000000 1.0
C      1  0.5192200000000  0.4616230000000  0.5083820000000 1.0
C      1  0.4973290000000  0.4616420000000  0.4795110000000 1.0
C      1  0.4832720000000  0.4615640000000  0.5129040000000 1.0
C      1  0.5410240000000  0.4357550000000  0.5365630000000 1.0
C      1  0.5109270000000  0.4358670000000  0.4465030000000 1.0
C      1  0.4479810000000  0.4356550000000  0.5175980000000 1.0
C      1  0.5440150000000  0.5438570000000  0.5314530000000 1.0
C      1  0.5046140000000  0.5439460000000  0.4466130000000 1.0
C      1  0.4508410000000  0.5437380000000  0.5231550000000 1.0
C      1  0.5342720000000  0.4457440000000  0.4612150000000 1.0
C      1  0.4490140000000  0.4455730000000  0.4900370000000 1.0
C      1  0.5166040000000  0.4455680000000  0.5494630000000 1.0
C      1  0.5278710000000  0.5695050000000  0.5299390000000 1.0
C      1  0.5112810000000  0.5695990000000  0.4613850000000 1.0
C      1  0.4602070000000  0.5694420000000  0.5100290000000 1.0
C      1  0.4918140000000  0.5518690000000  0.5618600000000 1.0
C      1  0.5570180000000  0.5521090000000  0.4766270000000 1.0
C      1  0.4506020000000  0.5519810000000  0.4627760000000 1.0
C      1  0.5098720000000  0.5277590000000  0.5678590000000 1.0
C      1  0.5532720000000  0.5280100000000  0.4579570000000 1.0
C      1  0.4363940000000  0.5278130000000  0.4753220000000 1.0
C      1  0.4444640000000  0.4957200000000  0.5555250000000 1.0
C      1  0.5754100000000  0.4959660000000  0.5207270000000 1.0
C      1  0.4798010000000  0.4959950000000  0.4247230000000 1.0
C      1  0.4599300000000  0.5433610000000  0.5606540000000 1.0
C      1  0.5719470000000  0.5436170000000  0.5048320000000 1.0
C      1  0.4675940000000  0.5435860000000  0.4357340000000 1.0
C      1  0.5422030000000  0.4882480000000  0.5510470000000 1.0
C      1  0.5226900000000  0.4884140000000  0.4383100000000 1.0
C      1  0.4348140000000  0.4881630000000  0.5115770000000 1.0
C      1  0.4351320000000  0.5215360000000  0.5046800000000 1.0
C      1  0.5359500000000  0.5215950000000  0.5542650000000 1.0
C      1  0.5284830000000  0.5217770000000  0.4421620000000 1.0
C      1  0.4638840000000  0.4869130000000  0.5227980000000 1.0
C      1  0.5373900000000  0.4870230000000  0.5202600000000 1.0
C      1  0.4984390000000  0.4870740000000  0.4578710000000 1.0
C      1  0.5214060000000  0.4702670000000  0.5641780000000 1.0
C      1  0.5445250000000  0.4704960000000  0.4497320000000 1.0
C      1  0.4338530000000  0.4702740000000  0.4869330000000 1.0
C      1  0.4998880000000  0.4983420000000  0.5003290000000 1.0
END
