TITL C-3578206-1180-205 1.57361800190185e-06 125000 -805.489421240321 0 0 131 (C1) n - 1
REM
REM in /home/bkarasulu/work/CARBON/AIRSS/Generating-Clusters/EDIP-Nigel-Params/with-SteepDescent/Higher-Symm/SD-CG/HFTN-CG
REM
REM
REM
REM
REM
REM ./C.cell (12c818d87b63d06a65506943cc24bca4)
REM
REM compiler GCC version 9.2.1 20190827 (Red Hat 9.2.1-1)
REM options -cpp -mtune=generic -march=x86-64 -g -O0 -fpre-include=/usr/include/finclude/math-vector-fortran.h
REM seed 2009829237 -1147644556 1052027977 -2088393572 -1456518835 -1941003334 -245488892 -1908772020 -695644841 696774579 -1794889161 -306719342 684692762 -144658296 -1828683689 1246386279 -1984532704 373768663 899780404 779978242 -399530226 1105731031 1079527052 -530241459 2028979771 -2053927558 2061364569 -1618876182 333018116 1947086673 -1063905743 -306744511 -1617510331
REM
CELL 1.54180   50.00000   50.00000   50.00000   90.00000   90.00000   90.00000
LATT -1
SFAC C  
C      1  0.5609470000000  0.4372760000000  0.4909860000000 1.0
C      1  0.4837940000000  0.5659370000000  0.4305190000000 1.0
C      1  0.4344370000000  0.4925800000000  0.5638590000000 1.0
C      1  0.5701060000000  0.5700430000000  0.4994680000000 1.0
C      1  0.4251520000000  0.5740830000000  0.4931580000000 1.0
C      1  0.4371630000000  0.4361770000000  0.5032820000000 1.0
C      1  0.4871070000000  0.4243770000000  0.5628800000000 1.0
C      1  0.5157540000000  0.4187920000000  0.4306610000000 1.0
C      1  0.5055550000000  0.5648230000000  0.5721940000000 1.0
C      1  0.4357070000000  0.5116060000000  0.4432150000000 1.0
C      1  0.5678670000000  0.5182660000000  0.5693920000000 1.0
C      1  0.5648960000000  0.4904380000000  0.4264410000000 1.0
C      1  0.5283180000000  0.5062950000000  0.4461250000000 1.0
C      1  0.4483360000000  0.5329180000000  0.5046870000000 1.0
C      1  0.5043490000000  0.4514420000000  0.5294880000000 1.0
C      1  0.5345020000000  0.4847850000000  0.5508290000000 1.0
C      1  0.4662270000000  0.4797960000000  0.4490690000000 1.0
C      1  0.4732760000000  0.5162330000000  0.5516650000000 1.0
C      1  0.4644600000000  0.4560570000000  0.4681920000000 1.0
C      1  0.5309460000000  0.4651510000000  0.5202630000000 1.0
C      1  0.5526080000000  0.5309510000000  0.4909890000000 1.0
C      1  0.5068690000000  0.5423780000000  0.4608100000000 1.0
C      1  0.4844380000000  0.5432240000000  0.5396500000000 1.0
C      1  0.4920220000000  0.4398190000000  0.4617820000000 1.0
C      1  0.4102510000000  0.5691720000000  0.5165480000000 1.0
C      1  0.5112800000000  0.4277970000000  0.5457140000000 1.0
C      1  0.5493140000000  0.5154030000000  0.4267660000000 1.0
C      1  0.4370580000000  0.4430980000000  0.4747100000000 1.0
C      1  0.5559920000000  0.4478740000000  0.5177540000000 1.0
C      1  0.5890520000000  0.5626900000000  0.4795510000000 1.0
C      1  0.5068200000000  0.5693060000000  0.4475700000000 1.0
C      1  0.4795280000000  0.5679350000000  0.5573870000000 1.0
C      1  0.4888520000000  0.4147320000000  0.4451070000000 1.0
C      1  0.5533950000000  0.4933390000000  0.5745990000000 1.0
C      1  0.4450760000000  0.4879460000000  0.4297310000000 1.0
C      1  0.4485750000000  0.5179690000000  0.5695220000000 1.0
C      1  0.5191710000000  0.5581030000000  0.5005170000000 1.0
C      1  0.4987490000000  0.5117920000000  0.5688520000000 1.0
C      1  0.5545070000000  0.5125980000000  0.5180830000000 1.0
C      1  0.5033260000000  0.4329510000000  0.4878210000000 1.0
C      1  0.4859820000000  0.4427690000000  0.5072580000000 1.0
C      1  0.4898880000000  0.5659310000000  0.4928280000000 1.0
C      1  0.4914550000000  0.4776690000000  0.4329530000000 1.0
C      1  0.5074860000000  0.4823810000000  0.5647610000000 1.0
C      1  0.5016730000000  0.5067820000000  0.4310850000000 1.0
C      1  0.5575000000000  0.4930610000000  0.4934660000000 1.0
C      1  0.4564870000000  0.4821560000000  0.5115210000000 1.0
C      1  0.4535620000000  0.5059720000000  0.4910230000000 1.0
C      1  0.4846670000000  0.3917690000000  0.4636280000000 1.0
C      1  0.4553560000000  0.4970110000000  0.4053780000000 1.0
C      1  0.4142730000000  0.4582630000000  0.4711430000000 1.0
C      1  0.4812430000000  0.5911220000000  0.5386100000000 1.0
C      1  0.5100440000000  0.5969520000000  0.4616760000000 1.0
C      1  0.5139440000000  0.4048130000000  0.5272860000000 1.0
C      1  0.4594190000000  0.5164180000000  0.5966370000000 1.0
C      1  0.5337480000000  0.5175890000000  0.4016170000000 1.0
C      1  0.5394300000000  0.4988630000000  0.5982400000000 1.0
C      1  0.4061820000000  0.5409260000000  0.5184190000000 1.0
C      1  0.5942280000000  0.5349830000000  0.4777900000000 1.0
C      1  0.5795750000000  0.4632470000000  0.5252220000000 1.0
C      1  0.4826100000000  0.4465330000000  0.5817080000000 1.0
C      1  0.5765870000000  0.4899380000000  0.4535440000000 1.0
C      1  0.4515450000000  0.5881860000000  0.4912560000000 1.0
C      1  0.4872370000000  0.5435570000000  0.4114230000000 1.0
C      1  0.5050370000000  0.5452010000000  0.5947340000000 1.0
C      1  0.5161430000000  0.4432970000000  0.4113700000000 1.0
C      1  0.5822120000000  0.5176970000000  0.5442880000000 1.0
C      1  0.4283450000000  0.5062750000000  0.4717250000000 1.0
C      1  0.4244860000000  0.4996090000000  0.5370600000000 1.0
C      1  0.4626280000000  0.4224120000000  0.5114500000000 1.0
C      1  0.5436870000000  0.4167450000000  0.4791570000000 1.0
C      1  0.5428080000000  0.5741670000000  0.4889750000000 1.0
C      1  0.5249120000000  0.5722140000000  0.5499140000000 1.0
C      1  0.5488510000000  0.5398690000000  0.5686120000000 1.0
C      1  0.5710470000000  0.5522310000000  0.5231100000000 1.0
C      1  0.5381140000000  0.4250010000000  0.4503640000000 1.0
C      1  0.4624560000000  0.4196830000000  0.5439960000000 1.0
C      1  0.4665800000000  0.5752020000000  0.4640920000000 1.0
C      1  0.5460130000000  0.4666510000000  0.4202260000000 1.0
C      1  0.4528900000000  0.4677420000000  0.5698240000000 1.0
C      1  0.4571400000000  0.5324450000000  0.4418150000000 1.0
C      1  0.5670250000000  0.4619360000000  0.4634870000000 1.0
C      1  0.4351720000000  0.4595930000000  0.5222660000000 1.0
C      1  0.4310080000000  0.5476750000000  0.4820360000000 1.0
C      1  0.4745220000000  0.4919970000000  0.5330670000000 1.0
C      1  0.5269830000000  0.4825720000000  0.4918740000000 1.0
C      1  0.4856310000000  0.5228030000000  0.4518070000000 1.0
C      1  0.4814350000000  0.5048160000000  0.4759280000000 1.0
C      1  0.5292890000000  0.5077890000000  0.5319910000000 1.0
C      1  0.5322160000000  0.4786020000000  0.4604200000000 1.0
C      1  0.5216130000000  0.5326060000000  0.4855880000000 1.0
C      1  0.4733870000000  0.5481000000000  0.5121170000000 1.0
C      1  0.4739880000000  0.4656410000000  0.4947370000000 1.0
C      1  0.4894270000000  0.4711490000000  0.5455190000000 1.0
C      1  0.5111910000000  0.4596590000000  0.4465180000000 1.0
C      1  0.5179540000000  0.5289710000000  0.5497310000000 1.0
C      1  0.4622730000000  0.5933180000000  0.5173720000000 1.0
C      1  0.5042520000000  0.4644500000000  0.5891740000000 1.0
C      1  0.5751280000000  0.5183190000000  0.4629070000000 1.0
C      1  0.4632880000000  0.3971060000000  0.4941020000000 1.0
C      1  0.5186530000000  0.4091610000000  0.4957530000000 1.0
C      1  0.5364020000000  0.5989370000000  0.4752240000000 1.0
C      1  0.5130360000000  0.5370110000000  0.4026420000000 1.0
C      1  0.4795550000000  0.5355890000000  0.6008020000000 1.0
C      1  0.4922520000000  0.4619500000000  0.4065820000000 1.0
C      1  0.5985910000000  0.4935960000000  0.5392210000000 1.0
C      1  0.4069270000000  0.4848380000000  0.4732540000000 1.0
C      1  0.4300640000000  0.5282020000000  0.5301410000000 1.0
C      1  0.4946040000000  0.5977560000000  0.4883200000000 1.0
C      1  0.4678410000000  0.4887180000000  0.5971470000000 1.0
C      1  0.5833650000000  0.4784750000000  0.5008860000000 1.0
C      1  0.4882940000000  0.3924760000000  0.5321500000000 1.0
C      1  0.5044100000000  0.3848580000000  0.4848230000000 1.0
C      1  0.5093320000000  0.5888170000000  0.5309240000000 1.0
C      1  0.4804890000000  0.5079950000000  0.3982740000000 1.0
C      1  0.5137710000000  0.5086910000000  0.6048840000000 1.0
C      1  0.5266810000000  0.4898290000000  0.3966660000000 1.0
C      1  0.5944000000000  0.5270500000000  0.5054800000000 1.0
C      1  0.4011590000000  0.5248030000000  0.4933420000000 1.0
C      1  0.4053470000000  0.4833670000000  0.5221800000000 1.0
C      1  0.5160630000000  0.6044470000000  0.5074040000000 1.0
C      1  0.4832510000000  0.3799060000000  0.5064850000000 1.0
C      1  0.4990180000000  0.4855340000000  0.3899180000000 1.0
C      1  0.4948630000000  0.4853810000000  0.6074000000000 1.0
C      1  0.3944960000000  0.4952850000000  0.4977800000000 1.0
C      1  0.6026760000000  0.4987900000000  0.5104000000000 1.0
C      1  0.4471910000000  0.5543240000000  0.4579420000000 1.0
C      1  0.4450980000000  0.4466750000000  0.5484590000000 1.0
C      1  0.5552750000000  0.4467810000000  0.4409760000000 1.0
C      1  0.5509260000000  0.5578960000000  0.5461730000000 1.0
C      1  0.5073420000000  0.5064740000000  0.4936960000000 1.0
END
