TITL C-3578202-4305-363 -5.05343182063064e-07 125000 -1014.02193761323 0 0 165 (C1) n - 1
REM
REM in /home/bkarasulu/work/CARBON/AIRSS/Generating-Clusters/EDIP-Nigel-Params/with-SteepDescent/Higher-Symm/SD-CG/HFTN-CG
REM
REM
REM
REM
REM
REM ./C.cell (12c818d87b63d06a65506943cc24bca4)
REM
REM compiler GCC version 9.2.1 20190827 (Red Hat 9.2.1-1)
REM options -cpp -mtune=generic -march=x86-64 -g -O0 -fpre-include=/usr/include/finclude/math-vector-fortran.h
REM seed 577618918 -220901634 182423176 485162785 -1012638678 -1330412682 -969209188 -1278659850 -1274699466 -481804668 -1430176340 1762649480 -1419717460 1613927796 -944882677 1871977284 530888487 1280475695 -126201543 1060023350 803812005 -2089034212 1136327415 105182392 719379439 -1898328252 -474064357 -106981646 -411850749 -489940334 -1005506296 -63679036 869220587
REM
CELL 1.54180   50.00000   50.00000   50.00000   90.00000   90.00000   90.00000
LATT -1
SFAC C  
C      1  0.4530750000000  0.4629280000000  0.5372940000000 1.0
C      1  0.5484370000000  0.4623290000000  0.5348120000000 1.0
C      1  0.4067710000000  0.5339740000000  0.5192530000000 1.0
C      1  0.5910050000000  0.5326750000000  0.5190170000000 1.0
C      1  0.5303610000000  0.4463020000000  0.6095860000000 1.0
C      1  0.4869100000000  0.4520970000000  0.6034680000000 1.0
C      1  0.5252190000000  0.5161240000000  0.4674280000000 1.0
C      1  0.4773010000000  0.5226530000000  0.4631860000000 1.0
C      1  0.4151920000000  0.4591120000000  0.5428040000000 1.0
C      1  0.5857090000000  0.4569640000000  0.5426570000000 1.0
C      1  0.5687650000000  0.4731260000000  0.4303090000000 1.0
C      1  0.4296800000000  0.4759740000000  0.4286650000000 1.0
C      1  0.5842490000000  0.4857360000000  0.5437990000000 1.0
C      1  0.4105880000000  0.4875670000000  0.5454130000000 1.0
C      1  0.5963910000000  0.4873470000000  0.4950840000000 1.0
C      1  0.4079380000000  0.4890940000000  0.4953050000000 1.0
C      1  0.4075790000000  0.5040650000000  0.5207230000000 1.0
C      1  0.5910610000000  0.5027260000000  0.5200600000000 1.0
C      1  0.4516980000000  0.4799080000000  0.4092320000000 1.0
C      1  0.5465370000000  0.4763020000000  0.4111100000000 1.0
C      1  0.5249300000000  0.5198230000000  0.4156400000000 1.0
C      1  0.4756130000000  0.5240950000000  0.4148390000000 1.0
C      1  0.5276440000000  0.4303760000000  0.4176920000000 1.0
C      1  0.4767280000000  0.4375430000000  0.4192040000000 1.0
C      1  0.5438680000000  0.4059670000000  0.5159310000000 1.0
C      1  0.4571920000000  0.4082600000000  0.5163950000000 1.0
C      1  0.4574190000000  0.5929990000000  0.4786900000000 1.0
C      1  0.5403040000000  0.5891940000000  0.4689450000000 1.0
C      1  0.4302780000000  0.4190080000000  0.5093600000000 1.0
C      1  0.5710020000000  0.4169900000000  0.5088720000000 1.0
C      1  0.4704850000000  0.5975150000000  0.5327430000000 1.0
C      1  0.5243530000000  0.5954880000000  0.5277330000000 1.0
C      1  0.4122530000000  0.5809290000000  0.4834740000000 1.0
C      1  0.5811660000000  0.5736660000000  0.4797610000000 1.0
C      1  0.5742340000000  0.4999450000000  0.4449260000000 1.0
C      1  0.4305880000000  0.5026820000000  0.4454630000000 1.0
C      1  0.5839920000000  0.4435950000000  0.5171550000000 1.0
C      1  0.4177920000000  0.4455090000000  0.5176170000000 1.0
C      1  0.5500020000000  0.4568650000000  0.5910550000000 1.0
C      1  0.4630040000000  0.4502950000000  0.5856280000000 1.0
C      1  0.5496600000000  0.5764530000000  0.5182610000000 1.0
C      1  0.4437190000000  0.5783240000000  0.5234210000000 1.0
C      1  0.4799500000000  0.4637360000000  0.3758100000000 1.0
C      1  0.5184680000000  0.4599110000000  0.3767580000000 1.0
C      1  0.4347170000000  0.5906240000000  0.4972640000000 1.0
C      1  0.5607380000000  0.5902230000000  0.4931950000000 1.0
C      1  0.4740840000000  0.4049240000000  0.4904070000000 1.0
C      1  0.5283930000000  0.4024220000000  0.4886650000000 1.0
C      1  0.4613420000000  0.5045450000000  0.5071210000000 1.0
C      1  0.5408480000000  0.5005080000000  0.5058730000000 1.0
C      1  0.4285350000000  0.5467550000000  0.5587020000000 1.0
C      1  0.5674100000000  0.5481920000000  0.5566470000000 1.0
C      1  0.5664170000000  0.4968450000000  0.5642570000000 1.0
C      1  0.4260330000000  0.4993420000000  0.5679390000000 1.0
C      1  0.4653990000000  0.4113560000000  0.5453420000000 1.0
C      1  0.5298790000000  0.4153320000000  0.5416300000000 1.0
C      1  0.5408430000000  0.4494890000000  0.5088650000000 1.0
C      1  0.4669460000000  0.4566570000000  0.5116270000000 1.0
C      1  0.5485060000000  0.5373340000000  0.4192970000000 1.0
C      1  0.4537740000000  0.5444790000000  0.4203160000000 1.0
C      1  0.4680700000000  0.5497710000000  0.4605870000000 1.0
C      1  0.5324400000000  0.5395950000000  0.4544340000000 1.0
C      1  0.5562720000000  0.5215500000000  0.5545140000000 1.0
C      1  0.4410260000000  0.5195170000000  0.5502200000000 1.0
C      1  0.4449180000000  0.5271530000000  0.5172520000000 1.0
C      1  0.5531150000000  0.5251500000000  0.5160540000000 1.0
C      1  0.4598950000000  0.4337380000000  0.4444800000000 1.0
C      1  0.5431140000000  0.4305320000000  0.4448680000000 1.0
C      1  0.4212860000000  0.4446070000000  0.4704760000000 1.0
C      1  0.5836070000000  0.4411310000000  0.4696010000000 1.0
C      1  0.5482320000000  0.4065610000000  0.4652840000000 1.0
C      1  0.4553050000000  0.4091120000000  0.4673260000000 1.0
C      1  0.4725240000000  0.4958860000000  0.4253920000000 1.0
C      1  0.5254890000000  0.4921910000000  0.4265170000000 1.0
C      1  0.5362150000000  0.4516300000000  0.3980960000000 1.0
C      1  0.4636750000000  0.4547660000000  0.3980410000000 1.0
C      1  0.4497080000000  0.4895620000000  0.4832780000000 1.0
C      1  0.5549000000000  0.4871700000000  0.4821490000000 1.0
C      1  0.5744960000000  0.5260800000000  0.4295500000000 1.0
C      1  0.4286970000000  0.5303440000000  0.4325800000000 1.0
C      1  0.4605040000000  0.5456820000000  0.5926500000000 1.0
C      1  0.5343020000000  0.5543480000000  0.5901040000000 1.0
C      1  0.5397220000000  0.5668510000000  0.4205930000000 1.0
C      1  0.4615840000000  0.5779060000000  0.4281180000000 1.0
C      1  0.4293050000000  0.4173890000000  0.4795930000000 1.0
C      1  0.5739490000000  0.4141950000000  0.4791580000000 1.0
C      1  0.4452080000000  0.5907390000000  0.4502390000000 1.0
C      1  0.5542220000000  0.5815200000000  0.4428180000000 1.0
C      1  0.5936240000000  0.4578640000000  0.4938850000000 1.0
C      1  0.4107970000000  0.4602800000000  0.4941600000000 1.0
C      1  0.4220640000000  0.5739930000000  0.4578830000000 1.0
C      1  0.5807270000000  0.5712910000000  0.4509700000000 1.0
C      1  0.5513080000000  0.4578030000000  0.4824920000000 1.0
C      1  0.4536590000000  0.4597410000000  0.4856300000000 1.0
C      1  0.4544780000000  0.5579690000000  0.5665470000000 1.0
C      1  0.5483130000000  0.5653440000000  0.5679740000000 1.0
C      1  0.5893180000000  0.5473530000000  0.4393380000000 1.0
C      1  0.4363640000000  0.5476080000000  0.4562080000000 1.0
C      1  0.5237410000000  0.5012330000000  0.5893670000000 1.0
C      1  0.4653170000000  0.4989040000000  0.5889260000000 1.0
C      1  0.5442400000000  0.4822790000000  0.5771730000000 1.0
C      1  0.4492320000000  0.4750930000000  0.5863690000000 1.0
C      1  0.4336160000000  0.4498870000000  0.4431470000000 1.0
C      1  0.5688790000000  0.4465940000000  0.4434410000000 1.0
C      1  0.5786920000000  0.5566180000000  0.5318300000000 1.0
C      1  0.4176810000000  0.5577900000000  0.5341030000000 1.0
C      1  0.5896010000000  0.5003210000000  0.4703650000000 1.0
C      1  0.4150230000000  0.5023020000000  0.4710350000000 1.0
C      1  0.5359850000000  0.5264490000000  0.5934200000000 1.0
C      1  0.4469440000000  0.5203500000000  0.5935220000000 1.0
C      1  0.4606840000000  0.4999390000000  0.4544680000000 1.0
C      1  0.5375550000000  0.4924660000000  0.4557360000000 1.0
C      1  0.5284940000000  0.4498830000000  0.4631160000000 1.0
C      1  0.4752670000000  0.4487510000000  0.4664670000000 1.0
C      1  0.5257640000000  0.5484090000000  0.5417070000000 1.0
C      1  0.4733420000000  0.5495020000000  0.5455970000000 1.0
C      1  0.5391030000000  0.5501200000000  0.5048260000000 1.0
C      1  0.4610870000000  0.5528910000000  0.5182500000000 1.0
C      1  0.4777450000000  0.6178980000000  0.5135410000000 1.0
C      1  0.5160290000000  0.6155140000000  0.5085880000000 1.0
C      1  0.5496790000000  0.5522880000000  0.4757620000000 1.0
C      1  0.4701660000000  0.5659770000000  0.4861380000000 1.0
C      1  0.4660260000000  0.4934960000000  0.5358120000000 1.0
C      1  0.5340330000000  0.4913450000000  0.5350980000000 1.0
C      1  0.4664560000000  0.4417760000000  0.5562810000000 1.0
C      1  0.5398020000000  0.4428500000000  0.5566410000000 1.0
C      1  0.4995870000000  0.3905080000000  0.4831920000000 1.0
C      1  0.5107490000000  0.5766370000000  0.4700240000000 1.0
C      1  0.5120410000000  0.4447810000000  0.5063210000000 1.0
C      1  0.4985500000000  0.5338510000000  0.5044000000000 1.0
C      1  0.4998800000000  0.4187160000000  0.4157550000000 1.0
C      1  0.4991750000000  0.5154500000000  0.4808890000000 1.0
C      1  0.5062390000000  0.4330280000000  0.4794210000000 1.0
C      1  0.4948390000000  0.5974860000000  0.4558880000000 1.0
C      1  0.4892490000000  0.5391820000000  0.5963450000000 1.0
C      1  0.4999260000000  0.4584760000000  0.6296650000000 1.0
C      1  0.4976090000000  0.3965520000000  0.4325150000000 1.0
C      1  0.5090520000000  0.4393550000000  0.5912510000000 1.0
C      1  0.4941620000000  0.4703260000000  0.5123140000000 1.0
C      1  0.5010710000000  0.4833960000000  0.3808090000000 1.0
C      1  0.5014220000000  0.5120840000000  0.3786910000000 1.0
C      1  0.4966720000000  0.4706040000000  0.4600330000000 1.0
C      1  0.4931190000000  0.4020120000000  0.5435510000000 1.0
C      1  0.4977930000000  0.4812730000000  0.4317000000000 1.0
C      1  0.5012850000000  0.5888210000000  0.5765780000000 1.0
C      1  0.4949070000000  0.5062330000000  0.5768760000000 1.0
C      1  0.5071660000000  0.5641950000000  0.5928360000000 1.0
C      1  0.4929240000000  0.5290650000000  0.6228230000000 1.0
C      1  0.4956700000000  0.4821490000000  0.6427110000000 1.0
C      1  0.5010860000000  0.5311510000000  0.4013140000000 1.0
C      1  0.4984130000000  0.3841030000000  0.4561210000000 1.0
C      1  0.4995520000000  0.5606880000000  0.5501910000000 1.0
C      1  0.4957370000000  0.4866480000000  0.4857510000000 1.0
C      1  0.5041940000000  0.4262410000000  0.5299480000000 1.0
C      1  0.5116030000000  0.5232250000000  0.5295260000000 1.0
C      1  0.4940890000000  0.6143220000000  0.4901430000000 1.0
C      1  0.4984200000000  0.5643660000000  0.4972390000000 1.0
C      1  0.4988520000000  0.5901480000000  0.5454340000000 1.0
C      1  0.4940920000000  0.5085060000000  0.6398230000000 1.0
C      1  0.5064040000000  0.5531640000000  0.4512160000000 1.0
C      1  0.5085880000000  0.5626910000000  0.4221250000000 1.0
C      1  0.5138030000000  0.4521330000000  0.5664580000000 1.0
C      1  0.4897480000000  0.5869680000000  0.4284130000000 1.0
C      1  0.4969680000000  0.4984790000000  0.5454260000000 1.0
C      1  0.4938020000000  0.4497010000000  0.5462860000000 1.0
END
