TITL C-3577091-527-85 -1.17345838568871e-07 125000 -699.705475307212 0 0 111 (C1) n - 1
REM
REM in /home/bkarasulu/work/CARBON/AIRSS/Generating-Clusters/EDIP-Nigel-Params/with-SteepDescent/Higher-Symm/SD-CG/HFTN-CG
REM
REM
REM
REM
REM
REM ./C.cell (12c818d87b63d06a65506943cc24bca4)
REM
REM compiler GCC version 9.2.1 20190827 (Red Hat 9.2.1-1)
REM options -cpp -mtune=generic -march=x86-64 -g -O0 -fpre-include=/usr/include/finclude/math-vector-fortran.h
REM seed -439867584 -1243850035 -1306048926 2118156616 392456029 938614767 -952488476 -1269068312 2015966833 -238078381 -72524408 -1060607150 1486458694 491920121 490350069 -754180776 -1599543834 -1075558672 1905472432 1412835194 347091554 -1958858611 1808762718 -463990029 -1127316740 576067366 1882606316 -289718817 239358022 -1332255996 -466838019 -2770284 324816504
REM
CELL 1.54180   50.00000   50.00000   50.00000   90.00000   90.00000   90.00000
LATT -1
SFAC C  
C      1  0.4862900000000  0.5807940000000  0.4763810000000 1.0
C      1  0.5157380000000  0.4773960000000  0.4188590000000 1.0
C      1  0.4847200000000  0.4207310000000  0.5233720000000 1.0
C      1  0.5184640000000  0.5244980000000  0.5857840000000 1.0
C      1  0.4791290000000  0.4454350000000  0.4294680000000 1.0
C      1  0.5185660000000  0.4311420000000  0.5572370000000 1.0
C      1  0.4828210000000  0.5527990000000  0.5684700000000 1.0
C      1  0.5223900000000  0.5717210000000  0.4427060000000 1.0
C      1  0.5349720000000  0.5003640000000  0.5866810000000 1.0
C      1  0.4673310000000  0.5734670000000  0.4988600000000 1.0
C      1  0.5333450000000  0.4998570000000  0.4280440000000 1.0
C      1  0.4654240000000  0.4263660000000  0.5007260000000 1.0
C      1  0.4192240000000  0.5021790000000  0.5389260000000 1.0
C      1  0.5826620000000  0.5401340000000  0.4972810000000 1.0
C      1  0.4152870000000  0.4974090000000  0.4616800000000 1.0
C      1  0.5856360000000  0.4625290000000  0.5067690000000 1.0
C      1  0.5083930000000  0.4518940000000  0.4352550000000 1.0
C      1  0.4893700000000  0.4340220000000  0.5519420000000 1.0
C      1  0.5087270000000  0.5408880000000  0.5596930000000 1.0
C      1  0.4925740000000  0.5677570000000  0.4475420000000 1.0
C      1  0.5708670000000  0.5590240000000  0.5172700000000 1.0
C      1  0.4189260000000  0.5184210000000  0.4419300000000 1.0
C      1  0.5810160000000  0.4438070000000  0.4851570000000 1.0
C      1  0.4261140000000  0.4802950000000  0.5582180000000 1.0
C      1  0.4197840000000  0.5645540000000  0.5265140000000 1.0
C      1  0.5825020000000  0.5238920000000  0.4338010000000 1.0
C      1  0.4182020000000  0.4336420000000  0.4753500000000 1.0
C      1  0.5780680000000  0.4778490000000  0.5705430000000 1.0
C      1  0.4404650000000  0.5238670000000  0.5448950000000 1.0
C      1  0.5641570000000  0.5484400000000  0.4728130000000 1.0
C      1  0.4357130000000  0.4750030000000  0.4541920000000 1.0
C      1  0.5645200000000  0.4544210000000  0.5296610000000 1.0
C      1  0.5114510000000  0.5908530000000  0.4877960000000 1.0
C      1  0.4909340000000  0.4885790000000  0.4066590000000 1.0
C      1  0.5096030000000  0.4115250000000  0.5097130000000 1.0
C      1  0.4926170000000  0.5119720000000  0.5936210000000 1.0
C      1  0.4633790000000  0.4722250000000  0.5228170000000 1.0
C      1  0.5390000000000  0.5188970000000  0.5054190000000 1.0
C      1  0.4597310000000  0.5328200000000  0.4721000000000 1.0
C      1  0.5376050000000  0.4796410000000  0.4751690000000 1.0
C      1  0.5026790000000  0.4932770000000  0.5500390000000 1.0
C      1  0.5042510000000  0.5490560000000  0.5017390000000 1.0
C      1  0.4896310000000  0.5056170000000  0.4474690000000 1.0
C      1  0.5044430000000  0.4529230000000  0.4943480000000 1.0
C      1  0.5068920000000  0.4778630000000  0.4800940000000 1.0
C      1  0.4922770000000  0.4730750000000  0.5318100000000 1.0
C      1  0.5087400000000  0.5217190000000  0.5126500000000 1.0
C      1  0.4872250000000  0.5217560000000  0.4709200000000 1.0
C      1  0.4722400000000  0.4562520000000  0.5675420000000 1.0
C      1  0.5261770000000  0.5594370000000  0.5418840000000 1.0
C      1  0.4769350000000  0.5470810000000  0.4299890000000 1.0
C      1  0.5240440000000  0.4355760000000  0.4565230000000 1.0
C      1  0.4530270000000  0.5140540000000  0.5696320000000 1.0
C      1  0.5574470000000  0.5766360000000  0.4789120000000 1.0
C      1  0.4451080000000  0.4836470000000  0.4273280000000 1.0
C      1  0.5561640000000  0.4275530000000  0.5208490000000 1.0
C      1  0.5477680000000  0.4508530000000  0.4675800000000 1.0
C      1  0.4481740000000  0.4613510000000  0.5475160000000 1.0
C      1  0.5489100000000  0.5444060000000  0.5301600000000 1.0
C      1  0.4509870000000  0.5395360000000  0.4443140000000 1.0
C      1  0.5459750000000  0.5022300000000  0.4557460000000 1.0
C      1  0.4547450000000  0.4543690000000  0.4986810000000 1.0
C      1  0.5370860000000  0.4923230000000  0.5492100000000 1.0
C      1  0.4532310000000  0.5465020000000  0.4984110000000 1.0
C      1  0.5827580000000  0.5135570000000  0.5099890000000 1.0
C      1  0.4098870000000  0.5072120000000  0.4887260000000 1.0
C      1  0.5902730000000  0.4895820000000  0.4956460000000 1.0
C      1  0.4134720000000  0.4910180000000  0.5123640000000 1.0
C      1  0.4933310000000  0.5211610000000  0.4216930000000 1.0
C      1  0.5060920000000  0.4265290000000  0.4808680000000 1.0
C      1  0.4929230000000  0.4843650000000  0.5781550000000 1.0
C      1  0.5090440000000  0.5728880000000  0.5189400000000 1.0
C      1  0.5401350000000  0.4723880000000  0.5248640000000 1.0
C      1  0.4620610000000  0.5245260000000  0.5225580000000 1.0
C      1  0.5391550000000  0.5294650000000  0.4753190000000 1.0
C      1  0.4599800000000  0.4754260000000  0.4733220000000 1.0
C      1  0.4766920000000  0.4203970000000  0.4737690000000 1.0
C      1  0.5213210000000  0.4744670000000  0.5857680000000 1.0
C      1  0.4794500000000  0.5776120000000  0.5255620000000 1.0
C      1  0.5236300000000  0.5263270000000  0.4198160000000 1.0
C      1  0.5824000000000  0.5123310000000  0.5376530000000 1.0
C      1  0.4067980000000  0.5344720000000  0.4920350000000 1.0
C      1  0.5928140000000  0.4918120000000  0.4680720000000 1.0
C      1  0.4082520000000  0.4639640000000  0.5107340000000 1.0
C      1  0.5670490000000  0.5456300000000  0.4425320000000 1.0
C      1  0.4336850000000  0.4445410000000  0.4546210000000 1.0
C      1  0.5637840000000  0.4555880000000  0.5606270000000 1.0
C      1  0.4359260000000  0.5542430000000  0.5470050000000 1.0
C      1  0.4488620000000  0.4866290000000  0.5774990000000 1.0
C      1  0.5633400000000  0.5837340000000  0.5054660000000 1.0
C      1  0.4381020000000  0.5110560000000  0.4222840000000 1.0
C      1  0.5610960000000  0.4253000000000  0.4928260000000 1.0
C      1  0.5345700000000  0.4534510000000  0.5688790000000 1.0
C      1  0.4655750000000  0.5617520000000  0.5464990000000 1.0
C      1  0.5378620000000  0.5477280000000  0.4346250000000 1.0
C      1  0.4628880000000  0.4364460000000  0.4528000000000 1.0
C      1  0.5750730000000  0.5024710000000  0.4497720000000 1.0
C      1  0.4260860000000  0.4471010000000  0.4983380000000 1.0
C      1  0.5668590000000  0.4994950000000  0.5566010000000 1.0
C      1  0.4245290000000  0.5531170000000  0.5016560000000 1.0
C      1  0.4713150000000  0.5302750000000  0.5844820000000 1.0
C      1  0.5324200000000  0.5861180000000  0.4674480000000 1.0
C      1  0.4689890000000  0.4706440000000  0.4158890000000 1.0
C      1  0.5294330000000  0.4203580000000  0.5305810000000 1.0
C      1  0.5136320000000  0.4549400000000  0.5217960000000 1.0
C      1  0.4955210000000  0.5208310000000  0.5402050000000 1.0
C      1  0.5095170000000  0.5434570000000  0.4725970000000 1.0
C      1  0.4875480000000  0.4771900000000  0.4566020000000 1.0
C      1  0.4639050000000  0.4981910000000  0.5060320000000 1.0
C      1  0.5464030000000  0.4896350000000  0.5018860000000 1.0
C      1  0.4923180000000  0.5032110000000  0.4943470000000 1.0
END
