TITL C-3578204-4308-610 -7.16226931469431e-07 125000 -633.980880911041 0 0 101 (C1) n - 1
REM
REM in /home/bkarasulu/work/CARBON/AIRSS/Generating-Clusters/EDIP-Nigel-Params/with-SteepDescent/Higher-Symm/SD-CG/HFTN-CG
REM
REM
REM
REM
REM
REM ./C.cell (12c818d87b63d06a65506943cc24bca4)
REM
REM compiler GCC version 9.2.1 20190827 (Red Hat 9.2.1-1)
REM options -cpp -mtune=generic -march=x86-64 -g -O0 -fpre-include=/usr/include/finclude/math-vector-fortran.h
REM seed -1530341830 -2136264746 1710791634 -679354799 -1464912742 1494721742 -1457913349 -695869259 -1490770205 -833599948 -1418932931 1674916166 -225254590 -1287872083 750249999 -1877445005 1433370820 453764882 1235893688 334868693 -672828676 -1895978184 1136485299 -1139252546 -232583110 779250399 -351030690 157884556 579836094 100817671 909015402 1143018739 1430760040
REM
CELL 1.54180   50.00000   50.00000   50.00000   90.00000   90.00000   90.00000
LATT -1
SFAC C  
C      1  0.4342700000000  0.5232950000000  0.4827690000000 1.0
C      1  0.4362120000000  0.4945580000000  0.4717580000000 1.0
C      1  0.4366110000000  0.4753870000000  0.4963450000000 1.0
C      1  0.4369070000000  0.4925650000000  0.5221480000000 1.0
C      1  0.4331010000000  0.5206680000000  0.5123030000000 1.0
C      1  0.5260140000000  0.4986720000000  0.4183160000000 1.0
C      1  0.5241650000000  0.4263480000000  0.4779660000000 1.0
C      1  0.5266620000000  0.4550610000000  0.5645520000000 1.0
C      1  0.5264760000000  0.5460000000000  0.5633120000000 1.0
C      1  0.5242620000000  0.5735640000000  0.4742710000000 1.0
C      1  0.5006470000000  0.4598030000000  0.4523220000000 1.0
C      1  0.4997860000000  0.4369770000000  0.5291210000000 1.0
C      1  0.5005340000000  0.5056500000000  0.5695750000000 1.0
C      1  0.4995630000000  0.5619450000000  0.5147630000000 1.0
C      1  0.5001270000000  0.5346480000000  0.4388720000000 1.0
C      1  0.4770120000000  0.4899530000000  0.5790820000000 1.0
C      1  0.4759560000000  0.5662600000000  0.5314570000000 1.0
C      1  0.4767200000000  0.5527180000000  0.4413640000000 1.0
C      1  0.4770170000000  0.4619560000000  0.4335450000000 1.0
C      1  0.4761420000000  0.4242120000000  0.5167600000000 1.0
C      1  0.4490480000000  0.4408580000000  0.4840710000000 1.0
C      1  0.4503180000000  0.4688490000000  0.5506650000000 1.0
C      1  0.4483310000000  0.5454870000000  0.5592550000000 1.0
C      1  0.4486260000000  0.5586700000000  0.4765710000000 1.0
C      1  0.4494030000000  0.4968480000000  0.4354140000000 1.0
C      1  0.5595670000000  0.4893640000000  0.5505850000000 1.0
C      1  0.5575670000000  0.5452020000000  0.5260270000000 1.0
C      1  0.5568120000000  0.5390750000000  0.4642560000000 1.0
C      1  0.5572280000000  0.4788330000000  0.4512370000000 1.0
C      1  0.5572160000000  0.4483890000000  0.5051340000000 1.0
C      1  0.5256880000000  0.5469360000000  0.4304560000000 1.0
C      1  0.5241310000000  0.4505720000000  0.4357870000000 1.0
C      1  0.5256230000000  0.4226050000000  0.5281550000000 1.0
C      1  0.5268180000000  0.5016370000000  0.5827320000000 1.0
C      1  0.5237870000000  0.5766150000000  0.5231350000000 1.0
C      1  0.4103140000000  0.4576950000000  0.4616650000000 1.0
C      1  0.4100990000000  0.4537040000000  0.5281640000000 1.0
C      1  0.4100590000000  0.5150310000000  0.5544060000000 1.0
C      1  0.4084710000000  0.5562580000000  0.5018350000000 1.0
C      1  0.4094390000000  0.5222060000000  0.4445410000000 1.0
C      1  0.5962170000000  0.4852980000000  0.5202850000000 1.0
C      1  0.5953480000000  0.5156540000000  0.5196880000000 1.0
C      1  0.5938180000000  0.5241760000000  0.4910250000000 1.0
C      1  0.5936880000000  0.4997090000000  0.4739820000000 1.0
C      1  0.5945060000000  0.4756720000000  0.4917310000000 1.0
C      1  0.5012280000000  0.5318790000000  0.5539430000000 1.0
C      1  0.5004570000000  0.5569300000000  0.4845370000000 1.0
C      1  0.5009050000000  0.5038460000000  0.4347470000000 1.0
C      1  0.5004220000000  0.4454160000000  0.4803430000000 1.0
C      1  0.5006620000000  0.4603740000000  0.5490780000000 1.0
C      1  0.4129940000000  0.4895300000000  0.5403670000000 1.0
C      1  0.4112600000000  0.5365350000000  0.5230040000000 1.0
C      1  0.4092170000000  0.5346290000000  0.4707860000000 1.0
C      1  0.4121090000000  0.4860620000000  0.4562500000000 1.0
C      1  0.4119880000000  0.4586670000000  0.4995900000000 1.0
C      1  0.5693870000000  0.5154360000000  0.5618230000000 1.0
C      1  0.5666820000000  0.5635730000000  0.5041130000000 1.0
C      1  0.5671750000000  0.5240400000000  0.4403220000000 1.0
C      1  0.5665940000000  0.4512140000000  0.4587000000000 1.0
C      1  0.5681080000000  0.4461450000000  0.5331930000000 1.0
C      1  0.5385200000000  0.4744280000000  0.5012740000000 1.0
C      1  0.5426390000000  0.4944780000000  0.5245950000000 1.0
C      1  0.5384330000000  0.5226980000000  0.5140100000000 1.0
C      1  0.5377130000000  0.5205030000000  0.4819760000000 1.0
C      1  0.5374720000000  0.4900870000000  0.4731850000000 1.0
C      1  0.4350690000000  0.5681570000000  0.4998170000000 1.0
C      1  0.4351830000000  0.5210430000000  0.4304740000000 1.0
C      1  0.4353260000000  0.4426110000000  0.4591670000000 1.0
C      1  0.4345500000000  0.4455560000000  0.5423140000000 1.0
C      1  0.4341420000000  0.5226170000000  0.5692940000000 1.0
C      1  0.5433230000000  0.5238420000000  0.4211900000000 1.0
C      1  0.5412570000000  0.4342480000000  0.4541840000000 1.0
C      1  0.5436380000000  0.4358040000000  0.5485730000000 1.0
C      1  0.5442940000000  0.5257030000000  0.5765830000000 1.0
C      1  0.5412570000000  0.5799310000000  0.4985440000000 1.0
C      1  0.5083780000000  0.5275040000000  0.4815480000000 1.0
C      1  0.5075570000000  0.4883810000000  0.4610710000000 1.0
C      1  0.5079390000000  0.4706820000000  0.5017460000000 1.0
C      1  0.5036960000000  0.4858480000000  0.5300390000000 1.0
C      1  0.5069210000000  0.5195880000000  0.5244540000000 1.0
C      1  0.4510900000000  0.4275000000000  0.5290820000000 1.0
C      1  0.4500470000000  0.4996580000000  0.5745710000000 1.0
C      1  0.4488170000000  0.5604260000000  0.5235960000000 1.0
C      1  0.4517690000000  0.5432650000000  0.4326560000000 1.0
C      1  0.4523630000000  0.4500090000000  0.4384640000000 1.0
C      1  0.5787890000000  0.5483640000000  0.4818400000000 1.0
C      1  0.5793390000000  0.4982320000000  0.4478720000000 1.0
C      1  0.5791910000000  0.4506000000000  0.4854210000000 1.0
C      1  0.5815150000000  0.4710770000000  0.5425130000000 1.0
C      1  0.5804270000000  0.5320630000000  0.5400090000000 1.0
C      1  0.5425850000000  0.4783210000000  0.5729600000000 1.0
C      1  0.5409010000000  0.5626810000000  0.5436260000000 1.0
C      1  0.5407060000000  0.5614500000000  0.4524320000000 1.0
C      1  0.5408250000000  0.4740250000000  0.4264480000000 1.0
C      1  0.5406570000000  0.4236610000000  0.5021390000000 1.0
C      1  0.4770420000000  0.5510120000000  0.5563770000000 1.0
C      1  0.4753310000000  0.5635640000000  0.4683170000000 1.0
C      1  0.4753020000000  0.4898120000000  0.4256420000000 1.0
C      1  0.4751730000000  0.4306930000000  0.4885030000000 1.0
C      1  0.4759160000000  0.4637050000000  0.5656980000000 1.0
C      1  0.4924410000000  0.5030190000000  0.4921150000000 1.0
END
