TITL C-3578209-2550-21 -3.0170221683205e-06 125000 -736.133759058095 0 0 120 (C1) n - 1
REM
REM in /home/bkarasulu/work/CARBON/AIRSS/Generating-Clusters/EDIP-Nigel-Params/with-SteepDescent/Higher-Symm/SD-CG/HFTN-CG
REM
REM
REM
REM
REM
REM ./C.cell (12c818d87b63d06a65506943cc24bca4)
REM
REM compiler GCC version 9.2.1 20190827 (Red Hat 9.2.1-1)
REM options -cpp -mtune=generic -march=x86-64 -g -O0 -fpre-include=/usr/include/finclude/math-vector-fortran.h
REM seed 996992971 1884117178 -868715406 1148718223 677971745 848735370 713595463 62888095 -386816594 1843828673 610766944 -1518877718 -1452885088 -1503843784 -557237288 -713629016 -79280373 -1206357624 -1527708579 -647723274 -1678934962 -1574241604 1196584026 2141550336 1703352158 415391732 398906422 1667157622 871540828 385273332 -821877674 -368041509 1325169091
REM
CELL 1.54180   50.00000   50.00000   50.00000   90.00000   90.00000   90.00000
LATT -1
SFAC C  
C      1  0.4763720000000  0.4182340000000  0.5367120000000 1.0
C      1  0.5482880000000  0.4317230000000  0.5507080000000 1.0
C      1  0.5824460000000  0.4995340000000  0.5570940000000 1.0
C      1  0.5624160000000  0.5720200000000  0.5574580000000 1.0
C      1  0.4921300000000  0.5777990000000  0.5392480000000 1.0
C      1  0.4349940000000  0.5333270000000  0.5498260000000 1.0
C      1  0.4254720000000  0.4724510000000  0.5479710000000 1.0
C      1  0.5671200000000  0.5430080000000  0.4652920000000 1.0
C      1  0.5028620000000  0.5815260000000  0.4652900000000 1.0
C      1  0.4344160000000  0.5538560000000  0.4561370000000 1.0
C      1  0.4122840000000  0.4830950000000  0.4607250000000 1.0
C      1  0.4592200000000  0.4225230000000  0.4591540000000 1.0
C      1  0.5323570000000  0.4137550000000  0.4561880000000 1.0
C      1  0.5764340000000  0.4690450000000  0.4639480000000 1.0
C      1  0.4243960000000  0.5723360000000  0.5023840000000 1.0
C      1  0.3912680000000  0.4819570000000  0.5102330000000 1.0
C      1  0.4280640000000  0.4342010000000  0.4881920000000 1.0
C      1  0.5386070000000  0.3939740000000  0.5031310000000 1.0
C      1  0.6014800000000  0.4634070000000  0.5088220000000 1.0
C      1  0.5911040000000  0.5562400000000  0.5089760000000 1.0
C      1  0.5189590000000  0.6154690000000  0.5025630000000 1.0
C      1  0.5656940000000  0.4553530000000  0.5542750000000 1.0
C      1  0.5835430000000  0.5290980000000  0.5560560000000 1.0
C      1  0.5364670000000  0.5869470000000  0.5522950000000 1.0
C      1  0.4668990000000  0.5638530000000  0.5401010000000 1.0
C      1  0.4124110000000  0.5189930000000  0.5611250000000 1.0
C      1  0.4406160000000  0.4490180000000  0.5384500000000 1.0
C      1  0.5049560000000  0.4151990000000  0.5415310000000 1.0
C      1  0.5055170000000  0.4578130000000  0.5743300000000 1.0
C      1  0.5365490000000  0.5006270000000  0.5817600000000 1.0
C      1  0.5363960000000  0.5301650000000  0.5765680000000 1.0
C      1  0.5111950000000  0.5441000000000  0.5713400000000 1.0
C      1  0.4854480000000  0.5300750000000  0.5717650000000 1.0
C      1  0.4644870000000  0.4829820000000  0.5773730000000 1.0
C      1  0.4765150000000  0.4568910000000  0.5714830000000 1.0
C      1  0.5223250000000  0.5403090000000  0.5027070000000 1.0
C      1  0.4758450000000  0.5357080000000  0.4979350000000 1.0
C      1  0.4539260000000  0.5194440000000  0.5100750000000 1.0
C      1  0.4494680000000  0.4904560000000  0.4978010000000 1.0
C      1  0.4934460000000  0.4492270000000  0.4982140000000 1.0
C      1  0.5290850000000  0.4540290000000  0.5115800000000 1.0
C      1  0.5552930000000  0.5005610000000  0.5163250000000 1.0
C      1  0.4623050000000  0.4098890000000  0.4843590000000 1.0
C      1  0.5437780000000  0.3987210000000  0.4766220000000 1.0
C      1  0.5966260000000  0.4699550000000  0.4827380000000 1.0
C      1  0.5803980000000  0.5587580000000  0.4838070000000 1.0
C      1  0.4973020000000  0.5970900000000  0.4902430000000 1.0
C      1  0.4189490000000  0.5622440000000  0.4772290000000 1.0
C      1  0.3981540000000  0.4769690000000  0.4840840000000 1.0
C      1  0.5590580000000  0.5562160000000  0.5304640000000 1.0
C      1  0.5094140000000  0.5807010000000  0.5145680000000 1.0
C      1  0.4323300000000  0.5388500000000  0.5206530000000 1.0
C      1  0.4089980000000  0.4873400000000  0.5300390000000 1.0
C      1  0.4705860000000  0.4274300000000  0.5069330000000 1.0
C      1  0.5447550000000  0.4280400000000  0.5206010000000 1.0
C      1  0.5817730000000  0.4909170000000  0.5274460000000 1.0
C      1  0.4841170000000  0.4360170000000  0.4510870000000 1.0
C      1  0.5467860000000  0.4346870000000  0.4427640000000 1.0
C      1  0.5600810000000  0.4934710000000  0.4567260000000 1.0
C      1  0.5383650000000  0.5468930000000  0.4575740000000 1.0
C      1  0.4827770000000  0.5603040000000  0.4553320000000 1.0
C      1  0.4392460000000  0.5251870000000  0.4483590000000 1.0
C      1  0.4379620000000  0.4691440000000  0.4535020000000 1.0
C      1  0.3953460000000  0.5080780000000  0.5408310000000 1.0
C      1  0.4442260000000  0.4405740000000  0.5101400000000 1.0
C      1  0.5194140000000  0.4109760000000  0.5162560000000 1.0
C      1  0.5801840000000  0.4605210000000  0.5283750000000 1.0
C      1  0.5812370000000  0.5352330000000  0.5265430000000 1.0
C      1  0.5344370000000  0.5984290000000  0.5234470000000 1.0
C      1  0.4483960000000  0.5650810000000  0.5169200000000 1.0
C      1  0.5049780000000  0.4170420000000  0.4558820000000 1.0
C      1  0.5705780000000  0.4444210000000  0.4527860000000 1.0
C      1  0.5749110000000  0.5166770000000  0.4639100000000 1.0
C      1  0.5295520000000  0.5735240000000  0.4632810000000 1.0
C      1  0.4561040000000  0.5697710000000  0.4603630000000 1.0
C      1  0.4160060000000  0.5098370000000  0.4552590000000 1.0
C      1  0.4358230000000  0.4397710000000  0.4615940000000 1.0
C      1  0.4607670000000  0.4835450000000  0.4703640000000 1.0
C      1  0.4877770000000  0.4625100000000  0.4696760000000 1.0
C      1  0.5096850000000  0.4800270000000  0.4578560000000 1.0
C      1  0.5309380000000  0.4958830000000  0.4720190000000 1.0
C      1  0.5201880000000  0.5273800000000  0.4746100000000 1.0
C      1  0.4861090000000  0.5322010000000  0.4702150000000 1.0
C      1  0.4654440000000  0.5119840000000  0.4587740000000 1.0
C      1  0.4613380000000  0.4783260000000  0.5233040000000 1.0
C      1  0.4886590000000  0.4705330000000  0.5170060000000 1.0
C      1  0.5320090000000  0.4715450000000  0.5433350000000 1.0
C      1  0.5376420000000  0.5078310000000  0.5391510000000 1.0
C      1  0.5326110000000  0.5391670000000  0.5333330000000 1.0
C      1  0.4965250000000  0.5394170000000  0.5183940000000 1.0
C      1  0.4671040000000  0.5053760000000  0.5401790000000 1.0
C      1  0.5591380000000  0.4843720000000  0.5690220000000 1.0
C      1  0.5626460000000  0.5445980000000  0.5728590000000 1.0
C      1  0.5127170000000  0.5698930000000  0.5579070000000 1.0
C      1  0.4612510000000  0.5436880000000  0.5605330000000 1.0
C      1  0.4395710000000  0.4922000000000  0.5641660000000 1.0
C      1  0.4619020000000  0.4369260000000  0.5553530000000 1.0
C      1  0.5196000000000  0.4358540000000  0.5579770000000 1.0
C      1  0.4432870000000  0.5242990000000  0.4191360000000 1.0
C      1  0.4438260000000  0.4724120000000  0.4237300000000 1.0
C      1  0.4842430000000  0.4411510000000  0.4221710000000 1.0
C      1  0.5360380000000  0.4478550000000  0.4195140000000 1.0
C      1  0.5563730000000  0.4948320000000  0.4270710000000 1.0
C      1  0.5349500000000  0.5417400000000  0.4285530000000 1.0
C      1  0.4854190000000  0.5549830000000  0.4258300000000 1.0
C      1  0.5471710000000  0.5192840000000  0.4182170000000 1.0
C      1  0.5112730000000  0.5504480000000  0.4175750000000 1.0
C      1  0.4652030000000  0.5405530000000  0.4130010000000 1.0
C      1  0.4423350000000  0.4974990000000  0.4116550000000 1.0
C      1  0.4627290000000  0.4555270000000  0.4129510000000 1.0
C      1  0.5097440000000  0.4434470000000  0.4114460000000 1.0
C      1  0.5483030000000  0.4719670000000  0.4135560000000 1.0
C      1  0.4987640000000  0.4971400000000  0.4076850000000 1.0
C      1  0.4947410000000  0.5013650000000  0.3826510000000 1.0
C      1  0.5336700000000  0.4854730000000  0.5010110000000 1.0
C      1  0.5062820000000  0.4919390000000  0.5135540000000 1.0
C      1  0.4862140000000  0.5020420000000  0.5801460000000 1.0
C      1  0.4988790000000  0.5126030000000  0.5335970000000 1.0
C      1  0.5024150000000  0.4913300000000  0.4336060000000 1.0
C      1  0.5110060000000  0.4868990000000  0.5788150000000 1.0
END
