TITL C-3578206-1180-485 -1.31752152421598e-06 125000 -738.561238331047 0 0 121 (C1) n - 1
REM
REM in /home/bkarasulu/work/CARBON/AIRSS/Generating-Clusters/EDIP-Nigel-Params/with-SteepDescent/Higher-Symm/SD-CG/HFTN-CG
REM
REM
REM
REM
REM
REM ./C.cell (12c818d87b63d06a65506943cc24bca4)
REM
REM compiler GCC version 9.2.1 20190827 (Red Hat 9.2.1-1)
REM options -cpp -mtune=generic -march=x86-64 -g -O0 -fpre-include=/usr/include/finclude/math-vector-fortran.h
REM seed -2007413869 -300371730 358521461 1928660391 1736935889 1896054596 209836551 455472335 134287455 100594019 -635385885 1225792343 -1595817383 -1348730541 129150831 -1460707630 820101053 -1016458588 -537752214 -916171866 907785737 1252956671 -2008810151 -280309818 1327695077 -1656282321 -895698683 785168834 -1486824007 -1760154246 -1812730484 -115147785 -1483937762
REM
CELL 1.54180   50.00000   50.00000   50.00000   90.00000   90.00000   90.00000
LATT -1
SFAC C  
C      1  0.5082960000000  0.5912130000000  0.4704450000000 1.0
C      1  0.5886360000000  0.5206450000000  0.4710010000000 1.0
C      1  0.5527350000000  0.4271710000000  0.4677310000000 1.0
C      1  0.4399630000000  0.4276380000000  0.4699780000000 1.0
C      1  0.4130000000000  0.5390460000000  0.4695530000000 1.0
C      1  0.4686820000000  0.5797310000000  0.5655910000000 1.0
C      1  0.5651530000000  0.5560870000000  0.5678510000000 1.0
C      1  0.5719540000000  0.4530150000000  0.5689150000000 1.0
C      1  0.4806640000000  0.4175070000000  0.5617740000000 1.0
C      1  0.4141840000000  0.4931540000000  0.5635390000000 1.0
C      1  0.5617580000000  0.5509650000000  0.5398670000000 1.0
C      1  0.5699400000000  0.4581950000000  0.5407620000000 1.0
C      1  0.4823370000000  0.4251920000000  0.5340470000000 1.0
C      1  0.4206120000000  0.4951980000000  0.5355960000000 1.0
C      1  0.4713640000000  0.5739180000000  0.5374670000000 1.0
C      1  0.4743440000000  0.4999510000000  0.6029980000000 1.0
C      1  0.4915120000000  0.5231740000000  0.6044410000000 1.0
C      1  0.5189170000000  0.5139830000000  0.6051960000000 1.0
C      1  0.5185320000000  0.4850910000000  0.6044040000000 1.0
C      1  0.4910140000000  0.4763700000000  0.6032020000000 1.0
C      1  0.4664970000000  0.4715230000000  0.5509990000000 1.0
C      1  0.4617180000000  0.5238120000000  0.5526040000000 1.0
C      1  0.5105350000000  0.5434950000000  0.5542480000000 1.0
C      1  0.5464060000000  0.5041470000000  0.5546940000000 1.0
C      1  0.5184760000000  0.4596210000000  0.5528600000000 1.0
C      1  0.5383100000000  0.5300970000000  0.4159390000000 1.0
C      1  0.5531130000000  0.4635110000000  0.4016170000000 1.0
C      1  0.4830250000000  0.4349290000000  0.4093390000000 1.0
C      1  0.4333580000000  0.4907110000000  0.4156180000000 1.0
C      1  0.4707890000000  0.5541530000000  0.4172340000000 1.0
C      1  0.4763420000000  0.4906630000000  0.4866870000000 1.0
C      1  0.4812500000000  0.5177560000000  0.4939930000000 1.0
C      1  0.5096240000000  0.5195330000000  0.5007720000000 1.0
C      1  0.5217650000000  0.4913720000000  0.5041200000000 1.0
C      1  0.5033910000000  0.4798010000000  0.4806380000000 1.0
C      1  0.4655060000000  0.5663740000000  0.5899750000000 1.0
C      1  0.5517810000000  0.5531110000000  0.5921430000000 1.0
C      1  0.5656730000000  0.4661950000000  0.5926840000000 1.0
C      1  0.4881670000000  0.4262030000000  0.5871880000000 1.0
C      1  0.4260030000000  0.4868870000000  0.5879330000000 1.0
C      1  0.4434820000000  0.5360510000000  0.5333190000000 1.0
C      1  0.5163950000000  0.5649150000000  0.5350480000000 1.0
C      1  0.5727340000000  0.5064450000000  0.5407660000000 1.0
C      1  0.5267710000000  0.4411190000000  0.5316730000000 1.0
C      1  0.4511240000000  0.4586720000000  0.5296170000000 1.0
C      1  0.5393300000000  0.4770560000000  0.5664450000000 1.0
C      1  0.4901740000000  0.4572630000000  0.5635370000000 1.0
C      1  0.4549560000000  0.4965080000000  0.5635850000000 1.0
C      1  0.4825210000000  0.5415140000000  0.5654640000000 1.0
C      1  0.5341890000000  0.5291680000000  0.5667830000000 1.0
C      1  0.5063460000000  0.4271110000000  0.5169640000000 1.0
C      1  0.4290990000000  0.4730030000000  0.5178330000000 1.0
C      1  0.4519600000000  0.5601100000000  0.5200700000000 1.0
C      1  0.5421070000000  0.5639890000000  0.5223840000000 1.0
C      1  0.5820440000000  0.4816650000000  0.5279750000000 1.0
C      1  0.5784740000000  0.5317940000000  0.5259350000000 1.0
C      1  0.5541260000000  0.4413450000000  0.5224350000000 1.0
C      1  0.4584200000000  0.4324800000000  0.5195850000000 1.0
C      1  0.4213390000000  0.5211100000000  0.5223900000000 1.0
C      1  0.4953240000000  0.5811080000000  0.5230860000000 1.0
C      1  0.4648560000000  0.4649780000000  0.4491360000000 1.0
C      1  0.4552250000000  0.5182820000000  0.4531250000000 1.0
C      1  0.5034470000000  0.5434130000000  0.4557470000000 1.0
C      1  0.5405140000000  0.5088010000000  0.4669130000000 1.0
C      1  0.5185550000000  0.4591560000000  0.4436680000000 1.0
C      1  0.4161350000000  0.5037780000000  0.4337880000000 1.0
C      1  0.4779170000000  0.5755110000000  0.4342010000000 1.0
C      1  0.5602980000000  0.5329180000000  0.4325030000000 1.0
C      1  0.5630200000000  0.4515700000000  0.4248380000000 1.0
C      1  0.4665750000000  0.4232780000000  0.4287730000000 1.0
C      1  0.5278620000000  0.4103120000000  0.4735340000000 1.0
C      1  0.4190150000000  0.4467190000000  0.4785520000000 1.0
C      1  0.4285890000000  0.5650950000000  0.4759240000000 1.0
C      1  0.5376690000000  0.5857150000000  0.4782960000000 1.0
C      1  0.5981420000000  0.4939880000000  0.4821900000000 1.0
C      1  0.5455290000000  0.4462330000000  0.4458520000000 1.0
C      1  0.4509320000000  0.4392750000000  0.4452860000000 1.0
C      1  0.4272550000000  0.5259330000000  0.4471020000000 1.0
C      1  0.5016860000000  0.5722750000000  0.4487480000000 1.0
C      1  0.5656340000000  0.5151360000000  0.4524990000000 1.0
C      1  0.4918870000000  0.5832220000000  0.4943100000000 1.0
C      1  0.5776210000000  0.5343420000000  0.4962250000000 1.0
C      1  0.5588240000000  0.4420690000000  0.4935430000000 1.0
C      1  0.4608890000000  0.4278760000000  0.4911920000000 1.0
C      1  0.4171000000000  0.5211070000000  0.4938430000000 1.0
C      1  0.4948080000000  0.5426590000000  0.4062600000000 1.0
C      1  0.5421190000000  0.5127210000000  0.3941810000000 1.0
C      1  0.5283640000000  0.4510510000000  0.3934660000000 1.0
C      1  0.4716580000000  0.4599970000000  0.4002530000000 1.0
C      1  0.4502720000000  0.5106530000000  0.4038300000000 1.0
C      1  0.5409150000000  0.4679560000000  0.6055760000000 1.0
C      1  0.4813280000000  0.4496510000000  0.6012140000000 1.0
C      1  0.4460000000000  0.5008510000000  0.6018270000000 1.0
C      1  0.4833920000000  0.5503330000000  0.6045270000000 1.0
C      1  0.5425930000000  0.5298780000000  0.6052210000000 1.0
C      1  0.5413080000000  0.5586870000000  0.4921250000000 1.0
C      1  0.5751730000000  0.4823340000000  0.4989010000000 1.0
C      1  0.5051060000000  0.4270820000000  0.4855880000000 1.0
C      1  0.4276100000000  0.4734540000000  0.4870360000000 1.0
C      1  0.4554970000000  0.5590020000000  0.4890350000000 1.0
C      1  0.5845880000000  0.4441940000000  0.4812850000000 1.0
C      1  0.4682610000000  0.4028140000000  0.4806310000000 1.0
C      1  0.3952210000000  0.5074380000000  0.4821620000000 1.0
C      1  0.4718160000000  0.5986590000000  0.4811320000000 1.0
C      1  0.5830540000000  0.5577930000000  0.4804030000000 1.0
C      1  0.4725910000000  0.5362060000000  0.4724520000000 1.0
C      1  0.5244030000000  0.5343810000000  0.4782900000000 1.0
C      1  0.5483810000000  0.4956280000000  0.4923570000000 1.0
C      1  0.4975520000000  0.4519900000000  0.4661980000000 1.0
C      1  0.4536330000000  0.4861150000000  0.4685220000000 1.0
C      1  0.5644200000000  0.5763340000000  0.4682460000000 1.0
C      1  0.5955670000000  0.4678210000000  0.4693260000000 1.0
C      1  0.4959010000000  0.3993910000000  0.4737130000000 1.0
C      1  0.4009320000000  0.4804000000000  0.4771190000000 1.0
C      1  0.4465700000000  0.5892500000000  0.4700850000000 1.0
C      1  0.5368580000000  0.4873940000000  0.4039640000000 1.0
C      1  0.5074790000000  0.4546140000000  0.4139710000000 1.0
C      1  0.4631410000000  0.4784470000000  0.4212450000000 1.0
C      1  0.4677770000000  0.5219350000000  0.4244890000000 1.0
C      1  0.5109460000000  0.5316540000000  0.4272040000000 1.0
C      1  0.5192880000000  0.4897980000000  0.4538360000000 1.0
END
