TITL C-3578201-9217-270 -1.05714834811643e-06 125000 -344.930665586734 0 0 57 (C1) n - 1
REM
REM in /home/bkarasulu/work/CARBON/AIRSS/Generating-Clusters/EDIP-Nigel-Params/with-SteepDescent/Higher-Symm/SD-CG/HFTN-CG
REM
REM
REM
REM
REM
REM ./C.cell (12c818d87b63d06a65506943cc24bca4)
REM
REM compiler GCC version 9.2.1 20190827 (Red Hat 9.2.1-1)
REM options -cpp -mtune=generic -march=x86-64 -g -O0 -fpre-include=/usr/include/finclude/math-vector-fortran.h
REM seed -1952902352 1495747145 -237766502 -2081628022 632645266 -1698727376 751846908 -2064924755 -942211949 1149997347 -584027684 1624167518 225095310 -371862797 1696051493 -1705411775 354840853 -303080731 2123762376 -1212111715 -487592072 -141758792 -619331127 1484898356 759587787 1476641323 -881182892 -835676942 -543680651 -1594648788 -1416702093 1643919086 1743143044
REM
CELL 1.54180   50.00000   50.00000   50.00000   90.00000   90.00000   90.00000
LATT -1
SFAC C  
C      1  0.5386640000000  0.4705440000000  0.5541460000000 1.0
C      1  0.4633900000000  0.5282240000000  0.4469480000000 1.0
C      1  0.5191810000000  0.4529170000000  0.5721700000000 1.0
C      1  0.4843130000000  0.5442330000000  0.4288500000000 1.0
C      1  0.4885180000000  0.4399420000000  0.5310270000000 1.0
C      1  0.5155020000000  0.5565450000000  0.4716540000000 1.0
C      1  0.4496790000000  0.5144340000000  0.5298110000000 1.0
C      1  0.5491190000000  0.4886750000000  0.4732750000000 1.0
C      1  0.5368670000000  0.4454860000000  0.5333290000000 1.0
C      1  0.4666920000000  0.5526670000000  0.4672820000000 1.0
C      1  0.4344780000000  0.4434230000000  0.4700060000000 1.0
C      1  0.5621050000000  0.5534230000000  0.5239640000000 1.0
C      1  0.4325240000000  0.5114730000000  0.4859900000000 1.0
C      1  0.5704510000000  0.4874640000000  0.5155560000000 1.0
C      1  0.4706900000000  0.4214990000000  0.4896430000000 1.0
C      1  0.5326340000000  0.5751150000000  0.5108670000000 1.0
C      1  0.4903340000000  0.5150220000000  0.4847270000000 1.0
C      1  0.5149990000000  0.4860680000000  0.5165490000000 1.0
C      1  0.4616670000000  0.4473890000000  0.4803240000000 1.0
C      1  0.5350000000000  0.5453280000000  0.5147750000000 1.0
C      1  0.4935190000000  0.4282580000000  0.5046800000000 1.0
C      1  0.5082430000000  0.5737670000000  0.4955590000000 1.0
C      1  0.4428930000000  0.4664870000000  0.5411630000000 1.0
C      1  0.5570850000000  0.5350270000000  0.4632150000000 1.0
C      1  0.4800170000000  0.4560860000000  0.4586060000000 1.0
C      1  0.5175970000000  0.5395230000000  0.5376070000000 1.0
C      1  0.4272460000000  0.4835380000000  0.4930580000000 1.0
C      1  0.5803190000000  0.5145420000000  0.5079450000000 1.0
C      1  0.4924280000000  0.5610690000000  0.4517180000000 1.0
C      1  0.5116370000000  0.4360040000000  0.5492070000000 1.0
C      1  0.4600390000000  0.4898830000000  0.5375580000000 1.0
C      1  0.5377280000000  0.5133110000000  0.4659140000000 1.0
C      1  0.5773910000000  0.5306460000000  0.5323090000000 1.0
C      1  0.4244870000000  0.4692110000000  0.4684640000000 1.0
C      1  0.4723020000000  0.5391980000000  0.4933020000000 1.0
C      1  0.5298850000000  0.4604370000000  0.5080010000000 1.0
C      1  0.4820340000000  0.5069150000000  0.4565140000000 1.0
C      1  0.5185640000000  0.4911030000000  0.5453750000000 1.0
C      1  0.5184240000000  0.5279610000000  0.4839430000000 1.0
C      1  0.4662780000000  0.4685240000000  0.5062110000000 1.0
C      1  0.5266520000000  0.5175390000000  0.5538910000000 1.0
C      1  0.4714540000000  0.4813320000000  0.4477670000000 1.0
C      1  0.4921920000000  0.5512820000000  0.5379250000000 1.0
C      1  0.5071160000000  0.4514570000000  0.4639370000000 1.0
C      1  0.4260250000000  0.4697490000000  0.5180000000000 1.0
C      1  0.5758730000000  0.5282660000000  0.4832980000000 1.0
C      1  0.4472040000000  0.5278960000000  0.5053560000000 1.0
C      1  0.5545380000000  0.4723590000000  0.4954390000000 1.0
C      1  0.5142870000000  0.4424870000000  0.4895750000000 1.0
C      1  0.4873030000000  0.5585350000000  0.5110380000000 1.0
C      1  0.5430760000000  0.5600570000000  0.4617360000000 1.0
C      1  0.4608930000000  0.4437340000000  0.5384100000000 1.0
C      1  0.5653150000000  0.4856160000000  0.5454630000000 1.0
C      1  0.4358660000000  0.5145570000000  0.4560460000000 1.0
C      1  0.5641070000000  0.5140310000000  0.5529020000000 1.0
C      1  0.4342730000000  0.4864480000000  0.4470320000000 1.0
C      1  0.4888830000000  0.4916620000000  0.5042890000000 1.0
END
