TITL C-3577083-591-91 9.81754995528322e-07 125000 -945.864065436885 0 0 148 (C1) n - 1
REM
REM in /home/bkarasulu/work/CARBON/AIRSS/Generating-Clusters/EDIP-Nigel-Params/with-SteepDescent/Higher-Symm/SD-CG/HFTN-CG
REM
REM
REM
REM
REM
REM ./C.cell (12c818d87b63d06a65506943cc24bca4)
REM
REM compiler GCC version 9.2.1 20190827 (Red Hat 9.2.1-1)
REM options -cpp -mtune=generic -march=x86-64 -g -O0 -fpre-include=/usr/include/finclude/math-vector-fortran.h
REM seed -1710992300 -167536982 -2031021013 2071725856 1576326538 1691331936 -1804729994 667674333 -1484652662 -1808610574 1381328795 1801775363 -1315736980 -494610414 -706482618 -1835727273 -1235216496 -179586617 -182697806 -231755546 34693638 -1689377230 1742155008 -1220550741 816441202 -1031096431 1378140791 1520328821 -2081269705 -1186383010 -1140346234 -184499058 87579067
REM
CELL 1.54180   50.00000   50.00000   50.00000   90.00000   90.00000   90.00000
LATT -1
SFAC C  
C      1  0.4738280000000  0.5826050000000  0.5632590000000 1.0
C      1  0.5871120000000  0.4814520000000  0.5638890000000 1.0
C      1  0.4404400000000  0.4325550000000  0.5629570000000 1.0
C      1  0.5267910000000  0.4510670000000  0.5426040000000 1.0
C      1  0.4408310000000  0.5012600000000  0.5420710000000 1.0
C      1  0.5360200000000  0.5473490000000  0.5474300000000 1.0
C      1  0.4575540000000  0.5512670000000  0.4551350000000 1.0
C      1  0.5708170000000  0.5064660000000  0.4565130000000 1.0
C      1  0.4706520000000  0.4442410000000  0.4564450000000 1.0
C      1  0.4613640000000  0.5879330000000  0.5371000000000 1.0
C      1  0.6004480000000  0.4880080000000  0.5385340000000 1.0
C      1  0.4390540000000  0.4203300000000  0.5365610000000 1.0
C      1  0.4346330000000  0.4444540000000  0.4811310000000 1.0
C      1  0.4748070000000  0.5868420000000  0.4720260000000 1.0
C      1  0.5807240000000  0.4738880000000  0.4827840000000 1.0
C      1  0.3912930000000  0.4604980000000  0.4910510000000 1.0
C      1  0.5203370000000  0.6014950000000  0.4865110000000 1.0
C      1  0.5846220000000  0.4274660000000  0.4900980000000 1.0
C      1  0.5521860000000  0.5257340000000  0.5316480000000 1.0
C      1  0.4999860000000  0.4479990000000  0.5277070000000 1.0
C      1  0.4487400000000  0.5220030000000  0.5223450000000 1.0
C      1  0.4269610000000  0.5526760000000  0.5458370000000 1.0
C      1  0.5908890000000  0.5376190000000  0.5466400000000 1.0
C      1  0.4875600000000  0.4085930000000  0.5415770000000 1.0
C      1  0.4509150000000  0.4853470000000  0.5869030000000 1.0
C      1  0.5103340000000  0.5501060000000  0.5897930000000 1.0
C      1  0.5379260000000  0.4666510000000  0.5879470000000 1.0
C      1  0.4890950000000  0.4942350000000  0.5137750000000 1.0
C      1  0.4772060000000  0.5216510000000  0.5195440000000 1.0
C      1  0.5176530000000  0.5004950000000  0.5119480000000 1.0
C      1  0.5711500000000  0.5986640000000  0.4700300000000 1.0
C      1  0.5491950000000  0.3896130000000  0.4683590000000 1.0
C      1  0.3728320000000  0.5113560000000  0.4741270000000 1.0
C      1  0.4240620000000  0.4611490000000  0.5428580000000 1.0
C      1  0.5058700000000  0.5843450000000  0.5418300000000 1.0
C      1  0.5719840000000  0.4532420000000  0.5421420000000 1.0
C      1  0.4833440000000  0.4731060000000  0.5355170000000 1.0
C      1  0.4883360000000  0.5338680000000  0.5430190000000 1.0
C      1  0.5349740000000  0.5010050000000  0.5363040000000 1.0
C      1  0.4408340000000  0.4756320000000  0.4389710000000 1.0
C      1  0.4949100000000  0.5583530000000  0.4326280000000 1.0
C      1  0.5645130000000  0.4654940000000  0.4307840000000 1.0
C      1  0.5155240000000  0.5371150000000  0.4369710000000 1.0
C      1  0.5246610000000  0.4911690000000  0.4503910000000 1.0
C      1  0.4814560000000  0.5020510000000  0.4418180000000 1.0
C      1  0.5693350000000  0.5944870000000  0.4977450000000 1.0
C      1  0.5462020000000  0.3960100000000  0.4956100000000 1.0
C      1  0.3819600000000  0.5099310000000  0.5007400000000 1.0
C      1  0.5091120000000  0.5537010000000  0.5349170000000 1.0
C      1  0.5487780000000  0.4715650000000  0.5304830000000 1.0
C      1  0.4501280000000  0.4725400000000  0.5302310000000 1.0
C      1  0.4662990000000  0.4399490000000  0.5735410000000 1.0
C      1  0.4633830000000  0.5620220000000  0.5808580000000 1.0
C      1  0.5706040000000  0.5013510000000  0.5762230000000 1.0
C      1  0.4276870000000  0.4933830000000  0.4946240000000 1.0
C      1  0.5343760000000  0.5588470000000  0.4935250000000 1.0
C      1  0.5379300000000  0.4448800000000  0.4940110000000 1.0
C      1  0.4963080000000  0.5804410000000  0.4517380000000 1.0
C      1  0.5748660000000  0.4581050000000  0.4568690000000 1.0
C      1  0.4232380000000  0.4586800000000  0.4558460000000 1.0
C      1  0.5842620000000  0.5471790000000  0.4928170000000 1.0
C      1  0.4997890000000  0.4118090000000  0.4885690000000 1.0
C      1  0.4164500000000  0.5441640000000  0.4909970000000 1.0
C      1  0.4708730000000  0.4070160000000  0.4963940000000 1.0
C      1  0.4306470000000  0.5698360000000  0.4990490000000 1.0
C      1  0.6018550000000  0.5242730000000  0.5013970000000 1.0
C      1  0.4639180000000  0.4597130000000  0.4321540000000 1.0
C      1  0.4687500000000  0.5468820000000  0.4282840000000 1.0
C      1  0.5635530000000  0.4950410000000  0.4294800000000 1.0
C      1  0.5718800000000  0.5277190000000  0.5653410000000 1.0
C      1  0.4890440000000  0.4293410000000  0.5601410000000 1.0
C      1  0.4388680000000  0.5517750000000  0.5711810000000 1.0
C      1  0.5435450000000  0.4936800000000  0.5849530000000 1.0
C      1  0.4718160000000  0.4672690000000  0.5830090000000 1.0
C      1  0.4837910000000  0.5412310000000  0.5888110000000 1.0
C      1  0.5400680000000  0.4521460000000  0.4196260000000 1.0
C      1  0.4379960000000  0.5047050000000  0.4313210000000 1.0
C      1  0.5205720000000  0.5225510000000  0.4108440000000 1.0
C      1  0.5613280000000  0.4252720000000  0.5335980000000 1.0
C      1  0.4022190000000  0.4812690000000  0.5362680000000 1.0
C      1  0.5351800000000  0.5920890000000  0.5341650000000 1.0
C      1  0.5278930000000  0.4743210000000  0.4041350000000 1.0
C      1  0.4985270000000  0.4802240000000  0.4014880000000 1.0
C      1  0.4943080000000  0.5105290000000  0.3998660000000 1.0
C      1  0.5182870000000  0.3940170000000  0.5045580000000 1.0
C      1  0.3949710000000  0.5348410000000  0.5103300000000 1.0
C      1  0.5871120000000  0.5729850000000  0.5085080000000 1.0
C      1  0.5561960000000  0.5368800000000  0.4999700000000 1.0
C      1  0.5073930000000  0.4412390000000  0.4964620000000 1.0
C      1  0.4373910000000  0.5220140000000  0.4953630000000 1.0
C      1  0.5179820000000  0.4615820000000  0.5687900000000 1.0
C      1  0.4558800000000  0.5055430000000  0.5678930000000 1.0
C      1  0.5289760000000  0.5361660000000  0.5739920000000 1.0
C      1  0.5573300000000  0.4231990000000  0.5036800000000 1.0
C      1  0.4003690000000  0.4862960000000  0.5061850000000 1.0
C      1  0.5407750000000  0.5881590000000  0.5046070000000 1.0
C      1  0.5758130000000  0.4297290000000  0.4617170000000 1.0
C      1  0.3969350000000  0.4699490000000  0.4628600000000 1.0
C      1  0.5237250000000  0.5871140000000  0.4614050000000 1.0
C      1  0.5871510000000  0.5506490000000  0.4620220000000 1.0
C      1  0.5029500000000  0.4104770000000  0.4579760000000 1.0
C      1  0.4112040000000  0.5443220000000  0.4601470000000 1.0
C      1  0.5487820000000  0.5184210000000  0.4756300000000 1.0
C      1  0.4921610000000  0.4586260000000  0.4744820000000 1.0
C      1  0.4613430000000  0.5280940000000  0.4766060000000 1.0
C      1  0.5351020000000  0.4977730000000  0.4215390000000 1.0
C      1  0.4884100000000  0.4751270000000  0.4294590000000 1.0
C      1  0.4676330000000  0.5183860000000  0.4195960000000 1.0
C      1  0.5526370000000  0.5724830000000  0.5482720000000 1.0
C      1  0.5378620000000  0.4151200000000  0.5471110000000 1.0
C      1  0.4040380000000  0.5061160000000  0.5510680000000 1.0
C      1  0.4856280000000  0.5963410000000  0.5225850000000 1.0
C      1  0.5978860000000  0.4596000000000  0.5268280000000 1.0
C      1  0.4144590000000  0.4295430000000  0.5236300000000 1.0
C      1  0.4850330000000  0.5363900000000  0.4951340000000 1.0
C      1  0.5330820000000  0.4935560000000  0.4880240000000 1.0
C      1  0.4751280000000  0.4818740000000  0.4873090000000 1.0
C      1  0.4430680000000  0.5821560000000  0.4740980000000 1.0
C      1  0.6025600000000  0.5048140000000  0.4792950000000 1.0
C      1  0.4528070000000  0.4149330000000  0.4745540000000 1.0
C      1  0.4098600000000  0.4371330000000  0.4962010000000 1.0
C      1  0.4912590000000  0.5990230000000  0.4936110000000 1.0
C      1  0.5975690000000  0.4540010000000  0.4974770000000 1.0
C      1  0.5101240000000  0.4640890000000  0.4490730000000 1.0
C      1  0.4655710000000  0.5009280000000  0.4658590000000 1.0
C      1  0.5377220000000  0.5450320000000  0.4585680000000 1.0
C      1  0.5510150000000  0.4713940000000  0.4984560000000 1.0
C      1  0.4477640000000  0.4715070000000  0.4986020000000 1.0
C      1  0.5090390000000  0.5507450000000  0.5056180000000 1.0
C      1  0.4404050000000  0.5701180000000  0.5265080000000 1.0
C      1  0.5948640000000  0.5153680000000  0.5275820000000 1.0
C      1  0.4648790000000  0.4131280000000  0.5237660000000 1.0
C      1  0.4304870000000  0.5642780000000  0.4509000000000 1.0
C      1  0.5959310000000  0.5231700000000  0.4546220000000 1.0
C      1  0.4753020000000  0.4155150000000  0.4496390000000 1.0
C      1  0.5231670000000  0.5068800000000  0.5671830000000 1.0
C      1  0.4929780000000  0.4790880000000  0.5653230000000 1.0
C      1  0.4836770000000  0.5191550000000  0.5683850000000 1.0
C      1  0.4080100000000  0.5313510000000  0.5368810000000 1.0
C      1  0.5807360000000  0.5654970000000  0.5370360000000 1.0
C      1  0.5152460000000  0.4032150000000  0.5322730000000 1.0
C      1  0.5509070000000  0.4146940000000  0.4556120000000 1.0
C      1  0.3935690000000  0.4993260000000  0.4592060000000 1.0
C      1  0.5527200000000  0.5862650000000  0.4524490000000 1.0
C      1  0.4142700000000  0.5169070000000  0.4469260000000 1.0
C      1  0.5618280000000  0.5586150000000  0.4467700000000 1.0
C      1  0.5252870000000  0.4282980000000  0.4453870000000 1.0
C      1  0.5056680000000  0.5137800000000  0.4518580000000 1.0
END
