TITL C-3578206-1180-32 -1.49020482032306e-06 125000 -982.145947224081 0 0 157 (C1) n - 1
REM
REM in /home/bkarasulu/work/CARBON/AIRSS/Generating-Clusters/EDIP-Nigel-Params/with-SteepDescent/Higher-Symm/SD-CG/HFTN-CG
REM
REM
REM
REM
REM
REM ./C.cell (12c818d87b63d06a65506943cc24bca4)
REM
REM compiler GCC version 9.2.1 20190827 (Red Hat 9.2.1-1)
REM options -cpp -mtune=generic -march=x86-64 -g -O0 -fpre-include=/usr/include/finclude/math-vector-fortran.h
REM seed -1012538229 -1908009321 345798672 -1463003965 2020926019 -2071150689 -1244857135 1406005180 901069098 1326315407 -715306193 1262098855 -1312719901 -2114632231 -1103647338 -204697770 1162643964 855281 -1507657447 1903289899 -1617416995 2015147590 392301674 -931362464 2072649497 1548971295 1649709134 -1943091623 1999196210 -1909660240 1759170781 -1360454365 394897598
REM
CELL 1.54180   50.00000   50.00000   50.00000   90.00000   90.00000   90.00000
LATT -1
SFAC C  
C      1  0.5287220000000  0.5568000000000  0.5073820000000 1.0
C      1  0.4925840000000  0.5502600000000  0.5395250000000 1.0
C      1  0.4711640000000  0.5563550000000  0.4925790000000 1.0
C      1  0.5074860000000  0.5500610000000  0.4603190000000 1.0
C      1  0.4945130000000  0.5361270000000  0.4025700000000 1.0
C      1  0.6043190000000  0.5374680000000  0.4928780000000 1.0
C      1  0.5052930000000  0.5361260000000  0.5972810000000 1.0
C      1  0.3954930000000  0.5373620000000  0.5070570000000 1.0
C      1  0.4674690000000  0.5979790000000  0.5132930000000 1.0
C      1  0.4877280000000  0.5972680000000  0.4680140000000 1.0
C      1  0.5324010000000  0.5982060000000  0.4864850000000 1.0
C      1  0.5121320000000  0.5976490000000  0.5318120000000 1.0
C      1  0.6130810000000  0.5260640000000  0.5173520000000 1.0
C      1  0.4825200000000  0.5187560000000  0.6019570000000 1.0
C      1  0.3866280000000  0.5260110000000  0.4825850000000 1.0
C      1  0.5173570000000  0.5188830000000  0.3976090000000 1.0
C      1  0.4740100000000  0.4955800000000  0.4922270000000 1.0
C      1  0.5110300000000  0.4982480000000  0.4797940000000 1.0
C      1  0.5246430000000  0.4960530000000  0.5077550000000 1.0
C      1  0.4905200000000  0.4979460000000  0.5190340000000 1.0
C      1  0.4080960000000  0.4730380000000  0.4568880000000 1.0
C      1  0.5498270000000  0.4714830000000  0.4069710000000 1.0
C      1  0.5913030000000  0.4732360000000  0.5429340000000 1.0
C      1  0.4498170000000  0.4714650000000  0.5928090000000 1.0
C      1  0.4774850000000  0.5095780000000  0.4340590000000 1.0
C      1  0.5729390000000  0.5050370000000  0.4796860000000 1.0
C      1  0.5223840000000  0.5096900000000  0.5657250000000 1.0
C      1  0.4267390000000  0.5047570000000  0.5202730000000 1.0
C      1  0.4511480000000  0.5142650000000  0.4826380000000 1.0
C      1  0.5210230000000  0.5208890000000  0.4608970000000 1.0
C      1  0.5482330000000  0.5146640000000  0.5172150000000 1.0
C      1  0.4796810000000  0.5208760000000  0.5384230000000 1.0
C      1  0.5204700000000  0.5475270000000  0.5329780000000 1.0
C      1  0.4481180000000  0.5391890000000  0.5020500000000 1.0
C      1  0.4796250000000  0.5469550000000  0.4671280000000 1.0
C      1  0.5516960000000  0.5396140000000  0.4977890000000 1.0
C      1  0.4305260000000  0.4756990000000  0.5261400000000 1.0
C      1  0.4751360000000  0.4798110000000  0.4347580000000 1.0
C      1  0.5686880000000  0.4760750000000  0.4737550000000 1.0
C      1  0.5247140000000  0.4798860000000  0.5649350000000 1.0
C      1  0.4088970000000  0.5256990000000  0.5561120000000 1.0
C      1  0.4405800000000  0.5295790000000  0.4133090000000 1.0
C      1  0.5909190000000  0.5256940000000  0.4437200000000 1.0
C      1  0.5591930000000  0.5297170000000  0.5866810000000 1.0
C      1  0.4147150000000  0.5014070000000  0.5722600000000 1.0
C      1  0.4255300000000  0.5046510000000  0.4196930000000 1.0
C      1  0.5849820000000  0.5014120000000  0.4275760000000 1.0
C      1  0.5742000000000  0.5047710000000  0.5802550000000 1.0
C      1  0.4328400000000  0.4821140000000  0.4031450000000 1.0
C      1  0.6015040000000  0.4781660000000  0.4325930000000 1.0
C      1  0.5668130000000  0.4821950000000  0.5967390000000 1.0
C      1  0.3981420000000  0.4781810000000  0.5672170000000 1.0
C      1  0.4397650000000  0.4987860000000  0.5872140000000 1.0
C      1  0.4088220000000  0.5012920000000  0.4440630000000 1.0
C      1  0.5600220000000  0.4988140000000  0.4124520000000 1.0
C      1  0.5907080000000  0.5014130000000  0.5557610000000 1.0
C      1  0.5945220000000  0.4639070000000  0.4678300000000 1.0
C      1  0.5302700000000  0.4702650000000  0.5921050000000 1.0
C      1  0.4046600000000  0.4635740000000  0.5320050000000 1.0
C      1  0.4694110000000  0.4702180000000  0.4076210000000 1.0
C      1  0.5061420000000  0.4459780000000  0.4786310000000 1.0
C      1  0.5210820000000  0.4449710000000  0.5058680000000 1.0
C      1  0.4934360000000  0.4458490000000  0.5211000000000 1.0
C      1  0.4783770000000  0.4449020000000  0.4939580000000 1.0
C      1  0.5270670000000  0.5665620000000  0.4247830000000 1.0
C      1  0.5811660000000  0.5693600000000  0.5242700000000 1.0
C      1  0.4727750000000  0.5665680000000  0.5750140000000 1.0
C      1  0.4186830000000  0.5691350000000  0.4757150000000 1.0
C      1  0.5830070000000  0.5499080000000  0.5466780000000 1.0
C      1  0.4514100000000  0.5463620000000  0.5754450000000 1.0
C      1  0.4167390000000  0.5497690000000  0.4532430000000 1.0
C      1  0.5484700000000  0.5464210000000  0.4242940000000 1.0
C      1  0.4594460000000  0.4178910000000  0.4639410000000 1.0
C      1  0.5360850000000  0.4172370000000  0.4589210000000 1.0
C      1  0.5401060000000  0.4179100000000  0.5357840000000 1.0
C      1  0.4634560000000  0.4171950000000  0.5408080000000 1.0
C      1  0.5306710000000  0.5197350000000  0.5931960000000 1.0
C      1  0.4001430000000  0.5165960000000  0.5284650000000 1.0
C      1  0.4691000000000  0.5197040000000  0.4066450000000 1.0
C      1  0.5996260000000  0.5166550000000  0.4714730000000 1.0
C      1  0.5202610000000  0.6249630000000  0.4915200000000 1.0
C      1  0.5078020000000  0.6247190000000  0.5203520000000 1.0
C      1  0.4793450000000  0.6248200000000  0.5080660000000 1.0
C      1  0.4918030000000  0.6244710000000  0.4792480000000 1.0
C      1  0.4479030000000  0.4153520000000  0.5151640000000 1.0
C      1  0.4848260000000  0.4184930000000  0.4478040000000 1.0
C      1  0.5515990000000  0.4154520000000  0.4845780000000 1.0
C      1  0.5147680000000  0.4184600000000  0.5519310000000 1.0
C      1  0.4902770000000  0.5079430000000  0.5658150000000 1.0
C      1  0.4255300000000  0.4958120000000  0.4838030000000 1.0
C      1  0.5096640000000  0.5078600000000  0.4336670000000 1.0
C      1  0.5737000000000  0.4960400000000  0.5160990000000 1.0
C      1  0.5044560000000  0.4743380000000  0.4381140000000 1.0
C      1  0.5645840000000  0.4682920000000  0.5023350000000 1.0
C      1  0.4953890000000  0.4744710000000  0.5613950000000 1.0
C      1  0.4344630000000  0.4679880000000  0.4975510000000 1.0
C      1  0.5667040000000  0.4315300000000  0.5405200000000 1.0
C      1  0.4584580000000  0.4327290000000  0.5660310000000 1.0
C      1  0.4327260000000  0.4313140000000  0.4592280000000 1.0
C      1  0.5412070000000  0.4326010000000  0.4335830000000 1.0
C      1  0.5734590000000  0.4540940000000  0.5578250000000 1.0
C      1  0.4371450000000  0.4501880000000  0.5767050000000 1.0
C      1  0.4260590000000  0.4539620000000  0.4420100000000 1.0
C      1  0.5624740000000  0.4502250000000  0.4230980000000 1.0
C      1  0.4256220000000  0.4321810000000  0.5090520000000 1.0
C      1  0.4915430000000  0.4389220000000  0.4288880000000 1.0
C      1  0.5736100000000  0.4325500000000  0.4907340000000 1.0
C      1  0.5081560000000  0.4390260000000  0.5707190000000 1.0
C      1  0.4095650000000  0.4521950000000  0.5686700000000 1.0
C      1  0.4339210000000  0.4563740000000  0.4146280000000 1.0
C      1  0.5900140000000  0.4522030000000  0.4312330000000 1.0
C      1  0.5657980000000  0.4564420000000  0.5852620000000 1.0
C      1  0.5600010000000  0.5879290000000  0.5254190000000 1.0
C      1  0.4712840000000  0.5902310000000  0.5600400000000 1.0
C      1  0.4399480000000  0.5875520000000  0.4744740000000 1.0
C      1  0.5285650000000  0.5901790000000  0.4398010000000 1.0
C      1  0.5338360000000  0.5853590000000  0.5132650000000 1.0
C      1  0.4845790000000  0.5838210000000  0.5350810000000 1.0
C      1  0.4660970000000  0.5849300000000  0.4866050000000 1.0
C      1  0.5153800000000  0.5836860000000  0.4647900000000 1.0
C      1  0.5431370000000  0.5221270000000  0.4094040000000 1.0
C      1  0.5964040000000  0.5251660000000  0.5398780000000 1.0
C      1  0.4567820000000  0.5220070000000  0.5901730000000 1.0
C      1  0.4031470000000  0.5250900000000  0.4599370000000 1.0
C      1  0.4204260000000  0.5538980000000  0.5013060000000 1.0
C      1  0.5006940000000  0.5554290000000  0.4230760000000 1.0
C      1  0.5794590000000  0.5541620000000  0.4986630000000 1.0
C      1  0.4991610000000  0.5554940000000  0.5768370000000 1.0
C      1  0.5072930000000  0.4170250000000  0.4676780000000 1.0
C      1  0.5315020000000  0.4159320000000  0.5069830000000 1.0
C      1  0.4922660000000  0.4168880000000  0.5320730000000 1.0
C      1  0.4680240000000  0.4158880000000  0.4927540000000 1.0
C      1  0.4492680000000  0.5259460000000  0.5303820000000 1.0
C      1  0.4620630000000  0.5263940000000  0.4558430000000 1.0
C      1  0.5510200000000  0.5264440000000  0.4693520000000 1.0
C      1  0.5378090000000  0.5267050000000  0.5440890000000 1.0
C      1  0.5048420000000  0.4708490000000  0.6072270000000 1.0
C      1  0.3890720000000  0.4632800000000  0.5073320000000 1.0
C      1  0.4948180000000  0.4706870000000  0.3924430000000 1.0
C      1  0.6102280000000  0.4637550000000  0.4924070000000 1.0
C      1  0.4783020000000  0.4620290000000  0.5996170000000 1.0
C      1  0.3957060000000  0.4557850000000  0.4805870000000 1.0
C      1  0.5214220000000  0.4618560000000  0.3998720000000 1.0
C      1  0.6035030000000  0.4561980000000  0.5190940000000 1.0
C      1  0.5176690000000  0.4385090000000  0.4170120000000 1.0
C      1  0.5851680000000  0.4330990000000  0.5172020000000 1.0
C      1  0.4820160000000  0.4387040000000  0.5825160000000 1.0
C      1  0.4141420000000  0.4327210000000  0.4825050000000 1.0
C      1  0.4299480000000  0.5462150000000  0.5562830000000 1.0
C      1  0.4392340000000  0.5485810000000  0.4353280000000 1.0
C      1  0.5701830000000  0.5465370000000  0.4432210000000 1.0
C      1  0.5606620000000  0.5488220000000  0.5647590000000 1.0
C      1  0.4877780000000  0.4721710000000  0.5337930000000 1.0
C      1  0.4623740000000  0.4688340000000  0.4899510000000 1.0
C      1  0.5123310000000  0.4721640000000  0.4656500000000 1.0
C      1  0.5366400000000  0.4691610000000  0.5100440000000 1.0
C      1  0.4997700000000  0.4009520000000  0.4998270000000 1.0
END
