TITL C-3577087-600-145 -4.42859057536059e-07 125000 -871.588310399053 0 0 140 (C1) n - 1
REM
REM in /home/bkarasulu/work/CARBON/AIRSS/Generating-Clusters/EDIP-Nigel-Params/with-SteepDescent/Higher-Symm/SD-CG/HFTN-CG
REM
REM
REM
REM
REM
REM ./C.cell (12c818d87b63d06a65506943cc24bca4)
REM
REM compiler GCC version 9.2.1 20190827 (Red Hat 9.2.1-1)
REM options -cpp -mtune=generic -march=x86-64 -g -O0 -fpre-include=/usr/include/finclude/math-vector-fortran.h
REM seed 18644113 -1615672480 1103556275 1621805659 -396174015 -1793674927 1947044963 1452267685 1870102090 -1428753057 -1437857031 -652984460 -1216229951 938367115 979906709 -771714867 1847065998 -1407862761 -94960401 72731649 1990727948 2097717324 -644188904 1472843877 1053461458 821874253 1957104608 -1364823633 801260850 -1584178034 1863665963 1243853229 1495937582
REM
CELL 1.54180   50.00000   50.00000   50.00000   90.00000   90.00000   90.00000
LATT -1
SFAC C  
C      1  0.4457840000000  0.5755100000000  0.5100180000000 1.0
C      1  0.5107250000000  0.4249370000000  0.5546830000000 1.0
C      1  0.5543360000000  0.5757380000000  0.4902820000000 1.0
C      1  0.4901330000000  0.4242150000000  0.4450300000000 1.0
C      1  0.5417570000000  0.4097960000000  0.4656780000000 1.0
C      1  0.4660130000000  0.5898140000000  0.4588560000000 1.0
C      1  0.4583290000000  0.4099790000000  0.5335140000000 1.0
C      1  0.5339370000000  0.5897440000000  0.5409830000000 1.0
C      1  0.4911420000000  0.5140610000000  0.4802270000000 1.0
C      1  0.4825580000000  0.4849930000000  0.5119270000000 1.0
C      1  0.5091490000000  0.5125150000000  0.5201660000000 1.0
C      1  0.5192020000000  0.4854930000000  0.4877620000000 1.0
C      1  0.5635980000000  0.4307130000000  0.5233300000000 1.0
C      1  0.5238750000000  0.5696260000000  0.4360380000000 1.0
C      1  0.4362950000000  0.4306550000000  0.4759610000000 1.0
C      1  0.4764360000000  0.5701380000000  0.5643260000000 1.0
C      1  0.5000330000000  0.4570420000000  0.4077530000000 1.0
C      1  0.4089880000000  0.5428570000000  0.4999610000000 1.0
C      1  0.4989620000000  0.4553790000000  0.5945780000000 1.0
C      1  0.5913030000000  0.5431310000000  0.5002930000000 1.0
C      1  0.5181080000000  0.4844030000000  0.4371610000000 1.0
C      1  0.4378970000000  0.5148640000000  0.4819390000000 1.0
C      1  0.4802870000000  0.4897240000000  0.5634030000000 1.0
C      1  0.5621700000000  0.5154030000000  0.5183320000000 1.0
C      1  0.5094730000000  0.4241180000000  0.5238980000000 1.0
C      1  0.5238450000000  0.5756580000000  0.4912580000000 1.0
C      1  0.4912350000000  0.4238890000000  0.4757280000000 1.0
C      1  0.4762510000000  0.5755510000000  0.5090790000000 1.0
C      1  0.4581080000000  0.5173110000000  0.4374420000000 1.0
C      1  0.4372880000000  0.4827440000000  0.5418620000000 1.0
C      1  0.5416510000000  0.5178260000000  0.5620070000000 1.0
C      1  0.5630070000000  0.4824410000000  0.4569330000000 1.0
C      1  0.5904910000000  0.4681810000000  0.5402800000000 1.0
C      1  0.5408700000000  0.5322750000000  0.4087450000000 1.0
C      1  0.4090320000000  0.4679940000000  0.4590930000000 1.0
C      1  0.4588480000000  0.5337660000000  0.5935670000000 1.0
C      1  0.5104810000000  0.4413490000000  0.4294950000000 1.0
C      1  0.4310370000000  0.5580300000000  0.4895880000000 1.0
C      1  0.4897480000000  0.4403460000000  0.5712920000000 1.0
C      1  0.5693140000000  0.5584150000000  0.5106230000000 1.0
C      1  0.5201710000000  0.5612900000000  0.5183710000000 1.0
C      1  0.5183970000000  0.4376810000000  0.4793340000000 1.0
C      1  0.4799450000000  0.5616750000000  0.4817950000000 1.0
C      1  0.4824830000000  0.4373420000000  0.5199770000000 1.0
C      1  0.4801530000000  0.4727580000000  0.4208570000000 1.0
C      1  0.4217310000000  0.5269300000000  0.5198670000000 1.0
C      1  0.5169290000000  0.4739350000000  0.5809100000000 1.0
C      1  0.5788590000000  0.5270470000000  0.4802930000000 1.0
C      1  0.4690510000000  0.4402580000000  0.4908770000000 1.0
C      1  0.4911240000000  0.5594060000000  0.5316620000000 1.0
C      1  0.5309170000000  0.4407940000000  0.5085090000000 1.0
C      1  0.5090570000000  0.5596620000000  0.4685810000000 1.0
C      1  0.5127100000000  0.3981230000000  0.5077600000000 1.0
C      1  0.5077850000000  0.6016840000000  0.4879750000000 1.0
C      1  0.4882030000000  0.3979600000000  0.4920410000000 1.0
C      1  0.4920540000000  0.6016070000000  0.5123190000000 1.0
C      1  0.5242870000000  0.5007480000000  0.5434100000000 1.0
C      1  0.5456870000000  0.4978030000000  0.4796300000000 1.0
C      1  0.4806090000000  0.5012870000000  0.4544270000000 1.0
C      1  0.4550210000000  0.4977580000000  0.5192490000000 1.0
C      1  0.5603070000000  0.4331910000000  0.5518950000000 1.0
C      1  0.5523430000000  0.5667950000000  0.4398650000000 1.0
C      1  0.4399050000000  0.4334530000000  0.4474820000000 1.0
C      1  0.4479170000000  0.5674010000000  0.5605960000000 1.0
C      1  0.5170670000000  0.4722100000000  0.5485990000000 1.0
C      1  0.5399720000000  0.5269720000000  0.4819440000000 1.0
C      1  0.4821140000000  0.4719560000000  0.4597040000000 1.0
C      1  0.4605340000000  0.5271640000000  0.5177720000000 1.0
C      1  0.4326390000000  0.5534320000000  0.4598130000000 1.0
C      1  0.4612580000000  0.4480040000000  0.5656700000000 1.0
C      1  0.5673990000000  0.5538990000000  0.5405650000000 1.0
C      1  0.5402640000000  0.4461310000000  0.4316360000000 1.0
C      1  0.4906160000000  0.6011450000000  0.4655750000000 1.0
C      1  0.4657060000000  0.3983480000000  0.5091710000000 1.0
C      1  0.5092290000000  0.6009370000000  0.5346500000000 1.0
C      1  0.5350820000000  0.3987130000000  0.4904780000000 1.0
C      1  0.4148510000000  0.5312770000000  0.5686370000000 1.0
C      1  0.5677740000000  0.4689570000000  0.5848030000000 1.0
C      1  0.5856360000000  0.5312910000000  0.4314250000000 1.0
C      1  0.4313950000000  0.4691440000000  0.4142320000000 1.0
C      1  0.5307340000000  0.4709060000000  0.5120600000000 1.0
C      1  0.5141480000000  0.5299070000000  0.4679840000000 1.0
C      1  0.4691560000000  0.4701270000000  0.4866380000000 1.0
C      1  0.4861260000000  0.5295750000000  0.5323900000000 1.0
C      1  0.4390030000000  0.5435800000000  0.5742450000000 1.0
C      1  0.5718120000000  0.4581780000000  0.5598710000000 1.0
C      1  0.5604680000000  0.5420020000000  0.4277770000000 1.0
C      1  0.4278480000000  0.4582560000000  0.4393550000000 1.0
C      1  0.4864820000000  0.5154030000000  0.3987250000000 1.0
C      1  0.3988110000000  0.4849220000000  0.5133480000000 1.0
C      1  0.5124350000000  0.5139890000000  0.5995440000000 1.0
C      1  0.6010820000000  0.4848660000000  0.4862430000000 1.0
C      1  0.4201680000000  0.4665360000000  0.5033270000000 1.0
C      1  0.5021840000000  0.5332220000000  0.5787900000000 1.0
C      1  0.5795710000000  0.4665710000000  0.4958730000000 1.0
C      1  0.4965970000000  0.5335090000000  0.4202110000000 1.0
C      1  0.5928780000000  0.4919320000000  0.4579740000000 1.0
C      1  0.4583700000000  0.5083970000000  0.4074250000000 1.0
C      1  0.4073380000000  0.4918700000000  0.5416730000000 1.0
C      1  0.5410800000000  0.5083800000000  0.5919990000000 1.0
C      1  0.5865020000000  0.4484830000000  0.5176620000000 1.0
C      1  0.5181080000000  0.5518830000000  0.4130350000000 1.0
C      1  0.4131690000000  0.4482170000000  0.4817150000000 1.0
C      1  0.4825760000000  0.5531810000000  0.5881700000000 1.0
C      1  0.4059970000000  0.5210180000000  0.5443590000000 1.0
C      1  0.5440470000000  0.4791770000000  0.5948330000000 1.0
C      1  0.5944900000000  0.5210400000000  0.4557020000000 1.0
C      1  0.4556990000000  0.4793390000000  0.4053740000000 1.0
C      1  0.4922650000000  0.4921600000000  0.6049920000000 1.0
C      1  0.6026460000000  0.5072930000000  0.5061230000000 1.0
C      1  0.5062540000000  0.4929650000000  0.3969560000000 1.0
C      1  0.3974210000000  0.5072950000000  0.4935520000000 1.0
C      1  0.5118660000000  0.4669090000000  0.4659240000000 1.0
C      1  0.4682950000000  0.5321400000000  0.4881040000000 1.0
C      1  0.4877860000000  0.4654140000000  0.5346040000000 1.0
C      1  0.5319830000000  0.5315470000000  0.5117070000000 1.0
C      1  0.5689060000000  0.5240150000000  0.5479690000000 1.0
C      1  0.5475460000000  0.4762620000000  0.4300890000000 1.0
C      1  0.4312390000000  0.5234340000000  0.4525970000000 1.0
C      1  0.4526710000000  0.4774870000000  0.5686480000000 1.0
C      1  0.5347460000000  0.5024240000000  0.4047360000000 1.0
C      1  0.4052630000000  0.4978000000000  0.4651870000000 1.0
C      1  0.4641660000000  0.5028680000000  0.5962050000000 1.0
C      1  0.5943030000000  0.4980160000000  0.5344850000000 1.0
C      1  0.4833940000000  0.5191660000000  0.5597850000000 1.0
C      1  0.5591730000000  0.4830990000000  0.5130540000000 1.0
C      1  0.5140040000000  0.5168870000000  0.4400510000000 1.0
C      1  0.4406990000000  0.4827410000000  0.4860460000000 1.0
C      1  0.4555040000000  0.5658860000000  0.4459500000000 1.0
C      1  0.4464190000000  0.4344310000000  0.5442520000000 1.0
C      1  0.5441560000000  0.5660350000000  0.5543780000000 1.0
C      1  0.5541100000000  0.4338590000000  0.4546450000000 1.0
C      1  0.5265170000000  0.5437760000000  0.5628510000000 1.0
C      1  0.5647310000000  0.4557980000000  0.4711680000000 1.0
C      1  0.4724200000000  0.5439210000000  0.4360140000000 1.0
C      1  0.4350470000000  0.4558980000000  0.5278620000000 1.0
C      1  0.5631440000000  0.5751130000000  0.4640300000000 1.0
C      1  0.4638290000000  0.4248740000000  0.4363800000000 1.0
C      1  0.4368890000000  0.5749670000000  0.5362660000000 1.0
C      1  0.5368450000000  0.4242630000000  0.5636420000000 1.0
END
