TITL C-3577090-796-372 6.29616870901281e-07 125000 -840.559685795414 0 0 136 (C1) n - 1
REM
REM in /home/bkarasulu/work/CARBON/AIRSS/Generating-Clusters/EDIP-Nigel-Params/with-SteepDescent/Higher-Symm/SD-CG/HFTN-CG
REM
REM
REM
REM
REM
REM ./C.cell (12c818d87b63d06a65506943cc24bca4)
REM
REM compiler GCC version 9.2.1 20190827 (Red Hat 9.2.1-1)
REM options -cpp -mtune=generic -march=x86-64 -g -O0 -fpre-include=/usr/include/finclude/math-vector-fortran.h
REM seed 280043594 1771863919 1487263501 -29994097 -1397498008 1836214065 923573477 1408634840 1601206040 1988126758 1764783894 -1498164103 -528017246 -353705119 -1938666754 912055274 -853187260 -1963204286 1112216173 1624481314 509691669 248156029 -1750543471 -2081451335 -1425106725 1823870921 -2065993896 -744052044 1971847960 -2095333815 -1403923863 1860063677 -1933155357
REM
CELL 1.54180   50.00000   50.00000   50.00000   90.00000   90.00000   90.00000
LATT -1
SFAC C  
C      1  0.5004110000000  0.5879530000000  0.5171910000000 1.0
C      1  0.5255620000000  0.4865930000000  0.6033130000000 1.0
C      1  0.5789540000000  0.5197540000000  0.4912410000000 1.0
C      1  0.4921460000000  0.4028530000000  0.4660170000000 1.0
C      1  0.5059390000000  0.4123520000000  0.5322040000000 1.0
C      1  0.5084670000000  0.5881740000000  0.4886450000000 1.0
C      1  0.5270030000000  0.5103120000000  0.4006370000000 1.0
C      1  0.4635260000000  0.5104640000000  0.5886070000000 1.0
C      1  0.4889130000000  0.4899990000000  0.4089620000000 1.0
C      1  0.5943930000000  0.4731310000000  0.5086610000000 1.0
C      1  0.4039740000000  0.4779040000000  0.4928050000000 1.0
C      1  0.4040640000000  0.5351180000000  0.5155540000000 1.0
C      1  0.4890690000000  0.5186940000000  0.5774780000000 1.0
C      1  0.5604950000000  0.6005360000000  0.5080400000000 1.0
C      1  0.6127060000000  0.4977580000000  0.5303650000000 1.0
C      1  0.4986930000000  0.4671440000000  0.3896540000000 1.0
C      1  0.5000030000000  0.5364980000000  0.3931210000000 1.0
C      1  0.5072540000000  0.4705010000000  0.5864810000000 1.0
C      1  0.5290500000000  0.4105190000000  0.5135640000000 1.0
C      1  0.4492180000000  0.5925940000000  0.4865750000000 1.0
C      1  0.4639380000000  0.4041960000000  0.4922180000000 1.0
C      1  0.5942620000000  0.5109210000000  0.4666640000000 1.0
C      1  0.3992200000000  0.4938750000000  0.4686810000000 1.0
C      1  0.3973450000000  0.5119530000000  0.5454770000000 1.0
C      1  0.5558180000000  0.5158600000000  0.5765610000000 1.0
C      1  0.5769590000000  0.5404970000000  0.5382180000000 1.0
C      1  0.5338270000000  0.5581560000000  0.5594510000000 1.0
C      1  0.5390600000000  0.4711920000000  0.4271390000000 1.0
C      1  0.4383140000000  0.4763040000000  0.5640720000000 1.0
C      1  0.4616100000000  0.5209840000000  0.4328190000000 1.0
C      1  0.5664000000000  0.4651550000000  0.4703280000000 1.0
C      1  0.4308740000000  0.4468210000000  0.5229170000000 1.0
C      1  0.4335250000000  0.5341290000000  0.4731300000000 1.0
C      1  0.5260920000000  0.4353520000000  0.4595540000000 1.0
C      1  0.4711960000000  0.4389680000000  0.5535600000000 1.0
C      1  0.4827400000000  0.5504350000000  0.4658050000000 1.0
C      1  0.5561330000000  0.5611920000000  0.5412330000000 1.0
C      1  0.5756540000000  0.5175560000000  0.5560560000000 1.0
C      1  0.5346190000000  0.5356820000000  0.5776970000000 1.0
C      1  0.5478610000000  0.4430200000000  0.4785790000000 1.0
C      1  0.4585840000000  0.5445080000000  0.4858130000000 1.0
C      1  0.4570780000000  0.4333820000000  0.5289240000000 1.0
C      1  0.5598910000000  0.4807320000000  0.4459150000000 1.0
C      1  0.4362420000000  0.5191440000000  0.4479360000000 1.0
C      1  0.4237150000000  0.4699580000000  0.5399710000000 1.0
C      1  0.5245800000000  0.4458470000000  0.4313860000000 1.0
C      1  0.4789540000000  0.5432910000000  0.4377500000000 1.0
C      1  0.4638370000000  0.4625480000000  0.5678830000000 1.0
C      1  0.5653160000000  0.4775490000000  0.5128710000000 1.0
C      1  0.5309330000000  0.5708210000000  0.4809190000000 1.0
C      1  0.4462060000000  0.5054860000000  0.5631420000000 1.0
C      1  0.5542920000000  0.5288220000000  0.4760440000000 1.0
C      1  0.4246170000000  0.5442430000000  0.5329370000000 1.0
C      1  0.4248640000000  0.4567460000000  0.4929610000000 1.0
C      1  0.5001000000000  0.4341170000000  0.5515280000000 1.0
C      1  0.4818520000000  0.4297990000000  0.4594320000000 1.0
C      1  0.4763700000000  0.5707410000000  0.5222430000000 1.0
C      1  0.4829130000000  0.4693820000000  0.4310150000000 1.0
C      1  0.5518820000000  0.4902520000000  0.5905470000000 1.0
C      1  0.5274600000000  0.5242110000000  0.4265500000000 1.0
C      1  0.5754860000000  0.5071410000000  0.4437570000000 1.0
C      1  0.5185240000000  0.4556800000000  0.5629580000000 1.0
C      1  0.4546800000000  0.5695740000000  0.5011720000000 1.0
C      1  0.5961450000000  0.4968340000000  0.5546520000000 1.0
C      1  0.4216480000000  0.5252190000000  0.5578960000000 1.0
C      1  0.4207530000000  0.4939360000000  0.4482360000000 1.0
C      1  0.5044310000000  0.5443830000000  0.4216100000000 1.0
C      1  0.4976360000000  0.4468890000000  0.4138410000000 1.0
C      1  0.4793020000000  0.5341750000000  0.5547450000000 1.0
C      1  0.4605240000000  0.4306440000000  0.4805980000000 1.0
C      1  0.5576640000000  0.5809900000000  0.4883790000000 1.0
C      1  0.5435590000000  0.4345240000000  0.5079380000000 1.0
C      1  0.5726090000000  0.5357000000000  0.4365790000000 1.0
C      1  0.4374120000000  0.5907450000000  0.5476030000000 1.0
C      1  0.5449870000000  0.4434380000000  0.5731970000000 1.0
C      1  0.5844790000000  0.4694010000000  0.5583900000000 1.0
C      1  0.4352210000000  0.4686160000000  0.4477270000000 1.0
C      1  0.4216540000000  0.5526280000000  0.5760780000000 1.0
C      1  0.4379660000000  0.4242460000000  0.4623260000000 1.0
C      1  0.5593750000000  0.4376440000000  0.5317470000000 1.0
C      1  0.5709290000000  0.5789380000000  0.4627850000000 1.0
C      1  0.5209010000000  0.5689530000000  0.4262280000000 1.0
C      1  0.4648390000000  0.5575940000000  0.5665780000000 1.0
C      1  0.4720610000000  0.4309470000000  0.4116980000000 1.0
C      1  0.5627170000000  0.4646720000000  0.5383410000000 1.0
C      1  0.4465580000000  0.5574990000000  0.5883000000000 1.0
C      1  0.5353240000000  0.5736640000000  0.4508490000000 1.0
C      1  0.5797120000000  0.5524320000000  0.4585170000000 1.0
C      1  0.4232700000000  0.4478560000000  0.4640200000000 1.0
C      1  0.4194490000000  0.5688300000000  0.5498260000000 1.0
C      1  0.4543640000000  0.4611310000000  0.4275360000000 1.0
C      1  0.5493680000000  0.5432110000000  0.4225750000000 1.0
C      1  0.5658110000000  0.4647490000000  0.5824720000000 1.0
C      1  0.5549440000000  0.4231860000000  0.5554800000000 1.0
C      1  0.4628010000000  0.5788510000000  0.5477450000000 1.0
C      1  0.4649630000000  0.4198630000000  0.4363620000000 1.0
C      1  0.5290720000000  0.3965450000000  0.4894910000000 1.0
C      1  0.4741880000000  0.5288750000000  0.3866570000000 1.0
C      1  0.3989760000000  0.4847310000000  0.5362810000000 1.0
C      1  0.5496650000000  0.5882230000000  0.5312320000000 1.0
C      1  0.4663420000000  0.5994910000000  0.4671640000000 1.0
C      1  0.4637010000000  0.4062040000000  0.5198610000000 1.0
C      1  0.4787570000000  0.4690540000000  0.5916260000000 1.0
C      1  0.5251540000000  0.4683360000000  0.3804830000000 1.0
C      1  0.5112110000000  0.5278130000000  0.5938570000000 1.0
C      1  0.3876070000000  0.5194720000000  0.4727260000000 1.0
C      1  0.6172840000000  0.5231030000000  0.5195840000000 1.0
C      1  0.6105140000000  0.4877980000000  0.4678200000000 1.0
C      1  0.5381170000000  0.4837770000000  0.4003910000000 1.0
C      1  0.4857570000000  0.3929620000000  0.5312500000000 1.0
C      1  0.4076450000000  0.5332340000000  0.4870040000000 1.0
C      1  0.5166580000000  0.5104810000000  0.6155040000000 1.0
C      1  0.4662100000000  0.4891790000000  0.6069710000000 1.0
C      1  0.4672490000000  0.5093950000000  0.4058890000000 1.0
C      1  0.4880370000000  0.5813440000000  0.4683000000000 1.0
C      1  0.5194670000000  0.4072180000000  0.4655660000000 1.0
C      1  0.5211110000000  0.5879090000000  0.5379980000000 1.0
C      1  0.3848230000000  0.4784360000000  0.5131580000000 1.0
C      1  0.5926240000000  0.5352890000000  0.5130750000000 1.0
C      1  0.5943610000000  0.4687810000000  0.4805610000000 1.0
C      1  0.4646010000000  0.5038530000000  0.5345970000000 1.0
C      1  0.5049820000000  0.5269950000000  0.4734840000000 1.0
C      1  0.5072450000000  0.4718820000000  0.5296070000000 1.0
C      1  0.4702500000000  0.5229010000000  0.5070150000000 1.0
C      1  0.4881590000000  0.5403780000000  0.5251240000000 1.0
C      1  0.5196260000000  0.5003260000000  0.5203460000000 1.0
C      1  0.5287910000000  0.5101760000000  0.4575410000000 1.0
C      1  0.4775610000000  0.4818150000000  0.4791520000000 1.0
C      1  0.5276720000000  0.5406560000000  0.4898220000000 1.0
C      1  0.4951980000000  0.4664660000000  0.4609100000000 1.0
C      1  0.5328330000000  0.4765980000000  0.5016050000000 1.0
C      1  0.4625980000000  0.4642600000000  0.4982680000000 1.0
C      1  0.5168890000000  0.5307300000000  0.5172070000000 1.0
C      1  0.5254410000000  0.4782730000000  0.4683110000000 1.0
C      1  0.4751910000000  0.4738850000000  0.5267790000000 1.0
C      1  0.4884410000000  0.5070960000000  0.4896530000000 1.0
END
