TITL C-3577089-586-26 -6.930568355912e-07 125000 -482.56579834411 0 0 81 (C3) n - 1
REM
REM in /home/bkarasulu/work/CARBON/AIRSS/Generating-Clusters/EDIP-Nigel-Params/with-SteepDescent/Higher-Symm/SD-CG/HFTN-CG
REM
REM
REM
REM
REM
REM ./C.cell (12c818d87b63d06a65506943cc24bca4)
REM
REM compiler GCC version 9.2.1 20190827 (Red Hat 9.2.1-1)
REM options -cpp -mtune=generic -march=x86-64 -g -O0 -fpre-include=/usr/include/finclude/math-vector-fortran.h
REM seed -408187864 1717218094 -281672532 -899381282 468902829 36157476 -621277828 -1290003832 -769303051 -256140812 -1913576933 1668284651 64615748 -210948990 -627639815 -674420732 1212049163 1461548855 -405706680 391401848 904895925 -717684047 317717696 475193643 575124639 -341543617 -831096097 1928887790 -2077135466 -1050657800 -884361524 -1663488631 -1694612513
REM
CELL 1.54180   50.00000   50.00000   50.00000   90.00000   90.00000   90.00000
LATT -1
SFAC C  
C      1  0.5617800000000  0.5491590000000  0.4877510000000 1.0
C      1  0.5617840000000  0.4648050000000  0.4635650000000 1.0
C      1  0.5617720000000  0.4860360000000  0.5487110000000 1.0
C      1  0.5225770000000  0.5813090000000  0.5072370000000 1.0
C      1  0.5225890000000  0.4656100000000  0.4259710000000 1.0
C      1  0.5225680000000  0.4530810000000  0.5668020000000 1.0
C      1  0.5049660000000  0.5152070000000  0.5558360000000 1.0
C      1  0.5049800000000  0.5407510000000  0.4589130000000 1.0
C      1  0.5049760000000  0.4440420000000  0.4852530000000 1.0
C      1  0.5676930000000  0.5315740000000  0.5111220000000 1.0
C      1  0.5677000000000  0.4938360000000  0.4671100000000 1.0
C      1  0.5676920000000  0.4745900000000  0.5217980000000 1.0
C      1  0.4240190000000  0.4995530000000  0.5285450000000 1.0
C      1  0.4240250000000  0.5249530000000  0.4860980000000 1.0
C      1  0.4240250000000  0.4754940000000  0.4853240000000 1.0
C      1  0.4322680000000  0.5235680000000  0.5138120000000 1.0
C      1  0.4322740000000  0.5001860000000  0.4726690000000 1.0
C      1  0.4322680000000  0.4762460000000  0.5134900000000 1.0
C      1  0.4366820000000  0.5005690000000  0.5550090000000 1.0
C      1  0.4366940000000  0.5473620000000  0.4719890000000 1.0
C      1  0.4366940000000  0.4520690000000  0.4729740000000 1.0
C      1  0.5255120000000  0.4958260000000  0.4211000000000 1.0
C      1  0.5254940000000  0.4337540000000  0.5430710000000 1.0
C      1  0.5254950000000  0.5704200000000  0.5358410000000 1.0
C      1  0.4989480000000  0.5553200000000  0.5348030000000 1.0
C      1  0.4989630000000  0.5024800000000  0.4346900000000 1.0
C      1  0.4989490000000  0.4422000000000  0.5305070000000 1.0
C      1  0.4636400000000  0.4270070000000  0.5079460000000 1.0
C      1  0.4636320000000  0.5433830000000  0.5592330000000 1.0
C      1  0.4636500000000  0.5296100000000  0.4328050000000 1.0
C      1  0.5346880000000  0.5615240000000  0.4884100000000 1.0
C      1  0.5346940000000  0.4591960000000  0.4525220000000 1.0
C      1  0.5346780000000  0.4792800000000  0.5590840000000 1.0
C      1  0.5557240000000  0.5181460000000  0.5585750000000 1.0
C      1  0.5557390000000  0.5416480000000  0.4550100000000 1.0
C      1  0.5557350000000  0.4402070000000  0.4864400000000 1.0
C      1  0.4771020000000  0.4878120000000  0.4212770000000 1.0
C      1  0.4770840000000  0.4379210000000  0.5499120000000 1.0
C      1  0.4770870000000  0.5742680000000  0.5288010000000 1.0
C      1  0.4687330000000  0.4938160000000  0.4807260000000 1.0
C      1  0.4687280000000  0.4864040000000  0.5149860000000 1.0
C      1  0.4687290000000  0.5197800000000  0.5042750000000 1.0
C      1  0.4779610000000  0.5969670000000  0.4831180000000 1.0
C      1  0.4779700000000  0.4368990000000  0.4244600000000 1.0
C      1  0.4779450000000  0.4661340000000  0.5924120000000 1.0
C      1  0.4967130000000  0.4735280000000  0.5224020000000 1.0
C      1  0.4967140000000  0.5326370000000  0.5117240000000 1.0
C      1  0.4967210000000  0.4938350000000  0.4658730000000 1.0
C      1  0.4806890000000  0.4973110000000  0.5559710000000 1.0
C      1  0.4807010000000  0.5498190000000  0.4743390000000 1.0
C      1  0.4807020000000  0.4528690000000  0.4696820000000 1.0
C      1  0.4550910000000  0.5057830000000  0.4195100000000 1.0
C      1  0.4550750000000  0.4274080000000  0.5352260000000 1.0
C      1  0.4550730000000  0.5668090000000  0.5452440000000 1.0
C      1  0.5475010000000  0.5136650000000  0.4291840000000 1.0
C      1  0.5474870000000  0.4318330000000  0.5235840000000 1.0
C      1  0.5474840000000  0.5545020000000  0.5472530000000 1.0
C      1  0.4646750000000  0.4409570000000  0.4485580000000 1.0
C      1  0.4646560000000  0.4849760000000  0.5768460000000 1.0
C      1  0.4646700000000  0.5740670000000  0.4745800000000 1.0
C      1  0.5136230000000  0.5159010000000  0.4745320000000 1.0
C      1  0.5136190000000  0.4699920000000  0.4989660000000 1.0
C      1  0.5136150000000  0.5141070000000  0.5265080000000 1.0
C      1  0.5430100000000  0.5108110000000  0.5172760000000 1.0
C      1  0.5430160000000  0.5095510000000  0.4820090000000 1.0
C      1  0.5430130000000  0.4796390000000  0.5007340000000 1.0
C      1  0.4935010000000  0.4251460000000  0.5063220000000 1.0
C      1  0.4934920000000  0.5429030000000  0.5616630000000 1.0
C      1  0.4935110000000  0.5319510000000  0.4320120000000 1.0
C      1  0.4602890000000  0.5163960000000  0.5463330000000 1.0
C      1  0.4603010000000  0.5319320000000  0.4626250000000 1.0
C      1  0.4602970000000  0.4516710000000  0.4910250000000 1.0
C      1  0.5713620000000  0.4462030000000  0.5212960000000 1.0
C      1  0.5713600000000  0.5453330000000  0.5359570000000 1.0
C      1  0.5713740000000  0.5084650000000  0.4427770000000 1.0
C      1  0.5291200000000  0.4356290000000  0.4696270000000 1.0
C      1  0.5291050000000  0.5058780000000  0.5709400000000 1.0
C      1  0.5291210000000  0.5584930000000  0.4594460000000 1.0
C      1  0.4921280000000  0.4503160000000  0.5737760000000 1.0
C      1  0.4921380000000  0.5887350000000  0.5061380000000 1.0
C      1  0.4921510000000  0.4609500000000  0.4200830000000 1.0
END
