TITL C-3577087-600-477 -1.08277364706733e-06 125000 -317.872904791938 0 0 55 (C5) n - 1
REM
REM in /home/bkarasulu/work/CARBON/AIRSS/Generating-Clusters/EDIP-Nigel-Params/with-SteepDescent/Higher-Symm/SD-CG/HFTN-CG
REM
REM
REM
REM
REM
REM ./C.cell (12c818d87b63d06a65506943cc24bca4)
REM
REM compiler GCC version 9.2.1 20190827 (Red Hat 9.2.1-1)
REM options -cpp -mtune=generic -march=x86-64 -g -O0 -fpre-include=/usr/include/finclude/math-vector-fortran.h
REM seed 1429980537 -1966536342 1641627562 1392659654 -1455859826 -873618479 -1506938433 -1072198638 -737778037 321465476 -57833882 2060474970 2032705714 626378526 -901533218 1205493443 96115789 -343995991 296227304 560034705 777335634 1627499151 -1051307923 738858913 -165191862 -1466320771 -551528074 707969110 -1367972362 -449059100 1793005862 -134849376 -778723369
REM
CELL 1.54180   50.00000   50.00000   50.00000   90.00000   90.00000   90.00000
LATT -1
SFAC C  
C      1  0.5570400000000  0.4543190000000  0.5422320000000 1.0
C      1  0.5571110000000  0.4457340000000  0.4697120000000 1.0
C      1  0.5572220000000  0.5120510000000  0.4391370000000 1.0
C      1  0.5572200000000  0.5616230000000  0.4927610000000 1.0
C      1  0.5571070000000  0.5259430000000  0.5564770000000 1.0
C      1  0.4467180000000  0.5391780000000  0.4934670000000 1.0
C      1  0.4466470000000  0.5183060000000  0.5351410000000 1.0
C      1  0.4466020000000  0.4722210000000  0.5281690000000 1.0
C      1  0.4466440000000  0.4646110000000  0.4821860000000 1.0
C      1  0.4467160000000  0.5059920000000  0.4607380000000 1.0
C      1  0.5244470000000  0.4830220000000  0.4796100000000 1.0
C      1  0.5244850000000  0.5141520000000  0.4775980000000 1.0
C      1  0.5244660000000  0.5256850000000  0.5065820000000 1.0
C      1  0.5244160000000  0.5016840000000  0.5265080000000 1.0
C      1  0.5244040000000  0.4753160000000  0.5098390000000 1.0
C      1  0.4987620000000  0.5063620000000  0.5707950000000 1.0
C      1  0.4987270000000  0.4346350000000  0.5279250000000 1.0
C      1  0.4988390000000  0.4532420000000  0.4464620000000 1.0
C      1  0.4989440000000  0.5364690000000  0.4389840000000 1.0
C      1  0.4988960000000  0.5692980000000  0.5158270000000 1.0
C      1  0.4349160000000  0.5383420000000  0.5192630000000 1.0
C      1  0.4348390000000  0.4935110000000  0.5422960000000 1.0
C      1  0.4348370000000  0.4577520000000  0.5067760000000 1.0
C      1  0.4349140000000  0.4804830000000  0.4617910000000 1.0
C      1  0.4349630000000  0.5302900000000  0.4695090000000 1.0
C      1  0.4976980000000  0.5398210000000  0.5106460000000 1.0
C      1  0.4976200000000  0.5021800000000  0.5411570000000 1.0
C      1  0.4976030000000  0.4615300000000  0.5147870000000 1.0
C      1  0.4976700000000  0.4740480000000  0.4679780000000 1.0
C      1  0.4977280000000  0.5224350000000  0.4654190000000 1.0
C      1  0.4835730000000  0.4616500000000  0.5508340000000 1.0
C      1  0.4836280000000  0.4397990000000  0.4792050000000 1.0
C      1  0.4837470000000  0.5011690000000  0.4362890000000 1.0
C      1  0.4837650000000  0.5609500000000  0.4813940000000 1.0
C      1  0.4836580000000  0.5365260000000  0.5521870000000 1.0
C      1  0.4548300000000  0.5381990000000  0.5527210000000 1.0
C      1  0.4547420000000  0.4616510000000  0.5525370000000 1.0
C      1  0.4547960000000  0.4381720000000  0.4796780000000 1.0
C      1  0.4549180000000  0.5002090000000  0.4348340000000 1.0
C      1  0.4549390000000  0.5620290000000  0.4799770000000 1.0
C      1  0.5571860000000  0.4414660000000  0.4960600000000 1.0
C      1  0.5572960000000  0.4856740000000  0.4432210000000 1.0
C      1  0.5573420000000  0.5495890000000  0.4689370000000 1.0
C      1  0.5572590000000  0.5448820000000  0.5376700000000 1.0
C      1  0.5571630000000  0.4780580000000  0.5544330000000 1.0
C      1  0.4973940000000  0.5598810000000  0.4555160000000 1.0
C      1  0.4972980000000  0.5608110000000  0.5431990000000 1.0
C      1  0.4971700000000  0.4777060000000  0.5711790000000 1.0
C      1  0.4971880000000  0.4254150000000  0.5007880000000 1.0
C      1  0.4973270000000  0.4762020000000  0.4293040000000 1.0
C      1  0.5472670000000  0.5022620000000  0.5459280000000 1.0
C      1  0.5472470000000  0.4570320000000  0.5164320000000 1.0
C      1  0.5473220000000  0.4711060000000  0.4643010000000 1.0
C      1  0.5473870000000  0.5250350000000  0.4615780000000 1.0
C      1  0.5473530000000  0.5442910000000  0.5120250000000 1.0
END
