TITL C-3578203-1966-651 -1.32090585788217e-07 125000 -398.967093255962 0 0 64 (C1) n - 1
REM
REM in /home/bkarasulu/work/CARBON/AIRSS/Generating-Clusters/EDIP-Nigel-Params/with-SteepDescent/Higher-Symm/SD-CG/HFTN-CG
REM
REM
REM
REM
REM
REM ./C.cell (12c818d87b63d06a65506943cc24bca4)
REM
REM compiler GCC version 9.2.1 20190827 (Red Hat 9.2.1-1)
REM options -cpp -mtune=generic -march=x86-64 -g -O0 -fpre-include=/usr/include/finclude/math-vector-fortran.h
REM seed 883519683 1438181567 -1738375924 696416969 -1989575826 712016180 -1507274909 2072840201 -485573852 -1611730970 -83781336 1709653158 -2089592011 278389418 355542853 1935107412 -1539905361 311780676 1718472991 287840102 -541385517 2071606376 844027537 -1540028038 -1957421845 1872822805 -892530377 2059713249 -162114571 -1915654738 2028785389 1666887710 822811122
REM
CELL 1.54180   50.00000   50.00000   50.00000   90.00000   90.00000   90.00000
LATT -1
SFAC C  
C      1  0.4297550000000  0.5259570000000  0.4631000000000 1.0
C      1  0.4433370000000  0.5317530000000  0.5584010000000 1.0
C      1  0.5077580000000  0.5142160000000  0.5669650000000 1.0
C      1  0.5803340000000  0.5267960000000  0.4921870000000 1.0
C      1  0.5115200000000  0.5299550000000  0.4205360000000 1.0
C      1  0.4832870000000  0.4670800000000  0.5555020000000 1.0
C      1  0.5532540000000  0.4556210000000  0.5288200000000 1.0
C      1  0.5447130000000  0.4607470000000  0.4559600000000 1.0
C      1  0.4834320000000  0.4592980000000  0.4569710000000 1.0
C      1  0.4505320000000  0.4612490000000  0.5038640000000 1.0
C      1  0.5046570000000  0.4573090000000  0.4374860000000 1.0
C      1  0.4439430000000  0.4540370000000  0.4760800000000 1.0
C      1  0.4549050000000  0.4593670000000  0.5479290000000 1.0
C      1  0.5324220000000  0.4572660000000  0.5504690000000 1.0
C      1  0.5516110000000  0.4596590000000  0.4845990000000 1.0
C      1  0.4503800000000  0.4424890000000  0.5251570000000 1.0
C      1  0.5046140000000  0.4489800000000  0.5441700000000 1.0
C      1  0.5492490000000  0.4395620000000  0.5046220000000 1.0
C      1  0.5271870000000  0.4414450000000  0.4446250000000 1.0
C      1  0.4641700000000  0.4388510000000  0.4623940000000 1.0
C      1  0.4885350000000  0.5068020000000  0.5223320000000 1.0
C      1  0.5403100000000  0.5036990000000  0.5298050000000 1.0
C      1  0.5393600000000  0.5105810000000  0.4650700000000 1.0
C      1  0.4819470000000  0.5094120000000  0.4737380000000 1.0
C      1  0.4650030000000  0.5115210000000  0.5037640000000 1.0
C      1  0.5614190000000  0.5444460000000  0.5030460000000 1.0
C      1  0.5206030000000  0.5497950000000  0.4381610000000 1.0
C      1  0.4514450000000  0.5431910000000  0.4636590000000 1.0
C      1  0.4487370000000  0.5504680000000  0.5387620000000 1.0
C      1  0.5099350000000  0.5434840000000  0.5605220000000 1.0
C      1  0.5648880000000  0.5061510000000  0.4811080000000 1.0
C      1  0.4959900000000  0.5084430000000  0.4287320000000 1.0
C      1  0.4250150000000  0.5001400000000  0.4682770000000 1.0
C      1  0.4554390000000  0.5064940000000  0.5593730000000 1.0
C      1  0.5330230000000  0.5006680000000  0.5594980000000 1.0
C      1  0.5461070000000  0.5338560000000  0.5262020000000 1.0
C      1  0.5425490000000  0.5407380000000  0.4559960000000 1.0
C      1  0.4771720000000  0.5324860000000  0.4522060000000 1.0
C      1  0.4429320000000  0.5416750000000  0.5122390000000 1.0
C      1  0.4876460000000  0.5597000000000  0.5675960000000 1.0
C      1  0.5241680000000  0.5504990000000  0.5354350000000 1.0
C      1  0.5451620000000  0.5573770000000  0.4818380000000 1.0
C      1  0.4972620000000  0.5548690000000  0.4546120000000 1.0
C      1  0.4573690000000  0.5525590000000  0.4904760000000 1.0
C      1  0.4743300000000  0.5630230000000  0.5429890000000 1.0
C      1  0.5242000000000  0.5766230000000  0.4913540000000 1.0
C      1  0.4988330000000  0.5753090000000  0.4758570000000 1.0
C      1  0.4766910000000  0.5740120000000  0.4947830000000 1.0
C      1  0.4871350000000  0.5788530000000  0.5220320000000 1.0
C      1  0.5171450000000  0.5758300000000  0.5211030000000 1.0
C      1  0.4708780000000  0.4855360000000  0.4571510000000 1.0
C      1  0.4449660000000  0.4888400000000  0.5125760000000 1.0
C      1  0.4845320000000  0.4996080000000  0.5513720000000 1.0
C      1  0.5632320000000  0.4834400000000  0.5236130000000 1.0
C      1  0.5393790000000  0.4879380000000  0.4443540000000 1.0
C      1  0.5137870000000  0.4848550000000  0.4297760000000 1.0
C      1  0.4420650000000  0.4792720000000  0.4603610000000 1.0
C      1  0.4414310000000  0.4857780000000  0.5430020000000 1.0
C      1  0.5364210000000  0.4754780000000  0.5715150000000 1.0
C      1  0.5674240000000  0.4811700000000  0.4947830000000 1.0
C      1  0.5093180000000  0.4678820000000  0.5047280000000 1.0
C      1  0.5013090000000  0.4441300000000  0.5161970000000 1.0
C      1  0.5127730000000  0.5078980000000  0.4818310000000 1.0
C      1  0.5133950000000  0.4962270000000  0.5094790000000 1.0
END
