TITL C-3577086-586-144 -5.07067146438817e-09 125000 -151.801663365608 0 0 26 (C2) n - 1
REM
REM in /home/bkarasulu/work/CARBON/AIRSS/Generating-Clusters/EDIP-Nigel-Params/with-SteepDescent/Higher-Symm/SD-CG/HFTN-CG
REM
REM
REM
REM
REM
REM ./C.cell (12c818d87b63d06a65506943cc24bca4)
REM
REM compiler GCC version 9.2.1 20190827 (Red Hat 9.2.1-1)
REM options -cpp -mtune=generic -march=x86-64 -g -O0 -fpre-include=/usr/include/finclude/math-vector-fortran.h
REM seed -232876298 19900861 834064892 93506257 -1159475643 -576994063 -679832337 804536426 -1088882144 1135999655 2000041511 916201794 556097742 343703934 1913661156 -434855931 -2066323463 -5194853 177003996 -673466345 -2001049876 -1569795493 537845420 1180183938 -1802627480 -148099193 -546378231 1533319887 -629116206 -57527026 952361470 182585564 -403098593
REM
CELL 1.54180   50.00000   50.00000   50.00000   90.00000   90.00000   90.00000
LATT -1
SFAC C  
C      1  0.4494110000000  0.4672170000000  0.4846050000000 1.0
C      1  0.5455970000000  0.5306680000000  0.4820720000000 1.0
C      1  0.4478580000000  0.5305930000000  0.5190650000000 1.0
C      1  0.5466250000000  0.4712980000000  0.5227400000000 1.0
C      1  0.4695470000000  0.4490120000000  0.4808590000000 1.0
C      1  0.5277520000000  0.5504770000000  0.4851950000000 1.0
C      1  0.5296780000000  0.4507470000000  0.5194130000000 1.0
C      1  0.4671550000000  0.5496390000000  0.5230420000000 1.0
C      1  0.4928400000000  0.4654020000000  0.4880530000000 1.0
C      1  0.5025100000000  0.5392170000000  0.4889200000000 1.0
C      1  0.4912080000000  0.5342570000000  0.5161250000000 1.0
C      1  0.5040250000000  0.4609220000000  0.5153900000000 1.0
C      1  0.4644500000000  0.4920050000000  0.4883030000000 1.0
C      1  0.5492930000000  0.5037720000000  0.4881740000000 1.0
C      1  0.5492420000000  0.4983280000000  0.5166740000000 1.0
C      1  0.4639820000000  0.5064690000000  0.5155500000000 1.0
C      1  0.4714810000000  0.5073820000000  0.4633010000000 1.0
C      1  0.5362180000000  0.4845670000000  0.4726070000000 1.0
C      1  0.4713690000000  0.4914000000000  0.5406360000000 1.0
C      1  0.5351800000000  0.5169560000000  0.5320820000000 1.0
C      1  0.5101280000000  0.4769560000000  0.4661130000000 1.0
C      1  0.4873450000000  0.5314940000000  0.4660300000000 1.0
C      1  0.4882770000000  0.4679870000000  0.5380990000000 1.0
C      1  0.5087150000000  0.5234450000000  0.5382690000000 1.0
C      1  0.4946840000000  0.5033440000000  0.5533960000000 1.0
C      1  0.4954310000000  0.4964450000000  0.4508170000000 1.0
END
