TITL C-3578202-4305-746 1.31429258527245e-06 125000 -860.08554173382 0 0 138 (C1) n - 1
REM
REM in /home/bkarasulu/work/CARBON/AIRSS/Generating-Clusters/EDIP-Nigel-Params/with-SteepDescent/Higher-Symm/SD-CG/HFTN-CG
REM
REM
REM
REM
REM
REM ./C.cell (12c818d87b63d06a65506943cc24bca4)
REM
REM compiler GCC version 9.2.1 20190827 (Red Hat 9.2.1-1)
REM options -cpp -mtune=generic -march=x86-64 -g -O0 -fpre-include=/usr/include/finclude/math-vector-fortran.h
REM seed 1110356054 97204145 -278569547 474039963 -642621186 -1364290096 -1512463045 1639900616 -104228298 -165662992 40447907 -646390099 439671083 1064718730 2059660336 -690269363 -394481873 2039466269 2112774592 2049434147 570951081 1939110901 -417858943 1585732775 -316944356 -2027364331 693316613 -1648005511 792357090 677148885 756715456 -853236438 1392732557
REM
CELL 1.54180   50.00000   50.00000   50.00000   90.00000   90.00000   90.00000
LATT -1
SFAC C  
C      1  0.4308990000000  0.4542440000000  0.4396830000000 1.0
C      1  0.4839520000000  0.4543740000000  0.5906030000000 1.0
C      1  0.5863780000000  0.4549990000000  0.4647340000000 1.0
C      1  0.4301020000000  0.5447490000000  0.5598040000000 1.0
C      1  0.4838450000000  0.5482680000000  0.4082630000000 1.0
C      1  0.5857340000000  0.5463400000000  0.5342600000000 1.0
C      1  0.5679860000000  0.5469470000000  0.5582930000000 1.0
C      1  0.5134930000000  0.5487150000000  0.4083510000000 1.0
C      1  0.4137500000000  0.5439050000000  0.5350720000000 1.0
C      1  0.5679560000000  0.4528700000000  0.4415110000000 1.0
C      1  0.5135800000000  0.4540770000000  0.5904460000000 1.0
C      1  0.4154470000000  0.4540860000000  0.4650560000000 1.0
C      1  0.4801950000000  0.3872880000000  0.4797670000000 1.0
C      1  0.4877100000000  0.3981930000000  0.5277510000000 1.0
C      1  0.5268790000000  0.3915250000000  0.4981400000000 1.0
C      1  0.4868360000000  0.6102070000000  0.5233490000000 1.0
C      1  0.4888520000000  0.5885420000000  0.4761250000000 1.0
C      1  0.5278870000000  0.5974150000000  0.4975850000000 1.0
C      1  0.5183370000000  0.6119440000000  0.5210280000000 1.0
C      1  0.5128000000000  0.6033740000000  0.4736810000000 1.0
C      1  0.4757510000000  0.5900310000000  0.5037150000000 1.0
C      1  0.5093130000000  0.3830010000000  0.4764950000000 1.0
C      1  0.5163130000000  0.3963050000000  0.5252180000000 1.0
C      1  0.4729790000000  0.4018410000000  0.5034220000000 1.0
C      1  0.4813730000000  0.4807950000000  0.5753660000000 1.0
C      1  0.5755280000000  0.4817320000000  0.4750470000000 1.0
C      1  0.4437600000000  0.4816580000000  0.4447390000000 1.0
C      1  0.4817430000000  0.5224230000000  0.4246920000000 1.0
C      1  0.5783370000000  0.5168350000000  0.5252910000000 1.0
C      1  0.4421260000000  0.5170400000000  0.5561070000000 1.0
C      1  0.5166790000000  0.5215940000000  0.4221800000000 1.0
C      1  0.4230820000000  0.5150460000000  0.5256960000000 1.0
C      1  0.5593320000000  0.5177550000000  0.5555420000000 1.0
C      1  0.5166620000000  0.4811160000000  0.5767930000000 1.0
C      1  0.4263620000000  0.4809790000000  0.4751500000000 1.0
C      1  0.5580410000000  0.4823980000000  0.4442410000000 1.0
C      1  0.5985030000000  0.5009830000000  0.4830140000000 1.0
C      1  0.4370940000000  0.5021900000000  0.4233280000000 1.0
C      1  0.4635800000000  0.4991360000000  0.5915470000000 1.0
C      1  0.6012350000000  0.4999680000000  0.5144980000000 1.0
C      1  0.4355590000000  0.4981470000000  0.5786670000000 1.0
C      1  0.4647480000000  0.5022380000000  0.4101290000000 1.0
C      1  0.4004860000000  0.4977500000000  0.5144820000000 1.0
C      1  0.5622540000000  0.4994430000000  0.5802380000000 1.0
C      1  0.5354420000000  0.5048930000000  0.4049660000000 1.0
C      1  0.4031670000000  0.4997540000000  0.4835350000000 1.0
C      1  0.5624370000000  0.5019310000000  0.4205460000000 1.0
C      1  0.5350390000000  0.4973210000000  0.5947510000000 1.0
C      1  0.4269940000000  0.5281070000000  0.4354350000000 1.0
C      1  0.4902410000000  0.5229510000000  0.6042030000000 1.0
C      1  0.5957840000000  0.5215150000000  0.4498100000000 1.0
C      1  0.4266300000000  0.4720540000000  0.5673980000000 1.0
C      1  0.4914320000000  0.4795360000000  0.3955480000000 1.0
C      1  0.5967330000000  0.4756770000000  0.5560630000000 1.0
C      1  0.5719570000000  0.4733770000000  0.5692680000000 1.0
C      1  0.5200280000000  0.4792880000000  0.4007410000000 1.0
C      1  0.4015810000000  0.4723320000000  0.5545470000000 1.0
C      1  0.5731810000000  0.5274090000000  0.4327290000000 1.0
C      1  0.5182540000000  0.5217460000000  0.5951520000000 1.0
C      1  0.4040940000000  0.5229640000000  0.4522040000000 1.0
C      1  0.5543270000000  0.5934640000000  0.4849650000000 1.0
C      1  0.4620470000000  0.5927380000000  0.4618480000000 1.0
C      1  0.4826140000000  0.6008790000000  0.5537470000000 1.0
C      1  0.5550450000000  0.4137600000000  0.5130480000000 1.0
C      1  0.4536070000000  0.4095620000000  0.5425340000000 1.0
C      1  0.4834290000000  0.3988030000000  0.4439370000000 1.0
C      1  0.4468530000000  0.4094290000000  0.5146510000000 1.0
C      1  0.5353820000000  0.4176030000000  0.5327360000000 1.0
C      1  0.5120440000000  0.3971050000000  0.4504630000000 1.0
C      1  0.4474220000000  0.5925470000000  0.4904030000000 1.0
C      1  0.5455520000000  0.5928390000000  0.4570260000000 1.0
C      1  0.5137700000000  0.6017660000000  0.5507590000000 1.0
C      1  0.4557990000000  0.5719620000000  0.4415650000000 1.0
C      1  0.4740850000000  0.5733140000000  0.5600320000000 1.0
C      1  0.5695200000000  0.5697400000000  0.4928350000000 1.0
C      1  0.4564720000000  0.4332750000000  0.5574450000000 1.0
C      1  0.4751360000000  0.4252780000000  0.4357290000000 1.0
C      1  0.5723920000000  0.4349950000000  0.5070600000000 1.0
C      1  0.5398860000000  0.4346360000000  0.5552480000000 1.0
C      1  0.5229500000000  0.4244330000000  0.4499950000000 1.0
C      1  0.4313150000000  0.4325820000000  0.5054970000000 1.0
C      1  0.5420130000000  0.5692120000000  0.4410660000000 1.0
C      1  0.5227410000000  0.5740150000000  0.5551530000000 1.0
C      1  0.4299070000000  0.5697060000000  0.4951920000000 1.0
C      1  0.5563610000000  0.4811720000000  0.4995240000000 1.0
C      1  0.4733540000000  0.4771570000000  0.4454070000000 1.0
C      1  0.4702860000000  0.4791170000000  0.5461850000000 1.0
C      1  0.5558540000000  0.5101730000000  0.5068070000000 1.0
C      1  0.4735770000000  0.5182010000000  0.5526330000000 1.0
C      1  0.4717550000000  0.5281580000000  0.4523740000000 1.0
C      1  0.4461000000000  0.5091010000000  0.5078550000000 1.0
C      1  0.5305370000000  0.5138340000000  0.5467660000000 1.0
C      1  0.5287570000000  0.5223810000000  0.4505010000000 1.0
C      1  0.4450960000000  0.4799900000000  0.4993710000000 1.0
C      1  0.5289830000000  0.4834770000000  0.4486910000000 1.0
C      1  0.5279790000000  0.4817630000000  0.5475050000000 1.0
C      1  0.4791210000000  0.5718380000000  0.4238630000000 1.0
C      1  0.4464370000000  0.5677530000000  0.5536460000000 1.0
C      1  0.5754460000000  0.5694860000000  0.5206900000000 1.0
C      1  0.4791500000000  0.4315000000000  0.5745210000000 1.0
C      1  0.4483040000000  0.4315740000000  0.4452130000000 1.0
C      1  0.5781810000000  0.4322570000000  0.4794020000000 1.0
C      1  0.5178460000000  0.4320160000000  0.5731830000000 1.0
C      1  0.5518020000000  0.4301160000000  0.4514290000000 1.0
C      1  0.4269040000000  0.4312530000000  0.4773810000000 1.0
C      1  0.5177990000000  0.5707780000000  0.4256090000000 1.0
C      1  0.5502310000000  0.5681560000000  0.5499130000000 1.0
C      1  0.4230410000000  0.5682310000000  0.5228480000000 1.0
C      1  0.5282530000000  0.4730540000000  0.4977430000000 1.0
C      1  0.4869100000000  0.4692560000000  0.4706160000000 1.0
C      1  0.4859740000000  0.4715020000000  0.5219910000000 1.0
C      1  0.5331780000000  0.5295480000000  0.4991350000000 1.0
C      1  0.4863010000000  0.5304590000000  0.5267310000000 1.0
C      1  0.4856530000000  0.5264130000000  0.4773480000000 1.0
C      1  0.4679800000000  0.5298970000000  0.5018280000000 1.0
C      1  0.5161060000000  0.5266290000000  0.5231360000000 1.0
C      1  0.5145640000000  0.5255180000000  0.4759930000000 1.0
C      1  0.4731110000000  0.4718520000000  0.4961130000000 1.0
C      1  0.5157700000000  0.4715200000000  0.4722280000000 1.0
C      1  0.5137310000000  0.4735320000000  0.5226130000000 1.0
C      1  0.4464260000000  0.4604330000000  0.5478360000000 1.0
C      1  0.5963060000000  0.4740560000000  0.5279600000000 1.0
C      1  0.4769550000000  0.4655640000000  0.4173890000000 1.0
C      1  0.4473200000000  0.5440520000000  0.4527080000000 1.0
C      1  0.5912640000000  0.5299900000000  0.4765370000000 1.0
C      1  0.4737600000000  0.5349470000000  0.5817580000000 1.0
C      1  0.5524170000000  0.5417880000000  0.4503330000000 1.0
C      1  0.4102590000000  0.5293780000000  0.4792780000000 1.0
C      1  0.5142130000000  0.5271420000000  0.5672900000000 1.0
C      1  0.5525010000000  0.4623450000000  0.5487230000000 1.0
C      1  0.4040620000000  0.4710480000000  0.5264800000000 1.0
C      1  0.5199550000000  0.4665800000000  0.4270460000000 1.0
C      1  0.4372450000000  0.5434920000000  0.4825110000000 1.0
C      1  0.4315970000000  0.4601220000000  0.5198520000000 1.0
C      1  0.5693630000000  0.4624830000000  0.5205490000000 1.0
C      1  0.5639730000000  0.5431030000000  0.4796440000000 1.0
C      1  0.5000340000000  0.5544440000000  0.5597840000000 1.0
C      1  0.5011600000000  0.4434110000000  0.4386030000000 1.0
END
