TITL C-3577084-3642-468 -8.96818461610714e-07 125000 -804.522367171357 0 0 127 (C1) n - 1
REM
REM in /home/bkarasulu/work/CARBON/AIRSS/Generating-Clusters/EDIP-Nigel-Params/with-SteepDescent/Higher-Symm/SD-CG/HFTN-CG
REM
REM
REM
REM
REM
REM ./C.cell (12c818d87b63d06a65506943cc24bca4)
REM
REM compiler GCC version 9.2.1 20190827 (Red Hat 9.2.1-1)
REM options -cpp -mtune=generic -march=x86-64 -g -O0 -fpre-include=/usr/include/finclude/math-vector-fortran.h
REM seed -795971187 -1691871603 1084517675 351405064 2057164033 561957714 412618784 -674419766 582005754 184087071 1909642757 732384415 1929129088 82211546 1297645422 1461489745 1056620182 -1556460699 54762571 -1341081792 1107475989 254966440 -1968527736 -1598528575 2023583893 -675370787 -1454342302 -344026124 -307428438 -513736232 1258248316 -1014016149 1378936277
REM
CELL 1.54180   50.00000   50.00000   50.00000   90.00000   90.00000   90.00000
LATT -1
SFAC C  
C      1  0.5232750000000  0.5462120000000  0.5707820000000 1.0
C      1  0.4635560000000  0.5368980000000  0.5735690000000 1.0
C      1  0.4623350000000  0.4430180000000  0.5722060000000 1.0
C      1  0.5612210000000  0.4619970000000  0.5727930000000 1.0
C      1  0.5503840000000  0.5691290000000  0.4247870000000 1.0
C      1  0.4618110000000  0.5259000000000  0.4411890000000 1.0
C      1  0.4597810000000  0.4414420000000  0.4349930000000 1.0
C      1  0.5392730000000  0.4747390000000  0.4260060000000 1.0
C      1  0.5150200000000  0.5522610000000  0.5116880000000 1.0
C      1  0.4509480000000  0.5142040000000  0.5178200000000 1.0
C      1  0.4848550000000  0.4506520000000  0.5185060000000 1.0
C      1  0.5507370000000  0.4834720000000  0.5187010000000 1.0
C      1  0.5260640000000  0.5522940000000  0.4830160000000 1.0
C      1  0.4483160000000  0.5200030000000  0.4878200000000 1.0
C      1  0.4791190000000  0.4500510000000  0.4885520000000 1.0
C      1  0.5492120000000  0.4704120000000  0.4926770000000 1.0
C      1  0.5273930000000  0.4988040000000  0.4075130000000 1.0
C      1  0.5461420000000  0.5490160000000  0.4044290000000 1.0
C      1  0.4876490000000  0.5217720000000  0.4245620000000 1.0
C      1  0.4899760000000  0.4749140000000  0.4248720000000 1.0
C      1  0.5390180000000  0.4687440000000  0.5891940000000 1.0
C      1  0.5189020000000  0.5184340000000  0.5760730000000 1.0
C      1  0.4730740000000  0.5233700000000  0.5966680000000 1.0
C      1  0.4910310000000  0.4792780000000  0.5792530000000 1.0
C      1  0.5770170000000  0.4452830000000  0.5293230000000 1.0
C      1  0.5502850000000  0.5770050000000  0.5375510000000 1.0
C      1  0.4216650000000  0.5536990000000  0.5561580000000 1.0
C      1  0.4472280000000  0.4230510000000  0.5321210000000 1.0
C      1  0.5787070000000  0.4511260000000  0.4598050000000 1.0
C      1  0.5725830000000  0.5834250000000  0.4657530000000 1.0
C      1  0.4347790000000  0.5624340000000  0.4559990000000 1.0
C      1  0.4292930000000  0.4152440000000  0.4617530000000 1.0
C      1  0.4909600000000  0.5942060000000  0.5072010000000 1.0
C      1  0.4052880000000  0.4987820000000  0.5167680000000 1.0
C      1  0.4991030000000  0.4059930000000  0.5183250000000 1.0
C      1  0.5928460000000  0.4994940000000  0.5140100000000 1.0
C      1  0.4980660000000  0.5934150000000  0.4788800000000 1.0
C      1  0.4054270000000  0.4976380000000  0.4862330000000 1.0
C      1  0.4998810000000  0.4087770000000  0.4883920000000 1.0
C      1  0.5881720000000  0.4997360000000  0.4838510000000 1.0
C      1  0.5113960000000  0.5357410000000  0.4354270000000 1.0
C      1  0.4646020000000  0.4699200000000  0.4406090000000 1.0
C      1  0.5134890000000  0.4678850000000  0.4406660000000 1.0
C      1  0.5362350000000  0.5260500000000  0.4194560000000 1.0
C      1  0.4877460000000  0.5407320000000  0.5566190000000 1.0
C      1  0.4664670000000  0.4717230000000  0.5632790000000 1.0
C      1  0.5164040000000  0.4640730000000  0.5713810000000 1.0
C      1  0.5319880000000  0.5064100000000  0.5523500000000 1.0
C      1  0.5755220000000  0.5245500000000  0.5221770000000 1.0
C      1  0.4660830000000  0.5745310000000  0.5169710000000 1.0
C      1  0.4210150000000  0.4733770000000  0.5246810000000 1.0
C      1  0.5244100000000  0.4226320000000  0.5251580000000 1.0
C      1  0.5743620000000  0.5266740000000  0.4779230000000 1.0
C      1  0.4771560000000  0.5746980000000  0.4696430000000 1.0
C      1  0.4188100000000  0.4707980000000  0.4791930000000 1.0
C      1  0.5258840000000  0.4256180000000  0.4804550000000 1.0
C      1  0.4362270000000  0.4883500000000  0.5681050000000 1.0
C      1  0.5122370000000  0.4342460000000  0.5696900000000 1.0
C      1  0.5602900000000  0.5084920000000  0.5638010000000 1.0
C      1  0.4905900000000  0.5729770000000  0.5587310000000 1.0
C      1  0.4371510000000  0.4830010000000  0.4355720000000 1.0
C      1  0.5096120000000  0.4376770000000  0.4407210000000 1.0
C      1  0.5574750000000  0.5176140000000  0.4378210000000 1.0
C      1  0.5040750000000  0.5643950000000  0.4291380000000 1.0
C      1  0.4191410000000  0.4631670000000  0.4493000000000 1.0
C      1  0.5346210000000  0.4259450000000  0.4510450000000 1.0
C      1  0.5753480000000  0.5363020000000  0.4504160000000 1.0
C      1  0.4770080000000  0.5737320000000  0.4399260000000 1.0
C      1  0.4228070000000  0.4654080000000  0.5534870000000 1.0
C      1  0.5344540000000  0.4229800000000  0.5530350000000 1.0
C      1  0.5702710000000  0.5326220000000  0.5512150000000 1.0
C      1  0.4641860000000  0.5788570000000  0.5474790000000 1.0
C      1  0.5478320000000  0.5127960000000  0.5107110000000 1.0
C      1  0.4845650000000  0.5493570000000  0.5108220000000 1.0
C      1  0.4497560000000  0.4840680000000  0.5170460000000 1.0
C      1  0.5146150000000  0.4524690000000  0.5196950000000 1.0
C      1  0.5385270000000  0.5105130000000  0.4770520000000 1.0
C      1  0.4829510000000  0.5469210000000  0.4811270000000 1.0
C      1  0.4468610000000  0.4807970000000  0.4865940000000 1.0
C      1  0.5229680000000  0.4569830000000  0.4898270000000 1.0
C      1  0.4273130000000  0.5157550000000  0.5590110000000 1.0
C      1  0.4844770000000  0.4257440000000  0.5617000000000 1.0
C      1  0.5760220000000  0.4840780000000  0.5596770000000 1.0
C      1  0.5140860000000  0.5863470000000  0.5475710000000 1.0
C      1  0.4345700000000  0.5112550000000  0.4439860000000 1.0
C      1  0.4818500000000  0.4254450000000  0.4471870000000 1.0
C      1  0.5574920000000  0.4896480000000  0.4447420000000 1.0
C      1  0.5266860000000  0.5797170000000  0.4394530000000 1.0
C      1  0.5577440000000  0.5698250000000  0.5082700000000 1.0
C      1  0.4174850000000  0.5573900000000  0.5276380000000 1.0
C      1  0.4355050000000  0.4291880000000  0.5061670000000 1.0
C      1  0.5695870000000  0.4325630000000  0.5035780000000 1.0
C      1  0.5523720000000  0.5879210000000  0.4847610000000 1.0
C      1  0.4246700000000  0.5561830000000  0.4810750000000 1.0
C      1  0.4469120000000  0.4140250000000  0.4833350000000 1.0
C      1  0.5852840000000  0.4328830000000  0.4801070000000 1.0
C      1  0.4719340000000  0.5216370000000  0.4702350000000 1.0
C      1  0.4707910000000  0.4730740000000  0.4718940000000 1.0
C      1  0.5151940000000  0.4853590000000  0.4691510000000 1.0
C      1  0.5153820000000  0.5299230000000  0.4665610000000 1.0
C      1  0.4771930000000  0.5275100000000  0.5288480000000 1.0
C      1  0.4721730000000  0.4730080000000  0.5329910000000 1.0
C      1  0.5243290000000  0.4744580000000  0.5427730000000 1.0
C      1  0.5268330000000  0.5262120000000  0.5269660000000 1.0
C      1  0.5482840000000  0.5528770000000  0.5551770000000 1.0
C      1  0.4476040000000  0.5610420000000  0.5662760000000 1.0
C      1  0.4373230000000  0.4384070000000  0.5566170000000 1.0
C      1  0.5590190000000  0.4402930000000  0.5531440000000 1.0
C      1  0.5720040000000  0.5650430000000  0.4442980000000 1.0
C      1  0.4541500000000  0.5547810000000  0.4373090000000 1.0
C      1  0.4317900000000  0.4362940000000  0.4435060000000 1.0
C      1  0.5561420000000  0.4439240000000  0.4421060000000 1.0
C      1  0.4761990000000  0.4231220000000  0.4769560000000 1.0
C      1  0.5695190000000  0.4779540000000  0.4708050000000 1.0
C      1  0.5256130000000  0.5801620000000  0.4709330000000 1.0
C      1  0.4219020000000  0.5197310000000  0.4721030000000 1.0
C      1  0.4779890000000  0.4236830000000  0.5321560000000 1.0
C      1  0.5783610000000  0.4771110000000  0.5302240000000 1.0
C      1  0.5165080000000  0.5825260000000  0.5189250000000 1.0
C      1  0.4237820000000  0.5197580000000  0.5295700000000 1.0
C      1  0.5767610000000  0.5471680000000  0.5020310000000 1.0
C      1  0.4358090000000  0.5661110000000  0.5068410000000 1.0
C      1  0.5452970000000  0.4168290000000  0.5030200000000 1.0
C      1  0.4155110000000  0.4511140000000  0.5034450000000 1.0
C      1  0.4971250000000  0.4984000000000  0.4098750000000 1.0
C      1  0.4939800000000  0.5072650000000  0.5851760000000 1.0
C      1  0.4882850000000  0.4961070000000  0.4753800000000 1.0
END
