TITL C-3578195-8548-42 -6.29390910413613e-07 125000 -310.667472165775 0 0 50 (C1) n - 1
REM
REM in /home/bkarasulu/work/CARBON/AIRSS/Generating-Clusters/EDIP-Nigel-Params/with-SteepDescent/Higher-Symm/SD-CG/HFTN-CG
REM
REM
REM
REM
REM
REM ./C.cell (12c818d87b63d06a65506943cc24bca4)
REM
REM compiler GCC version 9.2.1 20190827 (Red Hat 9.2.1-1)
REM options -cpp -mtune=generic -march=x86-64 -g -O0 -fpre-include=/usr/include/finclude/math-vector-fortran.h
REM seed 529262126 356607142 -1305304514 -1858452942 -2058973316 -1542638669 -1034796579 -930190295 1059598521 -1861466287 1019242642 -1953135191 2057283700 1304111477 350924982 -2129853757 -1872835651 -1605356074 897162510 287391720 -1393696311 -1055488067 887655117 1326752737 1151696681 713051631 176579501 -2127598623 660853722 -406360496 -2094345362 -1695290778 -1048436577
REM
CELL 1.54180   50.00000   50.00000   50.00000   90.00000   90.00000   90.00000
LATT -1
SFAC C  
C      1  0.4286480000000  0.5449980000000  0.5376880000000 1.0
C      1  0.5729490000000  0.4991880000000  0.5275140000000 1.0
C      1  0.4249070000000  0.4966480000000  0.5313950000000 1.0
C      1  0.5707510000000  0.4605770000000  0.5257510000000 1.0
C      1  0.4287230000000  0.4509920000000  0.5141970000000 1.0
C      1  0.5759140000000  0.4785390000000  0.4816320000000 1.0
C      1  0.4274550000000  0.4771150000000  0.4856850000000 1.0
C      1  0.5707000000000  0.4986230000000  0.4487980000000 1.0
C      1  0.4389260000000  0.5090240000000  0.4512060000000 1.0
C      1  0.5611020000000  0.5242680000000  0.4868910000000 1.0
C      1  0.4399120000000  0.5263650000000  0.4944060000000 1.0
C      1  0.5633190000000  0.5474710000000  0.5278230000000 1.0
C      1  0.4734220000000  0.4825380000000  0.4681220000000 1.0
C      1  0.5302150000000  0.5264150000000  0.4514260000000 1.0
C      1  0.4786750000000  0.5347800000000  0.4647820000000 1.0
C      1  0.5240260000000  0.5549860000000  0.4983810000000 1.0
C      1  0.4681570000000  0.5607000000000  0.5138950000000 1.0
C      1  0.5263380000000  0.5181560000000  0.5353910000000 1.0
C      1  0.4688450000000  0.5185040000000  0.5400970000000 1.0
C      1  0.5255790000000  0.4678460000000  0.5455570000000 1.0
C      1  0.4690980000000  0.4700820000000  0.5344060000000 1.0
C      1  0.5311930000000  0.4573810000000  0.4975530000000 1.0
C      1  0.4739440000000  0.4398540000000  0.4940600000000 1.0
C      1  0.5274170000000  0.4756680000000  0.4521700000000 1.0
C      1  0.4392970000000  0.4696900000000  0.5335630000000 1.0
C      1  0.5607790000000  0.4586350000000  0.4988270000000 1.0
C      1  0.4449380000000  0.4432460000000  0.4926030000000 1.0
C      1  0.5559380000000  0.4746380000000  0.4490990000000 1.0
C      1  0.4449140000000  0.4838260000000  0.4623830000000 1.0
C      1  0.5592920000000  0.5239890000000  0.4579100000000 1.0
C      1  0.4482810000000  0.5305070000000  0.4667730000000 1.0
C      1  0.5539020000000  0.5484570000000  0.5013290000000 1.0
C      1  0.4400820000000  0.5499390000000  0.5120800000000 1.0
C      1  0.5554610000000  0.5218790000000  0.5369060000000 1.0
C      1  0.4396550000000  0.5197330000000  0.5446580000000 1.0
C      1  0.5544270000000  0.4708560000000  0.5461040000000 1.0
C      1  0.5154640000000  0.5486690000000  0.4660260000000 1.0
C      1  0.4861130000000  0.5553420000000  0.4894830000000 1.0
C      1  0.5109630000000  0.5393220000000  0.5223190000000 1.0
C      1  0.4834590000000  0.5425950000000  0.5316660000000 1.0
C      1  0.5118550000000  0.4940800000000  0.5437650000000 1.0
C      1  0.4828740000000  0.4936450000000  0.5439580000000 1.0
C      1  0.5160100000000  0.4509360000000  0.5222310000000 1.0
C      1  0.4854880000000  0.4491580000000  0.5207130000000 1.0
C      1  0.5170500000000  0.4554750000000  0.4715240000000 1.0
C      1  0.4868000000000  0.4561810000000  0.4721000000000 1.0
C      1  0.5166040000000  0.5020340000000  0.4584250000000 1.0
C      1  0.4887460000000  0.5058840000000  0.4603100000000 1.0
C      1  0.4235090000000  0.5025550000000  0.5017150000000 1.0
C      1  0.5778830000000  0.5034670000000  0.4982580000000 1.0
END
