TITL C-3578203-1966-401 -2.26427490460785e-06 125000 -474.780570682653 0 0 77 (C1) n - 1
REM
REM in /home/bkarasulu/work/CARBON/AIRSS/Generating-Clusters/EDIP-Nigel-Params/with-SteepDescent/Higher-Symm/SD-CG/HFTN-CG
REM
REM
REM
REM
REM
REM ./C.cell (12c818d87b63d06a65506943cc24bca4)
REM
REM compiler GCC version 9.2.1 20190827 (Red Hat 9.2.1-1)
REM options -cpp -mtune=generic -march=x86-64 -g -O0 -fpre-include=/usr/include/finclude/math-vector-fortran.h
REM seed -534140352 -1823116709 -1743210574 1670629925 -1069275520 -1051286031 -2061422083 1677298269 600373934 -1076147376 658397955 201016140 -1667600750 153276621 -2007577919 546689776 -259503946 -1766205762 2038967825 653320528 -1236633734 -1674812674 1761641044 293055385 1495777404 1606983420 -279575604 1749684915 1256524276 -1616413433 1920671858 1030987127 -1749924934
REM
CELL 1.54180   50.00000   50.00000   50.00000   90.00000   90.00000   90.00000
LATT -1
SFAC C  
C      1  0.5519630000000  0.4505090000000  0.5382770000000 1.0
C      1  0.5553250000000  0.4556140000000  0.4651540000000 1.0
C      1  0.4815740000000  0.4962730000000  0.4582080000000 1.0
C      1  0.4924530000000  0.5179820000000  0.5547430000000 1.0
C      1  0.4932940000000  0.4975360000000  0.4329360000000 1.0
C      1  0.4944930000000  0.4974380000000  0.5732780000000 1.0
C      1  0.5645370000000  0.5177130000000  0.5475850000000 1.0
C      1  0.5743870000000  0.5216490000000  0.4610500000000 1.0
C      1  0.5454470000000  0.5380990000000  0.5483530000000 1.0
C      1  0.5553520000000  0.5417290000000  0.4566040000000 1.0
C      1  0.5119020000000  0.4826620000000  0.4204840000000 1.0
C      1  0.5046030000000  0.4734380000000  0.5797140000000 1.0
C      1  0.5277420000000  0.5327610000000  0.4572120000000 1.0
C      1  0.5164260000000  0.5326590000000  0.5457960000000 1.0
C      1  0.5071080000000  0.5492840000000  0.4717700000000 1.0
C      1  0.5067100000000  0.5521800000000  0.5259310000000 1.0
C      1  0.5570950000000  0.5626510000000  0.4776360000000 1.0
C      1  0.5515990000000  0.5598870000000  0.5288580000000 1.0
C      1  0.4776580000000  0.5557280000000  0.5345380000000 1.0
C      1  0.4771850000000  0.5454090000000  0.4624410000000 1.0
C      1  0.4855340000000  0.4139710000000  0.4704620000000 1.0
C      1  0.4725420000000  0.4226910000000  0.5153410000000 1.0
C      1  0.4364390000000  0.5077860000000  0.4645240000000 1.0
C      1  0.4411900000000  0.5199330000000  0.5493050000000 1.0
C      1  0.5479670000000  0.4567370000000  0.5654840000000 1.0
C      1  0.5535060000000  0.4664410000000  0.4391970000000 1.0
C      1  0.5795180000000  0.4566840000000  0.4790220000000 1.0
C      1  0.5765360000000  0.4550990000000  0.5259680000000 1.0
C      1  0.4626930000000  0.4503530000000  0.5551870000000 1.0
C      1  0.4664950000000  0.4512030000000  0.4469130000000 1.0
C      1  0.5097540000000  0.4370120000000  0.5469790000000 1.0
C      1  0.5138660000000  0.4464110000000  0.4521250000000 1.0
C      1  0.4147110000000  0.5133200000000  0.4832890000000 1.0
C      1  0.4179050000000  0.5204200000000  0.5317030000000 1.0
C      1  0.4818110000000  0.4387430000000  0.5384550000000 1.0
C      1  0.4881310000000  0.4330230000000  0.4499840000000 1.0
C      1  0.4649440000000  0.5182380000000  0.4710550000000 1.0
C      1  0.4679910000000  0.5265480000000  0.5370840000000 1.0
C      1  0.5306440000000  0.4341990000000  0.5266200000000 1.0
C      1  0.5327280000000  0.4383310000000  0.4729240000000 1.0
C      1  0.5201960000000  0.4530460000000  0.5690570000000 1.0
C      1  0.5268220000000  0.4620290000000  0.4316300000000 1.0
C      1  0.5318090000000  0.5773020000000  0.4773230000000 1.0
C      1  0.5261870000000  0.5759570000000  0.5257350000000 1.0
C      1  0.4633420000000  0.5739970000000  0.5174060000000 1.0
C      1  0.4620330000000  0.5677250000000  0.4741650000000 1.0
C      1  0.4657980000000  0.4721180000000  0.4655480000000 1.0
C      1  0.4597630000000  0.4766060000000  0.5456560000000 1.0
C      1  0.4392710000000  0.4792600000000  0.4601090000000 1.0
C      1  0.4454200000000  0.4950190000000  0.5615830000000 1.0
C      1  0.5812420000000  0.5082620000000  0.5272600000000 1.0
C      1  0.5864420000000  0.5097880000000  0.4833170000000 1.0
C      1  0.5407100000000  0.4964550000000  0.4989780000000 1.0
C      1  0.5698540000000  0.4886560000000  0.5030370000000 1.0
C      1  0.4707490000000  0.4625640000000  0.4953440000000 1.0
C      1  0.4446010000000  0.5594120000000  0.4989390000000 1.0
C      1  0.4099140000000  0.4943380000000  0.5044400000000 1.0
C      1  0.4527950000000  0.4376610000000  0.4987500000000 1.0
C      1  0.5166370000000  0.4364400000000  0.4994250000000 1.0
C      1  0.5008100000000  0.4619550000000  0.5002860000000 1.0
C      1  0.4173280000000  0.5631040000000  0.5030950000000 1.0
C      1  0.4078450000000  0.5379850000000  0.5107830000000 1.0
C      1  0.5133910000000  0.4874000000000  0.5040200000000 1.0
C      1  0.5893270000000  0.4496840000000  0.5030060000000 1.0
C      1  0.5859150000000  0.5291990000000  0.5061050000000 1.0
C      1  0.4269710000000  0.4453270000000  0.5087350000000 1.0
C      1  0.4991280000000  0.6054270000000  0.4975540000000 1.0
C      1  0.5094760000000  0.5355840000000  0.4995370000000 1.0
C      1  0.4957340000000  0.5098650000000  0.5013210000000 1.0
C      1  0.4814540000000  0.5834230000000  0.4948770000000 1.0
C      1  0.4573630000000  0.4820630000000  0.5156620000000 1.0
C      1  0.5600610000000  0.5455610000000  0.5029810000000 1.0
C      1  0.4293290000000  0.4737510000000  0.5094880000000 1.0
C      1  0.4949560000000  0.4152200000000  0.4970230000000 1.0
C      1  0.5379250000000  0.5257790000000  0.4937210000000 1.0
C      1  0.4673630000000  0.5109850000000  0.5091000000000 1.0
C      1  0.5243700000000  0.5926350000000  0.5007280000000 1.0
END
