TITL C-3577076-40-506 -8.33863692438345e-08 125000 -768.078498816907 0 0 123 (C1) n - 1
REM
REM in /home/bkarasulu/work/CARBON/AIRSS/Generating-Clusters/EDIP-Nigel-Params/with-SteepDescent/Higher-Symm/SD-CG/HFTN-CG
REM
REM
REM
REM
REM
REM ./C.cell (12c818d87b63d06a65506943cc24bca4)
REM
REM compiler GCC version 9.2.1 20190827 (Red Hat 9.2.1-1)
REM options -cpp -mtune=generic -march=x86-64 -g -O0 -fpre-include=/usr/include/finclude/math-vector-fortran.h
REM seed -902163500 656435403 -1085964520 -2106381464 -696528290 -385249625 1911048992 1177627636 142112333 1277903704 921646621 8995740 -839685782 -1521787459 833838683 -1188984860 647347102 -1821337684 -2085267668 1812436567 -1881050656 -1217883392 358324199 -1633119145 1177683803 -913022909 778412935 -1799141312 569786680 1988048379 -2018174257 1666745298 269913453
REM
CELL 1.54180   50.00000   50.00000   50.00000   90.00000   90.00000   90.00000
LATT -1
SFAC C  
C      1  0.5333330000000  0.5185880000000  0.5808500000000 1.0
C      1  0.4587720000000  0.5206350000000  0.4170400000000 1.0
C      1  0.4753730000000  0.5877350000000  0.5159270000000 1.0
C      1  0.5273590000000  0.5849110000000  0.4814360000000 1.0
C      1  0.5707670000000  0.5100870000000  0.4262150000000 1.0
C      1  0.4322470000000  0.5091490000000  0.5759630000000 1.0
C      1  0.4293670000000  0.4720710000000  0.4465350000000 1.0
C      1  0.5749220000000  0.4651710000000  0.5533160000000 1.0
C      1  0.4852690000000  0.5030660000000  0.4180730000000 1.0
C      1  0.5132460000000  0.4961040000000  0.5876970000000 1.0
C      1  0.5264290000000  0.4627430000000  0.4877830000000 1.0
C      1  0.4666650000000  0.4518980000000  0.5160640000000 1.0
C      1  0.4724570000000  0.4282920000000  0.5526160000000 1.0
C      1  0.5279670000000  0.4290990000000  0.4489250000000 1.0
C      1  0.4825400000000  0.4871040000000  0.5522820000000 1.0
C      1  0.5169100000000  0.4877050000000  0.4452070000000 1.0
C      1  0.5557520000000  0.4372610000000  0.4520600000000 1.0
C      1  0.4439860000000  0.4359800000000  0.5504180000000 1.0
C      1  0.5081600000000  0.5593010000000  0.5672500000000 1.0
C      1  0.4880170000000  0.5598350000000  0.4273450000000 1.0
C      1  0.5384480000000  0.5416100000000  0.4500980000000 1.0
C      1  0.4608430000000  0.5411770000000  0.5479620000000 1.0
C      1  0.5434330000000  0.4742020000000  0.5092520000000 1.0
C      1  0.4536160000000  0.4684460000000  0.4935200000000 1.0
C      1  0.4525300000000  0.5712160000000  0.5252470000000 1.0
C      1  0.5502420000000  0.5705130000000  0.4692090000000 1.0
C      1  0.5355610000000  0.5375510000000  0.5302410000000 1.0
C      1  0.4627630000000  0.5332640000000  0.4671940000000 1.0
C      1  0.4081560000000  0.5181590000000  0.5023470000000 1.0
C      1  0.5933010000000  0.5180820000000  0.5011570000000 1.0
C      1  0.5192340000000  0.4096750000000  0.4670930000000 1.0
C      1  0.4818860000000  0.4149240000000  0.5297740000000 1.0
C      1  0.5143150000000  0.4109590000000  0.4945990000000 1.0
C      1  0.4877110000000  0.4160520000000  0.5024100000000 1.0
C      1  0.4923160000000  0.4926810000000  0.5073940000000 1.0
C      1  0.5103100000000  0.5076540000000  0.4892830000000 1.0
C      1  0.5692960000000  0.5641900000000  0.4906870000000 1.0
C      1  0.4328650000000  0.5669010000000  0.5042200000000 1.0
C      1  0.5655960000000  0.4222560000000  0.4733740000000 1.0
C      1  0.4383410000000  0.4259050000000  0.5241120000000 1.0
C      1  0.5350560000000  0.4200670000000  0.5130280000000 1.0
C      1  0.4665110000000  0.4179760000000  0.4825180000000 1.0
C      1  0.5727010000000  0.5237160000000  0.5501820000000 1.0
C      1  0.4222870000000  0.5253240000000  0.4508670000000 1.0
C      1  0.5112000000000  0.5271730000000  0.5441290000000 1.0
C      1  0.4865010000000  0.5236060000000  0.4507930000000 1.0
C      1  0.4837190000000  0.4450990000000  0.4302670000000 1.0
C      1  0.5175290000000  0.4455520000000  0.5669030000000 1.0
C      1  0.4594690000000  0.4824940000000  0.4465490000000 1.0
C      1  0.5500370000000  0.4795650000000  0.5613070000000 1.0
C      1  0.5661630000000  0.4385330000000  0.5437230000000 1.0
C      1  0.4342730000000  0.4418530000000  0.4529490000000 1.0
C      1  0.5824730000000  0.4743320000000  0.4767900000000 1.0
C      1  0.4162100000000  0.4732300000000  0.5251350000000 1.0
C      1  0.5298910000000  0.4751010000000  0.5373300000000 1.0
C      1  0.4716670000000  0.4636840000000  0.4685550000000 1.0
C      1  0.5511390000000  0.5162300000000  0.4650910000000 1.0
C      1  0.4508790000000  0.5135380000000  0.5364310000000 1.0
C      1  0.4165290000000  0.5099770000000  0.4757910000000 1.0
C      1  0.5823270000000  0.5082460000000  0.5262980000000 1.0
C      1  0.4645750000000  0.5910540000000  0.4427670000000 1.0
C      1  0.5412800000000  0.5899760000000  0.5546520000000 1.0
C      1  0.4800890000000  0.4983220000000  0.5794350000000 1.0
C      1  0.5231160000000  0.5020100000000  0.4189500000000 1.0
C      1  0.4095430000000  0.5018020000000  0.5268110000000 1.0
C      1  0.5915360000000  0.5024860000000  0.4759600000000 1.0
C      1  0.5349670000000  0.5476280000000  0.5732970000000 1.0
C      1  0.4600030000000  0.5493570000000  0.4260270000000 1.0
C      1  0.4424250000000  0.5476610000000  0.4528350000000 1.0
C      1  0.5562070000000  0.5494200000000  0.5475690000000 1.0
C      1  0.5867340000000  0.5166410000000  0.4505860000000 1.0
C      1  0.4156710000000  0.5152330000000  0.5520920000000 1.0
C      1  0.4147340000000  0.4820300000000  0.4710860000000 1.0
C      1  0.5867100000000  0.4796080000000  0.5291590000000 1.0
C      1  0.5572920000000  0.5070720000000  0.5692500000000 1.0
C      1  0.4345090000000  0.5073420000000  0.4303350000000 1.0
C      1  0.4593500000000  0.5407070000000  0.4956310000000 1.0
C      1  0.5363700000000  0.5467900000000  0.5020800000000 1.0
C      1  0.4365390000000  0.4795960000000  0.5791970000000 1.0
C      1  0.5653320000000  0.4805260000000  0.4242520000000 1.0
C      1  0.5559170000000  0.5225660000000  0.4938460000000 1.0
C      1  0.4462810000000  0.5165560000000  0.5073350000000 1.0
C      1  0.4885450000000  0.5463960000000  0.5364820000000 1.0
C      1  0.5081060000000  0.5456330000000  0.4570870000000 1.0
C      1  0.5616830000000  0.4185430000000  0.5008870000000 1.0
C      1  0.4408250000000  0.4218410000000  0.4958560000000 1.0
C      1  0.4356070000000  0.4653440000000  0.5508440000000 1.0
C      1  0.5626250000000  0.4671800000000  0.4529110000000 1.0
C      1  0.5267680000000  0.5892950000000  0.5103120000000 1.0
C      1  0.4771780000000  0.5937850000000  0.4866580000000 1.0
C      1  0.5128970000000  0.5855120000000  0.5549660000000 1.0
C      1  0.4922850000000  0.5844260000000  0.4423590000000 1.0
C      1  0.4894780000000  0.4386590000000  0.5735110000000 1.0
C      1  0.5123590000000  0.4385070000000  0.4262320000000 1.0
C      1  0.4351530000000  0.5714220000000  0.4749130000000 1.0
C      1  0.5700000000000  0.5699560000000  0.5192730000000 1.0
C      1  0.5004960000000  0.5864560000000  0.4704370000000 1.0
C      1  0.5030190000000  0.5869190000000  0.5271580000000 1.0
C      1  0.4745410000000  0.4730590000000  0.4220250000000 1.0
C      1  0.5289330000000  0.4696120000000  0.5812620000000 1.0
C      1  0.5498750000000  0.5884720000000  0.5276760000000 1.0
C      1  0.4535370000000  0.5933810000000  0.4690150000000 1.0
C      1  0.4230140000000  0.4648150000000  0.4937800000000 1.0
C      1  0.5739370000000  0.4657220000000  0.5059300000000 1.0
C      1  0.4972940000000  0.4992390000000  0.4623640000000 1.0
C      1  0.5047190000000  0.4959420000000  0.5361110000000 1.0
C      1  0.4862050000000  0.5457730000000  0.5065590000000 1.0
C      1  0.5091760000000  0.5382860000000  0.4892140000000 1.0
C      1  0.4754890000000  0.4524410000000  0.5932800000000 1.0
C      1  0.5268150000000  0.4545560000000  0.4086120000000 1.0
C      1  0.4645120000000  0.4359710000000  0.4570980000000 1.0
C      1  0.5356100000000  0.4353900000000  0.5411290000000 1.0
C      1  0.5777220000000  0.4370310000000  0.5160600000000 1.0
C      1  0.4220460000000  0.4374480000000  0.4801370000000 1.0
C      1  0.4634290000000  0.4955870000000  0.4981360000000 1.0
C      1  0.5372950000000  0.5023190000000  0.5038460000000 1.0
C      1  0.5433610000000  0.5252990000000  0.4232200000000 1.0
C      1  0.4602450000000  0.5235460000000  0.5762970000000 1.0
C      1  0.4600520000000  0.4756950000000  0.5371500000000 1.0
C      1  0.5384960000000  0.4823670000000  0.4644110000000 1.0
C      1  0.4631830000000  0.4775210000000  0.5933350000000 1.0
C      1  0.5398810000000  0.4792140000000  0.4079650000000 1.0
C      1  0.4976330000000  0.4638760000000  0.4972030000000 1.0
END
