TITL C-3577088-510-337 -2.662422116455e-06 125000 -1237.5824585846 0 0 198 (C1) n - 1
REM
REM in /home/bkarasulu/work/CARBON/AIRSS/Generating-Clusters/EDIP-Nigel-Params/with-SteepDescent/Higher-Symm/SD-CG/HFTN-CG
REM
REM
REM
REM
REM
REM ./C.cell (12c818d87b63d06a65506943cc24bca4)
REM
REM compiler GCC version 9.2.1 20190827 (Red Hat 9.2.1-1)
REM options -cpp -mtune=generic -march=x86-64 -g -O0 -fpre-include=/usr/include/finclude/math-vector-fortran.h
REM seed 1711882189 190404877 -427689013 442325209 -2051081125 -483276476 1875531363 1272460334 -1841402025 2085027331 -1965792047 1202202122 1618002064 462219244 808494458 1654806378 564985190 -113487141 2017153651 -1477398578 666119432 -1463621949 -1972230442 -111689112 -1376581731 1146839966 -1297346349 412716050 -953457656 -1330869274 -1714751866 -1883087062 1686255154
REM
CELL 1.54180   50.00000   50.00000   50.00000   90.00000   90.00000   90.00000
LATT -1
SFAC C  
C      1  0.4873050000000  0.6060010000000  0.4913630000000 1.0
C      1  0.5226220000000  0.3814340000000  0.4854150000000 1.0
C      1  0.4874340000000  0.5997830000000  0.5222870000000 1.0
C      1  0.5330720000000  0.3976190000000  0.5123660000000 1.0
C      1  0.5143830000000  0.6181930000000  0.4883800000000 1.0
C      1  0.4925590000000  0.3873120000000  0.4869540000000 1.0
C      1  0.5138490000000  0.6130330000000  0.5262970000000 1.0
C      1  0.4817910000000  0.3886440000000  0.5139660000000 1.0
C      1  0.5091250000000  0.4515730000000  0.5518230000000 1.0
C      1  0.4833060000000  0.5534920000000  0.5590260000000 1.0
C      1  0.5156010000000  0.4488440000000  0.4290130000000 1.0
C      1  0.4840470000000  0.5502160000000  0.4440250000000 1.0
C      1  0.4778530000000  0.4547750000000  0.5539770000000 1.0
C      1  0.5134780000000  0.5550130000000  0.5582300000000 1.0
C      1  0.4864170000000  0.4497190000000  0.4252700000000 1.0
C      1  0.5147170000000  0.5475580000000  0.4416630000000 1.0
C      1  0.5637380000000  0.5699020000000  0.5619840000000 1.0
C      1  0.4418150000000  0.4240280000000  0.5728230000000 1.0
C      1  0.5567370000000  0.5781570000000  0.4409240000000 1.0
C      1  0.4453360000000  0.4314800000000  0.4489360000000 1.0
C      1  0.4415570000000  0.5653380000000  0.5535470000000 1.0
C      1  0.5593920000000  0.4360850000000  0.5531300000000 1.0
C      1  0.4431430000000  0.5731520000000  0.4385740000000 1.0
C      1  0.5534790000000  0.4174220000000  0.4247040000000 1.0
C      1  0.4850840000000  0.5975170000000  0.4363490000000 1.0
C      1  0.5120130000000  0.4023220000000  0.4378770000000 1.0
C      1  0.4828580000000  0.5958190000000  0.5735850000000 1.0
C      1  0.5148610000000  0.4107430000000  0.5681760000000 1.0
C      1  0.5135620000000  0.5951310000000  0.4430280000000 1.0
C      1  0.4822040000000  0.4014040000000  0.4353990000000 1.0
C      1  0.5135210000000  0.5955800000000  0.5748150000000 1.0
C      1  0.4857780000000  0.4105870000000  0.5673210000000 1.0
C      1  0.4266290000000  0.5553430000000  0.4092680000000 1.0
C      1  0.5697900000000  0.4425390000000  0.4182400000000 1.0
C      1  0.4270290000000  0.5581160000000  0.5888130000000 1.0
C      1  0.5693530000000  0.4516920000000  0.5874520000000 1.0
C      1  0.5726210000000  0.5549820000000  0.4145340000000 1.0
C      1  0.4314770000000  0.4521480000000  0.4102540000000 1.0
C      1  0.5735520000000  0.5515430000000  0.5944900000000 1.0
C      1  0.4228630000000  0.4482320000000  0.5937120000000 1.0
C      1  0.4022900000000  0.4719460000000  0.4769210000000 1.0
C      1  0.6044300000000  0.5272740000000  0.4743150000000 1.0
C      1  0.3972840000000  0.4770620000000  0.5310300000000 1.0
C      1  0.6058350000000  0.5303690000000  0.5283700000000 1.0
C      1  0.6066980000000  0.4738580000000  0.4718940000000 1.0
C      1  0.3960390000000  0.5294770000000  0.4713540000000 1.0
C      1  0.6017230000000  0.4708200000000  0.5240640000000 1.0
C      1  0.3950780000000  0.5316050000000  0.5267200000000 1.0
C      1  0.5978540000000  0.5308370000000  0.5577360000000 1.0
C      1  0.4016230000000  0.4740020000000  0.5598320000000 1.0
C      1  0.5947880000000  0.5286080000000  0.4463380000000 1.0
C      1  0.4115670000000  0.4712110000000  0.4482480000000 1.0
C      1  0.4027430000000  0.5327120000000  0.5559560000000 1.0
C      1  0.5928970000000  0.4732300000000  0.5529800000000 1.0
C      1  0.4046040000000  0.5305210000000  0.4430660000000 1.0
C      1  0.5989220000000  0.4738970000000  0.4430160000000 1.0
C      1  0.5628010000000  0.5888400000000  0.5190270000000 1.0
C      1  0.4318650000000  0.4123880000000  0.5260400000000 1.0
C      1  0.5487570000000  0.5800410000000  0.4844900000000 1.0
C      1  0.4312860000000  0.4054160000000  0.4879330000000 1.0
C      1  0.4348400000000  0.5933350000000  0.5158480000000 1.0
C      1  0.5627610000000  0.4051940000000  0.5160630000000 1.0
C      1  0.4275010000000  0.5952480000000  0.4781690000000 1.0
C      1  0.5559860000000  0.4175660000000  0.4743660000000 1.0
C      1  0.5185870000000  0.4954800000000  0.4330980000000 1.0
C      1  0.4795650000000  0.5238960000000  0.4283850000000 1.0
C      1  0.5086560000000  0.4871140000000  0.5658120000000 1.0
C      1  0.4814620000000  0.5250810000000  0.5668620000000 1.0
C      1  0.4884690000000  0.4949820000000  0.4379660000000 1.0
C      1  0.5182560000000  0.5238150000000  0.4229520000000 1.0
C      1  0.4787730000000  0.4807690000000  0.5678940000000 1.0
C      1  0.5105110000000  0.5168640000000  0.5669040000000 1.0
C      1  0.4690920000000  0.4274000000000  0.4303900000000 1.0
C      1  0.5286470000000  0.5728740000000  0.4324260000000 1.0
C      1  0.4699490000000  0.4349030000000  0.5764900000000 1.0
C      1  0.5228480000000  0.5684320000000  0.5846650000000 1.0
C      1  0.5250330000000  0.4215970000000  0.4206150000000 1.0
C      1  0.4718910000000  0.5723280000000  0.4289660000000 1.0
C      1  0.5225390000000  0.4375280000000  0.5749830000000 1.0
C      1  0.4726840000000  0.5690960000000  0.5822240000000 1.0
C      1  0.5546130000000  0.5366420000000  0.5338360000000 1.0
C      1  0.4583250000000  0.4562880000000  0.5287650000000 1.0
C      1  0.5526370000000  0.5305300000000  0.4681680000000 1.0
C      1  0.4525270000000  0.4499740000000  0.4727800000000 1.0
C      1  0.4489550000000  0.5417610000000  0.5239200000000 1.0
C      1  0.5517540000000  0.4510380000000  0.5271810000000 1.0
C      1  0.4490780000000  0.5399380000000  0.4662520000000 1.0
C      1  0.5546530000000  0.4662730000000  0.4629730000000 1.0
C      1  0.4211390000000  0.4447340000000  0.4356830000000 1.0
C      1  0.5881680000000  0.5561010000000  0.4383550000000 1.0
C      1  0.4095110000000  0.4465390000000  0.5675930000000 1.0
C      1  0.5898670000000  0.5580320000000  0.5700260000000 1.0
C      1  0.5908130000000  0.4443980000000  0.4383070000000 1.0
C      1  0.4090890000000  0.5570930000000  0.4318470000000 1.0
C      1  0.5865180000000  0.4464830000000  0.5643220000000 1.0
C      1  0.4124960000000  0.5596720000000  0.5634430000000 1.0
C      1  0.6274010000000  0.4841460000000  0.5154920000000 1.0
C      1  0.3718300000000  0.5173870000000  0.5148720000000 1.0
C      1  0.6304200000000  0.4857120000000  0.4843520000000 1.0
C      1  0.3732110000000  0.5147800000000  0.4826390000000 1.0
C      1  0.3736280000000  0.4871260000000  0.5170780000000 1.0
C      1  0.6291520000000  0.5154940000000  0.5170060000000 1.0
C      1  0.3767160000000  0.4845320000000  0.4857320000000 1.0
C      1  0.6296910000000  0.5161720000000  0.4851670000000 1.0
C      1  0.5330430000000  0.5281690000000  0.3979520000000 1.0
C      1  0.4757960000000  0.4754820000000  0.4170020000000 1.0
C      1  0.5265030000000  0.5303260000000  0.5911610000000 1.0
C      1  0.4672630000000  0.4699620000000  0.5940440000000 1.0
C      1  0.4691670000000  0.5282170000000  0.4010010000000 1.0
C      1  0.5276510000000  0.4734600000000  0.4147380000000 1.0
C      1  0.4683600000000  0.5322120000000  0.5937350000000 1.0
C      1  0.5252200000000  0.4735960000000  0.5876780000000 1.0
C      1  0.4291720000000  0.5644820000000  0.5109600000000 1.0
C      1  0.5673230000000  0.4334180000000  0.5082050000000 1.0
C      1  0.4263640000000  0.5652090000000  0.4789280000000 1.0
C      1  0.5742850000000  0.4418580000000  0.4651080000000 1.0
C      1  0.5694470000000  0.5599070000000  0.5165410000000 1.0
C      1  0.4295940000000  0.4413020000000  0.5347990000000 1.0
C      1  0.5678580000000  0.5564300000000  0.4766160000000 1.0
C      1  0.4332270000000  0.4346910000000  0.4922360000000 1.0
C      1  0.4674540000000  0.3898130000000  0.4580960000000 1.0
C      1  0.5274350000000  0.6134290000000  0.4620110000000 1.0
C      1  0.4701200000000  0.3927490000000  0.5498340000000 1.0
C      1  0.5276930000000  0.6017430000000  0.5492060000000 1.0
C      1  0.5309330000000  0.3859360000000  0.4555040000000 1.0
C      1  0.4685840000000  0.6079640000000  0.4576330000000 1.0
C      1  0.5324650000000  0.3953210000000  0.5506900000000 1.0
C      1  0.4699140000000  0.6055550000000  0.5472170000000 1.0
C      1  0.5557120000000  0.4814210000000  0.4877820000000 1.0
C      1  0.4437850000000  0.5134640000000  0.4829080000000 1.0
C      1  0.5585730000000  0.4791320000000  0.5196350000000 1.0
C      1  0.4430190000000  0.5137360000000  0.5130260000000 1.0
C      1  0.4596530000000  0.4870610000000  0.4810160000000 1.0
C      1  0.5560910000000  0.5108290000000  0.4893260000000 1.0
C      1  0.4627780000000  0.4870560000000  0.5133870000000 1.0
C      1  0.5568280000000  0.5122830000000  0.5189260000000 1.0
C      1  0.5239930000000  0.4537100000000  0.4602190000000 1.0
C      1  0.5037710000000  0.5175090000000  0.4810860000000 1.0
C      1  0.5217920000000  0.4498600000000  0.5239030000000 1.0
C      1  0.4980520000000  0.5224920000000  0.5098490000000 1.0
C      1  0.5010930000000  0.4663690000000  0.4797370000000 1.0
C      1  0.5227890000000  0.5389890000000  0.4693160000000 1.0
C      1  0.5108130000000  0.4735620000000  0.5073600000000 1.0
C      1  0.5245400000000  0.5397560000000  0.5322670000000 1.0
C      1  0.4378230000000  0.5317810000000  0.5924600000000 1.0
C      1  0.5554760000000  0.4766680000000  0.5846820000000 1.0
C      1  0.4402170000000  0.5295530000000  0.4086430000000 1.0
C      1  0.5576060000000  0.4705070000000  0.4152900000000 1.0
C      1  0.5569330000000  0.5285530000000  0.5881810000000 1.0
C      1  0.4367800000000  0.4738040000000  0.5949090000000 1.0
C      1  0.5604560000000  0.5288760000000  0.4110130000000 1.0
C      1  0.4456610000000  0.4760430000000  0.4162610000000 1.0
C      1  0.5246090000000  0.4257920000000  0.4731340000000 1.0
C      1  0.4695100000000  0.5566710000000  0.4836170000000 1.0
C      1  0.5153980000000  0.4230000000000  0.5107860000000 1.0
C      1  0.4755670000000  0.5466600000000  0.5103930000000 1.0
C      1  0.4795190000000  0.4428730000000  0.4842630000000 1.0
C      1  0.5198800000000  0.5659420000000  0.4850760000000 1.0
C      1  0.4723370000000  0.4366270000000  0.5119990000000 1.0
C      1  0.5173900000000  0.5622470000000  0.5145180000000 1.0
C      1  0.4328050000000  0.4897570000000  0.4382090000000 1.0
C      1  0.5667930000000  0.5164540000000  0.4397110000000 1.0
C      1  0.4229110000000  0.4886140000000  0.5731560000000 1.0
C      1  0.5686270000000  0.5198420000000  0.5614350000000 1.0
C      1  0.5692700000000  0.4837370000000  0.4395430000000 1.0
C      1  0.4325730000000  0.5198950000000  0.4370530000000 1.0
C      1  0.5684330000000  0.4893980000000  0.5613640000000 1.0
C      1  0.4232520000000  0.5172180000000  0.5715860000000 1.0
C      1  0.5591830000000  0.4064880000000  0.5460700000000 1.0
C      1  0.4433010000000  0.5934400000000  0.5431770000000 1.0
C      1  0.5577080000000  0.3990710000000  0.4503980000000 1.0
C      1  0.4412790000000  0.5988070000000  0.4539480000000 1.0
C      1  0.4422110000000  0.4020930000000  0.5515490000000 1.0
C      1  0.5551310000000  0.5921420000000  0.5459720000000 1.0
C      1  0.4416230000000  0.4039170000000  0.4613300000000 1.0
C      1  0.5537360000000  0.6000410000000  0.4629330000000 1.0
C      1  0.4050580000000  0.4517400000000  0.5212710000000 1.0
C      1  0.5988080000000  0.5549930000000  0.5142940000000 1.0
C      1  0.4069520000000  0.4480620000000  0.4925530000000 1.0
C      1  0.5978320000000  0.5533680000000  0.4844250000000 1.0
C      1  0.5959270000000  0.4445010000000  0.5103090000000 1.0
C      1  0.3992760000000  0.5569000000000  0.5129970000000 1.0
C      1  0.5994720000000  0.4474740000000  0.4816530000000 1.0
C      1  0.3968770000000  0.5559680000000  0.4819300000000 1.0
C      1  0.4866490000000  0.4826580000000  0.3896380000000 1.0
C      1  0.5212010000000  0.5084850000000  0.3790400000000 1.0
C      1  0.4830180000000  0.4848370000000  0.6165000000000 1.0
C      1  0.5142080000000  0.5162220000000  0.6155990000000 1.0
C      1  0.5157840000000  0.4806410000000  0.3875480000000 1.0
C      1  0.4829040000000  0.5102920000000  0.3817260000000 1.0
C      1  0.5140860000000  0.4850250000000  0.6140510000000 1.0
C      1  0.4830350000000  0.5164110000000  0.6165790000000 1.0
C      1  0.4886830000000  0.4155050000000  0.5239650000000 1.0
C      1  0.4908610000000  0.5693420000000  0.5236790000000 1.0
C      1  0.4927590000000  0.4167370000000  0.4741620000000 1.0
C      1  0.4894610000000  0.5780950000000  0.4752640000000 1.0
C      1  0.4917580000000  0.4942180000000  0.5194380000000 1.0
C      1  0.4879610000000  0.4926130000000  0.4692740000000 1.0
END
