TITL C-3578202-4305-784 -3.57320275069958e-06 125000 -173.909115106071 0 0 30 (D2h) n - 1
REM
REM in /home/bkarasulu/work/CARBON/AIRSS/Generating-Clusters/EDIP-Nigel-Params/with-SteepDescent/Higher-Symm/SD-CG/HFTN-CG
REM
REM
REM
REM
REM
REM ./C.cell (12c818d87b63d06a65506943cc24bca4)
REM
REM compiler GCC version 9.2.1 20190827 (Red Hat 9.2.1-1)
REM options -cpp -mtune=generic -march=x86-64 -g -O0 -fpre-include=/usr/include/finclude/math-vector-fortran.h
REM seed 315277380 1279790438 2119752608 1435869770 -1962944118 606062474 786475026 -707965709 1081563148 1684802663 -1163520638 932574843 541944133 1092865721 -1466343538 838392221 487353737 -214144429 1384013318 -455417969 1192129608 1220796232 -1599251617 -2042516450 -850664902 1197465776 -1072533206 -1627002073 51549633 379554469 1640188069 -1311023203 -865717060
REM
CELL 1.54180   50.00000   50.00000   50.00000   90.00000   90.00000   90.00000
LATT -1
SFAC C  
C      1  0.5513000000000  0.4667690000000  0.5000960000000 1.0
C      1  0.5639720000000  0.4926880000000  0.5001110000000 1.0
C      1  0.5650590000000  0.5399590000000  0.5001000000000 1.0
C      1  0.5224050000000  0.5603650000000  0.5000210000000 1.0
C      1  0.4935570000000  0.5607830000000  0.4999720000000 1.0
C      1  0.4487000000000  0.5332310000000  0.4999040000000 1.0
C      1  0.4360280000000  0.5073120000000  0.4998890000000 1.0
C      1  0.4349410000000  0.4600410000000  0.4999000000000 1.0
C      1  0.4775950000000  0.4396350000000  0.4999790000000 1.0
C      1  0.5064430000000  0.4392170000000  0.5000280000000 1.0
C      1  0.4732470000000  0.4546180000000  0.4751100000000 1.0
C      1  0.5116250000000  0.4540130000000  0.4755470000000 1.0
C      1  0.5358150000000  0.4688700000000  0.4755840000000 1.0
C      1  0.5526300000000  0.5033750000000  0.4752310000000 1.0
C      1  0.5526710000000  0.5323190000000  0.4757870000000 1.0
C      1  0.5268370000000  0.5453680000000  0.4751750000000 1.0
C      1  0.4884580000000  0.5459730000000  0.4754820000000 1.0
C      1  0.4642680000000  0.5311160000000  0.4754450000000 1.0
C      1  0.4474550000000  0.4966110000000  0.4750540000000 1.0
C      1  0.4474110000000  0.4676680000000  0.4756260000000 1.0
C      1  0.5525450000000  0.5033890000000  0.5249460000000 1.0
C      1  0.5525890000000  0.5323320000000  0.5243740000000 1.0
C      1  0.5267530000000  0.5453820000000  0.5248900000000 1.0
C      1  0.4883750000000  0.5459870000000  0.5244530000000 1.0
C      1  0.4641850000000  0.5311300000000  0.5244160000000 1.0
C      1  0.4473700000000  0.4966250000000  0.5247690000000 1.0
C      1  0.4473290000000  0.4676810000000  0.5242130000000 1.0
C      1  0.4731630000000  0.4546320000000  0.5248250000000 1.0
C      1  0.5115420000000  0.4540270000000  0.5245180000000 1.0
C      1  0.5357320000000  0.4688840000000  0.5245550000000 1.0
END
