TITL C-3577081-279-472 1.93428508499494e-06 125000 -253.210938529673 0 0 42 (C2) n - 1
REM
REM in /home/bkarasulu/work/CARBON/AIRSS/Generating-Clusters/EDIP-Nigel-Params/with-SteepDescent/Higher-Symm/SD-CG/HFTN-CG
REM
REM
REM
REM
REM
REM ./C.cell (12c818d87b63d06a65506943cc24bca4)
REM
REM compiler GCC version 9.2.1 20190827 (Red Hat 9.2.1-1)
REM options -cpp -mtune=generic -march=x86-64 -g -O0 -fpre-include=/usr/include/finclude/math-vector-fortran.h
REM seed 1349431140 1087016971 1857607816 1406825780 -552723780 -302461631 1913146753 -1940334901 1374032916 1219499399 -1094912676 1029190722 -1382671566 98263833 737354823 320525339 2094506004 547441536 1091968681 366669143 190678913 -277286294 -75695258 875401985 976555868 1474904632 -1335172131 -149344272 1085553813 1258806317 -1948565142 -1937247290 704342723
REM
CELL 1.54180   50.00000   50.00000   50.00000   90.00000   90.00000   90.00000
LATT -1
SFAC C  
C      1  0.4621420000000  0.5149620000000  0.4919550000000 1.0
C      1  0.5387750000000  0.4945770000000  0.4884740000000 1.0
C      1  0.5378140000000  0.5150330000000  0.5105290000000 1.0
C      1  0.4612410000000  0.4944100000000  0.5139240000000 1.0
C      1  0.5091820000000  0.4587220000000  0.4892780000000 1.0
C      1  0.4886120000000  0.5362220000000  0.4909620000000 1.0
C      1  0.5112830000000  0.5362110000000  0.5116110000000 1.0
C      1  0.4909380000000  0.4586460000000  0.5129680000000 1.0
C      1  0.4645400000000  0.4477280000000  0.5030690000000 1.0
C      1  0.5310720000000  0.5577870000000  0.5005160000000 1.0
C      1  0.5356120000000  0.4478400000000  0.4991320000000 1.0
C      1  0.4687600000000  0.5576930000000  0.5021490000000 1.0
C      1  0.4463620000000  0.4705200000000  0.5028020000000 1.0
C      1  0.5555440000000  0.5385750000000  0.5006490000000 1.0
C      1  0.4443440000000  0.5384100000000  0.5019340000000 1.0
C      1  0.5537240000000  0.4706830000000  0.4994950000000 1.0
C      1  0.5425670000000  0.4999650000000  0.5360610000000 1.0
C      1  0.4519620000000  0.5062130000000  0.5390290000000 1.0
C      1  0.4574330000000  0.4999880000000  0.4663600000000 1.0
C      1  0.5480200000000  0.5065120000000  0.4634180000000 1.0
C      1  0.4985520000000  0.5426740000000  0.5383560000000 1.0
C      1  0.5049380000000  0.4479880000000  0.5369770000000 1.0
C      1  0.4952130000000  0.4481250000000  0.4652250000000 1.0
C      1  0.5013230000000  0.5428340000000  0.4642450000000 1.0
C      1  0.5538110000000  0.5355720000000  0.4697360000000 1.0
C      1  0.4450490000000  0.4745690000000  0.4736110000000 1.0
C      1  0.4460860000000  0.5352820000000  0.5328340000000 1.0
C      1  0.5550250000000  0.4746120000000  0.5287030000000 1.0
C      1  0.5284310000000  0.5551940000000  0.4698940000000 1.0
C      1  0.4673540000000  0.4442280000000  0.4737620000000 1.0
C      1  0.5328080000000  0.4442080000000  0.5284230000000 1.0
C      1  0.4714080000000  0.5549780000000  0.5327600000000 1.0
C      1  0.5250070000000  0.5002150000000  0.4444640000000 1.0
C      1  0.4832770000000  0.4966930000000  0.4509250000000 1.0
C      1  0.4749930000000  0.4999030000000  0.5579570000000 1.0
C      1  0.5167330000000  0.4965290000000  0.5514820000000 1.0
C      1  0.5014940000000  0.5206400000000  0.4442790000000 1.0
C      1  0.4995110000000  0.4704920000000  0.4453590000000 1.0
C      1  0.5005760000000  0.4702580000000  0.5569370000000 1.0
C      1  0.4984460000000  0.5203950000000  0.5582280000000 1.0
C      1  0.5113730000000  0.4870180000000  0.4796630000000 1.0
C      1  0.4886650000000  0.4868950000000  0.5227030000000 1.0
END
