TITL C-3577076-40-373 3.21316970312903e-07 125000 -82.9249665747481 0 0 18 (C2v) n - 1
REM
REM in /home/bkarasulu/work/CARBON/AIRSS/Generating-Clusters/EDIP-Nigel-Params/with-SteepDescent/Higher-Symm/SD-CG/HFTN-CG
REM
REM
REM
REM
REM
REM ./C.cell (12c818d87b63d06a65506943cc24bca4)
REM
REM compiler GCC version 9.2.1 20190827 (Red Hat 9.2.1-1)
REM options -cpp -mtune=generic -march=x86-64 -g -O0 -fpre-include=/usr/include/finclude/math-vector-fortran.h
REM seed -702554546 -377847895 -15727436 1340538167 1889675846 2116701506 -693312954 -505786980 689956930 -265027564 675678404 -1110270206 -1144173439 1721552437 -2102490448 -1115635246 -2106997392 1899014245 -1512564030 -1017220157 1628970947 -1747467933 -79283051 -1063580142 -330989088 -1424147030 -2359420 1777766620 1840296903 1276875987 -864591365 1667587711 1742581218
REM
CELL 1.54180   50.00000   50.00000   50.00000   90.00000   90.00000   90.00000
LATT -1
SFAC C  
C      1  0.4959680000000  0.4973480000000  0.5637870000000 1.0
C      1  0.4534850000000  0.4972560000000  0.5394290000000 1.0
C      1  0.4389240000000  0.4978610000000  0.4926770000000 1.0
C      1  0.4645990000000  0.4988980000000  0.4481460000000 1.0
C      1  0.5163550000000  0.4996270000000  0.4405720000000 1.0
C      1  0.5636410000000  0.4992020000000  0.4995170000000 1.0
C      1  0.5450140000000  0.4981760000000  0.5483900000000 1.0
C      1  0.4741250000000  0.4977710000000  0.5228750000000 1.0
C      1  0.4652350000000  0.4981250000000  0.4952460000000 1.0
C      1  0.4791960000000  0.4987030000000  0.4701690000000 1.0
C      1  0.5086580000000  0.4991040000000  0.4667470000000 1.0
C      1  0.5364170000000  0.4988540000000  0.5013490000000 1.0
C      1  0.5266810000000  0.4982770000000  0.5293630000000 1.0
C      1  0.4991700000000  0.4978200000000  0.5375490000000 1.0
C      1  0.5108800000000  0.4557730000000  0.4930890000000 1.0
C      1  0.5230570000000  0.5212150000000  0.4837910000000 1.0
C      1  0.5235750000000  0.4767820000000  0.4830550000000 1.0
C      1  0.5098790000000  0.5415780000000  0.4945100000000 1.0
END
