TITL C-3577088-510-125 -6.8552330111748e-07 125000 -177.265163643981 0 0 30 (Ci) n - 1
REM
REM in /home/bkarasulu/work/CARBON/AIRSS/Generating-Clusters/EDIP-Nigel-Params/with-SteepDescent/Higher-Symm/SD-CG/HFTN-CG
REM
REM
REM
REM
REM
REM ./C.cell (12c818d87b63d06a65506943cc24bca4)
REM
REM compiler GCC version 9.2.1 20190827 (Red Hat 9.2.1-1)
REM options -cpp -mtune=generic -march=x86-64 -g -O0 -fpre-include=/usr/include/finclude/math-vector-fortran.h
REM seed -1419369961 -825173082 -961166935 482074093 474733181 -758377100 -2128486810 -820044772 -2137557577 1444969393 1573800251 -748624228 2110824217 -1300318146 -518375308 -1667850265 -1998924838 1302266444 744714510 -979347645 1044481152 -989740476 1887190830 1778402964 1312363400 -222998869 -661965508 979644387 475364348 -868863356 404768751 -908602258 1191738859
REM
CELL 1.54180   50.00000   50.00000   50.00000   90.00000   90.00000   90.00000
LATT -1
SFAC C  
C      1  0.5082090000000  0.4832020000000  0.4879270000000 1.0
C      1  0.4917910000000  0.5167980000000  0.5120730000000 1.0
C      1  0.4620450000000  0.5100470000000  0.4694450000000 1.0
C      1  0.5379550000000  0.4899530000000  0.5305550000000 1.0
C      1  0.5229150000000  0.5444100000000  0.4885960000000 1.0
C      1  0.4770850000000  0.4555900000000  0.5114040000000 1.0
C      1  0.4916340000000  0.4583320000000  0.4870520000000 1.0
C      1  0.5083660000000  0.5416680000000  0.5129480000000 1.0
C      1  0.4523390000000  0.4692970000000  0.4595840000000 1.0
C      1  0.5476610000000  0.5307030000000  0.5404160000000 1.0
C      1  0.4911780000000  0.5079560000000  0.5638140000000 1.0
C      1  0.5088220000000  0.4920440000000  0.4361860000000 1.0
C      1  0.4950370000000  0.4691310000000  0.4410320000000 1.0
C      1  0.5049630000000  0.5308690000000  0.5589680000000 1.0
C      1  0.5564970000000  0.5045230000000  0.5134760000000 1.0
C      1  0.4435030000000  0.4954770000000  0.4865240000000 1.0
C      1  0.4751370000000  0.4924000000000  0.5467860000000 1.0
C      1  0.5248630000000  0.5076000000000  0.4532140000000 1.0
C      1  0.5096900000000  0.4897180000000  0.5186080000000 1.0
C      1  0.4903100000000  0.5102820000000  0.4813920000000 1.0
C      1  0.4786250000000  0.4565720000000  0.4604820000000 1.0
C      1  0.5213750000000  0.5434280000000  0.5395180000000 1.0
C      1  0.5344430000000  0.4874800000000  0.4727260000000 1.0
C      1  0.4655570000000  0.5125200000000  0.5272740000000 1.0
C      1  0.4438030000000  0.5033480000000  0.5126820000000 1.0
C      1  0.5561970000000  0.4966520000000  0.4873180000000 1.0
C      1  0.4582050000000  0.4941780000000  0.4453280000000 1.0
C      1  0.5417950000000  0.5058220000000  0.5546720000000 1.0
C      1  0.5097530000000  0.5290220000000  0.4684280000000 1.0
C      1  0.4902470000000  0.4709780000000  0.5315720000000 1.0
END
