TITL C-3577087-600-550 -3.34832626089871e-06 125000 -1099.69119498001 0 0 177 (C1) n - 1
REM
REM in /home/bkarasulu/work/CARBON/AIRSS/Generating-Clusters/EDIP-Nigel-Params/with-SteepDescent/Higher-Symm/SD-CG/HFTN-CG
REM
REM
REM
REM
REM
REM ./C.cell (12c818d87b63d06a65506943cc24bca4)
REM
REM compiler GCC version 9.2.1 20190827 (Red Hat 9.2.1-1)
REM options -cpp -mtune=generic -march=x86-64 -g -O0 -fpre-include=/usr/include/finclude/math-vector-fortran.h
REM seed -1175868294 -1156882476 1434110102 1338116249 -546697556 1721967964 1374365381 1641913942 -1811703131 1344089319 312437904 1118294999 -681053179 -1918070831 1493464841 980652144 -485941716 2089477456 -1316369136 -781036706 1499873662 595965010 -174476769 -1195850121 465205372 -1447127762 -1203622903 -693149117 -967910624 1895829370 -2026835894 435675336 1497820324
REM
CELL 1.54180   50.00000   50.00000   50.00000   90.00000   90.00000   90.00000
LATT -1
SFAC C  
C      1  0.3974750000000  0.5067980000000  0.4801860000000 1.0
C      1  0.4613000000000  0.4076730000000  0.4857640000000 1.0
C      1  0.5839090000000  0.4229810000000  0.4817510000000 1.0
C      1  0.5919800000000  0.5570870000000  0.4878060000000 1.0
C      1  0.4784000000000  0.5980240000000  0.4812680000000 1.0
C      1  0.6007270000000  0.5093090000000  0.5137950000000 1.0
C      1  0.5483260000000  0.3963110000000  0.5131400000000 1.0
C      1  0.4177270000000  0.4297380000000  0.5126720000000 1.0
C      1  0.4253530000000  0.5470050000000  0.5103130000000 1.0
C      1  0.5206650000000  0.6061500000000  0.5173240000000 1.0
C      1  0.5259130000000  0.6116240000000  0.4890280000000 1.0
C      1  0.4247000000000  0.5481450000000  0.4809880000000 1.0
C      1  0.4184420000000  0.4337930000000  0.4840820000000 1.0
C      1  0.5454540000000  0.3908980000000  0.4843720000000 1.0
C      1  0.6035630000000  0.5095130000000  0.4856100000000 1.0
C      1  0.4738610000000  0.6059410000000  0.5094860000000 1.0
C      1  0.5891430000000  0.5574360000000  0.5163160000000 1.0
C      1  0.5906900000000  0.4226490000000  0.5103830000000 1.0
C      1  0.4607590000000  0.4050430000000  0.5137410000000 1.0
C      1  0.3940710000000  0.5089560000000  0.5098760000000 1.0
C      1  0.4796570000000  0.4296760000000  0.4384010000000 1.0
C      1  0.5561430000000  0.4540010000000  0.4391360000000 1.0
C      1  0.5578910000000  0.5455660000000  0.4332890000000 1.0
C      1  0.4784510000000  0.5698280000000  0.4411180000000 1.0
C      1  0.4219920000000  0.4959110000000  0.4388260000000 1.0
C      1  0.5266450000000  0.4329220000000  0.5590870000000 1.0
C      1  0.4375660000000  0.4568790000000  0.5683430000000 1.0
C      1  0.4390650000000  0.5414280000000  0.5680990000000 1.0
C      1  0.5194260000000  0.5756330000000  0.5652160000000 1.0
C      1  0.5691590000000  0.4992890000000  0.5628220000000 1.0
C      1  0.5385300000000  0.5018650000000  0.5603690000000 1.0
C      1  0.5112450000000  0.5457480000000  0.5652980000000 1.0
C      1  0.4640560000000  0.5256660000000  0.5615060000000 1.0
C      1  0.4618050000000  0.4750690000000  0.5639450000000 1.0
C      1  0.5106210000000  0.4604700000000  0.5594260000000 1.0
C      1  0.4534880000000  0.4976850000000  0.4343140000000 1.0
C      1  0.4850500000000  0.5395750000000  0.4356890000000 1.0
C      1  0.5337900000000  0.5259830000000  0.4345030000000 1.0
C      1  0.5342370000000  0.4762210000000  0.4399620000000 1.0
C      1  0.4869000000000  0.4597980000000  0.4401790000000 1.0
C      1  0.4398850000000  0.4739220000000  0.3878140000000 1.0
C      1  0.5031760000000  0.4292270000000  0.3886890000000 1.0
C      1  0.5627190000000  0.4840050000000  0.3925300000000 1.0
C      1  0.5308920000000  0.5519670000000  0.3845400000000 1.0
C      1  0.4584880000000  0.5522530000000  0.3926790000000 1.0
C      1  0.5561010000000  0.4744920000000  0.6102810000000 1.0
C      1  0.4949590000000  0.4350780000000  0.6073810000000 1.0
C      1  0.4375660000000  0.4870910000000  0.6144670000000 1.0
C      1  0.4644200000000  0.5545360000000  0.6176000000000 1.0
C      1  0.5391960000000  0.5479750000000  0.6121680000000 1.0
C      1  0.5551020000000  0.4340840000000  0.5489570000000 1.0
C      1  0.5813540000000  0.5260150000000  0.5559950000000 1.0
C      1  0.4935540000000  0.5875950000000  0.5561900000000 1.0
C      1  0.4172430000000  0.5239000000000  0.5549090000000 1.0
C      1  0.4437530000000  0.4291130000000  0.5559180000000 1.0
C      1  0.4500750000000  0.4291380000000  0.4439640000000 1.0
C      1  0.4131270000000  0.5249080000000  0.4396630000000 1.0
C      1  0.5032020000000  0.5873850000000  0.4438950000000 1.0
C      1  0.5830830000000  0.5321150000000  0.4448210000000 1.0
C      1  0.5472200000000  0.4264530000000  0.4463680000000 1.0
C      1  0.4810140000000  0.4553000000000  0.5493180000000 1.0
C      1  0.5260730000000  0.4804110000000  0.5429520000000 1.0
C      1  0.5353190000000  0.5324590000000  0.5511410000000 1.0
C      1  0.4845810000000  0.5455000000000  0.5464280000000 1.0
C      1  0.4530100000000  0.4995190000000  0.5458780000000 1.0
C      1  0.5112180000000  0.4663070000000  0.4572870000000 1.0
C      1  0.4593410000000  0.4723350000000  0.4507430000000 1.0
C      1  0.4602450000000  0.5245990000000  0.4474380000000 1.0
C      1  0.5112970000000  0.5366930000000  0.4503260000000 1.0
C      1  0.5475370000000  0.5029470000000  0.4502130000000 1.0
C      1  0.4370100000000  0.5421210000000  0.4386790000000 1.0
C      1  0.4386960000000  0.4547460000000  0.4361590000000 1.0
C      1  0.5322970000000  0.4130160000000  0.4269990000000 1.0
C      1  0.5755540000000  0.5046170000000  0.4377760000000 1.0
C      1  0.5272530000000  0.5820700000000  0.4272540000000 1.0
C      1  0.5601560000000  0.5443160000000  0.5650920000000 1.0
C      1  0.5726720000000  0.4500010000000  0.5669340000000 1.0
C      1  0.4723280000000  0.4284600000000  0.5617870000000 1.0
C      1  0.4117520000000  0.4985950000000  0.5711400000000 1.0
C      1  0.4691580000000  0.5821660000000  0.5744490000000 1.0
C      1  0.4039510000000  0.5322190000000  0.4668490000000 1.0
C      1  0.4434380000000  0.4244490000000  0.4716450000000 1.0
C      1  0.5599630000000  0.4122680000000  0.4692840000000 1.0
C      1  0.5906900000000  0.5326000000000  0.4732550000000 1.0
C      1  0.5055020000000  0.5985310000000  0.4714250000000 1.0
C      1  0.5887580000000  0.5307720000000  0.5281050000000 1.0
C      1  0.5657980000000  0.4158160000000  0.5266310000000 1.0
C      1  0.4413270000000  0.4225160000000  0.5271810000000 1.0
C      1  0.4142050000000  0.5244840000000  0.5248180000000 1.0
C      1  0.4953660000000  0.5977860000000  0.5276750000000 1.0
C      1  0.4349960000000  0.4582920000000  0.4088160000000 1.0
C      1  0.5194920000000  0.4142030000000  0.4035030000000 1.0
C      1  0.5763010000000  0.4984620000000  0.4104750000000 1.0
C      1  0.5250670000000  0.5719930000000  0.4012330000000 1.0
C      1  0.4413140000000  0.5527970000000  0.4131260000000 1.0
C      1  0.5629670000000  0.4557920000000  0.5924860000000 1.0
C      1  0.4784960000000  0.4253270000000  0.5888180000000 1.0
C      1  0.4191730000000  0.4976610000000  0.5981340000000 1.0
C      1  0.4712930000000  0.5745790000000  0.6012670000000 1.0
C      1  0.5576200000000  0.5473480000000  0.5927870000000 1.0
C      1  0.5002130000000  0.5471770000000  0.4978210000000 1.0
C      1  0.4513480000000  0.5039360000000  0.4947900000000 1.0
C      1  0.4900120000000  0.4318670000000  0.4949420000000 1.0
C      1  0.5577070000000  0.4471930000000  0.4964060000000 1.0
C      1  0.5541290000000  0.5498870000000  0.4907600000000 1.0
C      1  0.5186770000000  0.5705210000000  0.5024720000000 1.0
C      1  0.5701040000000  0.4879430000000  0.5038210000000 1.0
C      1  0.5330890000000  0.4294260000000  0.5003150000000 1.0
C      1  0.4373660000000  0.4628950000000  0.5108810000000 1.0
C      1  0.4538830000000  0.5495740000000  0.5149620000000 1.0
C      1  0.5385300000000  0.5566800000000  0.5224940000000 1.0
C      1  0.4599820000000  0.5718040000000  0.5328480000000 1.0
C      1  0.4220040000000  0.4818620000000  0.5299770000000 1.0
C      1  0.5098220000000  0.4355360000000  0.5180970000000 1.0
C      1  0.5764600000000  0.4641480000000  0.5249390000000 1.0
C      1  0.4707690000000  0.5491440000000  0.4895960000000 1.0
C      1  0.5428130000000  0.5742770000000  0.4732500000000 1.0
C      1  0.5589520000000  0.4717420000000  0.4797630000000 1.0
C      1  0.5111120000000  0.4260390000000  0.4719730000000 1.0
C      1  0.4409700000000  0.4791100000000  0.4822900000000 1.0
C      1  0.5007340000000  0.5336880000000  0.5239330000000 1.0
C      1  0.4678220000000  0.4960700000000  0.5195240000000 1.0
C      1  0.4678170000000  0.4657620000000  0.5179060000000 1.0
C      1  0.5206450000000  0.4880320000000  0.5142600000000 1.0
C      1  0.5448270000000  0.5038940000000  0.5067320000000 1.0
C      1  0.5125310000000  0.5276310000000  0.4776690000000 1.0
C      1  0.5420320000000  0.5213040000000  0.4829720000000 1.0
C      1  0.5032510000000  0.4781660000000  0.4842820000000 1.0
C      1  0.4818000000000  0.4595300000000  0.4932010000000 1.0
C      1  0.4670360000000  0.5208200000000  0.4770420000000 1.0
C      1  0.4925080000000  0.4725290000000  0.4118020000000 1.0
C      1  0.5218770000000  0.4835970000000  0.4116520000000 1.0
C      1  0.5203970000000  0.5150120000000  0.4084600000000 1.0
C      1  0.4897620000000  0.5237660000000  0.4083270000000 1.0
C      1  0.4724730000000  0.4968530000000  0.4083220000000 1.0
C      1  0.5059680000000  0.4748500000000  0.5876230000000 1.0
C      1  0.4763960000000  0.4854530000000  0.5894420000000 1.0
C      1  0.4771090000000  0.5166330000000  0.5887260000000 1.0
C      1  0.5066140000000  0.5263490000000  0.5902390000000 1.0
C      1  0.5242980000000  0.5002470000000  0.5879760000000 1.0
C      1  0.4903190000000  0.4525370000000  0.3914200000000 1.0
C      1  0.5383050000000  0.4728750000000  0.3904130000000 1.0
C      1  0.5333910000000  0.5252290000000  0.3847640000000 1.0
C      1  0.4818730000000  0.5406870000000  0.3862160000000 1.0
C      1  0.4569470000000  0.4941670000000  0.3841670000000 1.0
C      1  0.5109100000000  0.4565700000000  0.6094700000000 1.0
C      1  0.4625210000000  0.4771900000000  0.6133160000000 1.0
C      1  0.4635590000000  0.5284560000000  0.6111350000000 1.0
C      1  0.5135040000000  0.5402440000000  0.6147420000000 1.0
C      1  0.5428810000000  0.4978120000000  0.6098560000000 1.0
C      1  0.4139270000000  0.4836530000000  0.4675260000000 1.0
C      1  0.4960070000000  0.4095270000000  0.4522720000000 1.0
C      1  0.5757090000000  0.4652790000000  0.4576390000000 1.0
C      1  0.5501430000000  0.5725560000000  0.4433840000000 1.0
C      1  0.4645700000000  0.5736060000000  0.4695110000000 1.0
C      1  0.5828150000000  0.4741940000000  0.5532220000000 1.0
C      1  0.5096200000000  0.4180540000000  0.5406960000000 1.0
C      1  0.4149300000000  0.4723210000000  0.5570260000000 1.0
C      1  0.4452580000000  0.5701970000000  0.5597460000000 1.0
C      1  0.5414110000000  0.5783750000000  0.5443940000000 1.0
C      1  0.6013080000000  0.4499710000000  0.5158500000000 1.0
C      1  0.5748290000000  0.5806290000000  0.5264550000000 1.0
C      1  0.4474790000000  0.5967410000000  0.5177840000000 1.0
C      1  0.3928570000000  0.4816090000000  0.5194520000000 1.0
C      1  0.4859400000000  0.3939410000000  0.5224160000000 1.0
C      1  0.4006130000000  0.4566000000000  0.4756370000000 1.0
C      1  0.4341990000000  0.5753090000000  0.4724010000000 1.0
C      1  0.5532220000000  0.6012020000000  0.4834740000000 1.0
C      1  0.6054040000000  0.4827210000000  0.4749160000000 1.0
C      1  0.5160820000000  0.3882960000000  0.4779730000000 1.0
C      1  0.6121610000000  0.4626520000000  0.4931050000000 1.0
C      1  0.3859160000000  0.4636040000000  0.4987270000000 1.0
C      1  0.5009420000000  0.3827880000000  0.5015970000000 1.0
C      1  0.5689130000000  0.5993820000000  0.5067260000000 1.0
C      1  0.4312230000000  0.5924080000000  0.4949410000000 1.0
C      1  0.4966840000000  0.5054480000000  0.5211190000000 1.0
C      1  0.4934070000000  0.5058040000000  0.4767970000000 1.0
END
