TITL C-3577088-510-612 -2.94786685183496e-06 125000 -816.100791361783 0 0 132 (C1) n - 1
REM
REM in /home/bkarasulu/work/CARBON/AIRSS/Generating-Clusters/EDIP-Nigel-Params/with-SteepDescent/Higher-Symm/SD-CG/HFTN-CG
REM
REM
REM
REM
REM
REM ./C.cell (12c818d87b63d06a65506943cc24bca4)
REM
REM compiler GCC version 9.2.1 20190827 (Red Hat 9.2.1-1)
REM options -cpp -mtune=generic -march=x86-64 -g -O0 -fpre-include=/usr/include/finclude/math-vector-fortran.h
REM seed 1685345774 -1658223473 -444988996 -949389746 -1075585018 644967777 663080372 -1668097156 -2003753203 300217466 -216307551 1500232009 1490256674 995428924 -1798157308 1447471020 -1000222295 -1585797226 -1104742180 -370668290 1077526059 -1239356594 -2126346228 -1338179890 298392769 -444049479 -1043396015 -1604894519 890334342 -851483420 -269199309 1808985658 -11277386
REM
CELL 1.54180   50.00000   50.00000   50.00000   90.00000   90.00000   90.00000
LATT -1
SFAC C  
C      1  0.4894230000000  0.4268630000000  0.4734890000000 1.0
C      1  0.5173580000000  0.4155500000000  0.4748270000000 1.0
C      1  0.5301170000000  0.4141420000000  0.5062810000000 1.0
C      1  0.5111160000000  0.4222610000000  0.5279510000000 1.0
C      1  0.4824580000000  0.4138900000000  0.5252500000000 1.0
C      1  0.4699770000000  0.4157330000000  0.4936420000000 1.0
C      1  0.5106060000000  0.5732790000000  0.4732270000000 1.0
C      1  0.4824730000000  0.5841710000000  0.4749740000000 1.0
C      1  0.4700530000000  0.5841210000000  0.5063090000000 1.0
C      1  0.4894880000000  0.5735650000000  0.5268200000000 1.0
C      1  0.5176570000000  0.5843660000000  0.5250110000000 1.0
C      1  0.5300670000000  0.5840200000000  0.4936430000000 1.0
C      1  0.4922410000000  0.4797470000000  0.5949490000000 1.0
C      1  0.4173130000000  0.4849480000000  0.5444040000000 1.0
C      1  0.4197760000000  0.4869350000000  0.4507420000000 1.0
C      1  0.5074050000000  0.4793920000000  0.4053380000000 1.0
C      1  0.5828270000000  0.4847610000000  0.4560300000000 1.0
C      1  0.5803980000000  0.4869160000000  0.5495320000000 1.0
C      1  0.5076980000000  0.5208170000000  0.5949070000000 1.0
C      1  0.5830490000000  0.5151650000000  0.5440560000000 1.0
C      1  0.5801950000000  0.5129690000000  0.4504190000000 1.0
C      1  0.4923010000000  0.5205390000000  0.4053420000000 1.0
C      1  0.4171240000000  0.5151100000000  0.4562690000000 1.0
C      1  0.4199660000000  0.5131840000000  0.5498730000000 1.0
C      1  0.5721020000000  0.4381770000000  0.4869960000000 1.0
C      1  0.5477680000000  0.4402510000000  0.5568660000000 1.0
C      1  0.4746340000000  0.4373320000000  0.5704930000000 1.0
C      1  0.4278370000000  0.4384000000000  0.5132500000000 1.0
C      1  0.4517810000000  0.4404020000000  0.4427880000000 1.0
C      1  0.5257750000000  0.4372560000000  0.4291540000000 1.0
C      1  0.4276220000000  0.5615890000000  0.4872030000000 1.0
C      1  0.4519160000000  0.5599270000000  0.5575810000000 1.0
C      1  0.5260420000000  0.5632140000000  0.5709720000000 1.0
C      1  0.5725890000000  0.5617600000000  0.5129190000000 1.0
C      1  0.5481360000000  0.5596150000000  0.4424620000000 1.0
C      1  0.4739760000000  0.5626790000000  0.4292150000000 1.0
C      1  0.4709740000000  0.5173020000000  0.5499040000000 1.0
C      1  0.4431750000000  0.5159880000000  0.5007550000000 1.0
C      1  0.4716600000000  0.5152690000000  0.4514000000000 1.0
C      1  0.5291240000000  0.5169690000000  0.4503360000000 1.0
C      1  0.5569990000000  0.5161140000000  0.4994330000000 1.0
C      1  0.5285700000000  0.5160730000000  0.5490840000000 1.0
C      1  0.5291530000000  0.4840440000000  0.5499160000000 1.0
C      1  0.5569110000000  0.4843220000000  0.5003980000000 1.0
C      1  0.5282850000000  0.4847010000000  0.4512620000000 1.0
C      1  0.4708480000000  0.4830180000000  0.4505260000000 1.0
C      1  0.4431820000000  0.4841650000000  0.4997750000000 1.0
C      1  0.4717730000000  0.4850220000000  0.5490320000000 1.0
C      1  0.4419150000000  0.4756570000000  0.4671170000000 1.0
C      1  0.5009620000000  0.4734150000000  0.4337770000000 1.0
C      1  0.5570870000000  0.4741540000000  0.4665290000000 1.0
C      1  0.5582650000000  0.4757010000000  0.5331330000000 1.0
C      1  0.4991810000000  0.4738420000000  0.5666440000000 1.0
C      1  0.4429930000000  0.4742390000000  0.5338560000000 1.0
C      1  0.5581280000000  0.5244020000000  0.4667890000000 1.0
C      1  0.4989110000000  0.5265950000000  0.4337220000000 1.0
C      1  0.4428830000000  0.5257550000000  0.4666940000000 1.0
C      1  0.4419890000000  0.5245720000000  0.5334110000000 1.0
C      1  0.5010760000000  0.5271350000000  0.5666120000000 1.0
C      1  0.5573730000000  0.5260110000000  0.5335680000000 1.0
C      1  0.4862700000000  0.5230150000000  0.4760940000000 1.0
C      1  0.5144710000000  0.5289650000000  0.4750180000000 1.0
C      1  0.5285320000000  0.5257050000000  0.5000210000000 1.0
C      1  0.5139660000000  0.5238290000000  0.5243030000000 1.0
C      1  0.4856170000000  0.5292540000000  0.5252380000000 1.0
C      1  0.4716720000000  0.5254910000000  0.5002430000000 1.0
C      1  0.5137890000000  0.4772000000000  0.4760740000000 1.0
C      1  0.4855970000000  0.4711870000000  0.4751790000000 1.0
C      1  0.4717100000000  0.4750010000000  0.5002040000000 1.0
C      1  0.4862610000000  0.4772540000000  0.5243710000000 1.0
C      1  0.5145980000000  0.4736250000000  0.5251910000000 1.0
C      1  0.5284330000000  0.4752070000000  0.5001970000000 1.0
C      1  0.5080200000000  0.3722380000000  0.5201520000000 1.0
C      1  0.4818590000000  0.3831060000000  0.5216680000000 1.0
C      1  0.4709370000000  0.3847180000000  0.4935760000000 1.0
C      1  0.4904020000000  0.3742940000000  0.4759400000000 1.0
C      1  0.5166870000000  0.3846660000000  0.4755720000000 1.0
C      1  0.5281860000000  0.3831620000000  0.5034520000000 1.0
C      1  0.4912530000000  0.6260720000000  0.5222600000000 1.0
C      1  0.5173610000000  0.6152820000000  0.5227940000000 1.0
C      1  0.5284930000000  0.6151030000000  0.4946430000000 1.0
C      1  0.5089330000000  0.6258670000000  0.4773340000000 1.0
C      1  0.4828130000000  0.6151090000000  0.4768940000000 1.0
C      1  0.4716610000000  0.6152020000000  0.5050470000000 1.0
C      1  0.5614680000000  0.4366860000000  0.4608100000000 1.0
C      1  0.5649700000000  0.4386190000000  0.5340560000000 1.0
C      1  0.5027360000000  0.4360870000000  0.5737180000000 1.0
C      1  0.4388970000000  0.4367640000000  0.5393010000000 1.0
C      1  0.4346990000000  0.4386200000000  0.4658000000000 1.0
C      1  0.4976780000000  0.4357690000000  0.4255430000000 1.0
C      1  0.4383160000000  0.5631830000000  0.4609860000000 1.0
C      1  0.4347920000000  0.5616350000000  0.5345950000000 1.0
C      1  0.4979280000000  0.5648140000000  0.5746710000000 1.0
C      1  0.5618330000000  0.5634640000000  0.5391380000000 1.0
C      1  0.5652960000000  0.5614650000000  0.4654340000000 1.0
C      1  0.5020710000000  0.5642340000000  0.4254210000000 1.0
C      1  0.4701880000000  0.4695410000000  0.6080560000000 1.0
C      1  0.3973420000000  0.4768350000000  0.5263740000000 1.0
C      1  0.4240980000000  0.4789470000000  0.4241540000000 1.0
C      1  0.5296340000000  0.4698320000000  0.3919940000000 1.0
C      1  0.6026710000000  0.4766780000000  0.4742260000000 1.0
C      1  0.5756140000000  0.4787500000000  0.5760090000000 1.0
C      1  0.5295780000000  0.5309050000000  0.6084260000000 1.0
C      1  0.6029920000000  0.5232350000000  0.5259740000000 1.0
C      1  0.5757690000000  0.5209370000000  0.4238380000000 1.0
C      1  0.4699800000000  0.5300420000000  0.3921130000000 1.0
C      1  0.3971850000000  0.5231320000000  0.4743740000000 1.0
C      1  0.4243840000000  0.5212830000000  0.5764140000000 1.0
C      1  0.4424410000000  0.5725000000000  0.5094180000000 1.0
C      1  0.4639090000000  0.5728940000000  0.4542600000000 1.0
C      1  0.5198670000000  0.5631080000000  0.4474150000000 1.0
C      1  0.5576810000000  0.5724040000000  0.4906000000000 1.0
C      1  0.5362150000000  0.5732230000000  0.5458400000000 1.0
C      1  0.4801700000000  0.5635510000000  0.5526570000000 1.0
C      1  0.5574710000000  0.4268760000000  0.5092070000000 1.0
C      1  0.5358340000000  0.4271180000000  0.4542000000000 1.0
C      1  0.4800480000000  0.4369740000000  0.4476740000000 1.0
C      1  0.4425060000000  0.4276910000000  0.4908770000000 1.0
C      1  0.4642000000000  0.4261390000000  0.5459760000000 1.0
C      1  0.5196100000000  0.4377350000000  0.5510940000000 1.0
C      1  0.4085160000000  0.4582930000000  0.5100000000000 1.0
C      1  0.4433580000000  0.4598460000000  0.4246150000000 1.0
C      1  0.5385950000000  0.4593790000000  0.4159310000000 1.0
C      1  0.5914040000000  0.4580790000000  0.4904910000000 1.0
C      1  0.5562070000000  0.4597640000000  0.5750340000000 1.0
C      1  0.4615520000000  0.4591880000000  0.5839560000000 1.0
C      1  0.5918250000000  0.5417760000000  0.5095890000000 1.0
C      1  0.5565530000000  0.5400890000000  0.4243490000000 1.0
C      1  0.4611360000000  0.5405040000000  0.4160910000000 1.0
C      1  0.4083350000000  0.5417080000000  0.4907210000000 1.0
C      1  0.4435330000000  0.5404970000000  0.5758040000000 1.0
C      1  0.5387150000000  0.5411460000000  0.5844530000000 1.0
END
