TITL C-3577086-586-219 -1.68228792745097e-07 125000 -43.3225458159816 0 0 8 (D8h) n - 1
REM
REM in /home/bkarasulu/work/CARBON/AIRSS/Generating-Clusters/EDIP-Nigel-Params/with-SteepDescent/Higher-Symm/SD-CG/HFTN-CG
REM
REM
REM
REM
REM
REM ./C.cell (12c818d87b63d06a65506943cc24bca4)
REM
REM compiler GCC version 9.2.1 20190827 (Red Hat 9.2.1-1)
REM options -cpp -mtune=generic -march=x86-64 -g -O0 -fpre-include=/usr/include/finclude/math-vector-fortran.h
REM seed 1749315129 19811457 -1860704718 1312411249 1226851287 624752355 -1766867567 -1036118277 -1357048138 -439457801 -1711747823 -1409853881 -1836044266 -2084101528 960753455 1364635032 153808789 -1789433961 -1278647800 1482564654 138307089 -1082315963 -517760631 -1188655393 951400338 -730422364 117074005 -1635986663 -1245432490 1499413047 -443919809 1376143375 -575900250
REM
CELL 1.54180   50.00000   50.00000   50.00000   90.00000   90.00000   90.00000
LATT -1
SFAC C  
C      1  0.5321500000000  0.4865260000000  0.5000000000000 1.0
C      1  0.5134740000000  0.5321500000000  0.5000000000000 1.0
C      1  0.4678500000000  0.5134740000000  0.5000000000000 1.0
C      1  0.4865260000000  0.4678500000000  0.5000000000000 1.0
C      1  0.4677390000000  0.4867940000000  0.5000000000000 1.0
C      1  0.5132060000000  0.4677390000000  0.5000000000000 1.0
C      1  0.5322610000000  0.5132060000000  0.5000000000000 1.0
C      1  0.4867940000000  0.5322610000000  0.5000000000000 1.0
END
