TITL C-3578200-9634-3 -1.80029102121814e-06 125000 -864.868916082016 0 0 138 (C1) n - 1
REM
REM in /home/bkarasulu/work/CARBON/AIRSS/Generating-Clusters/EDIP-Nigel-Params/with-SteepDescent/Higher-Symm/SD-CG/HFTN-CG
REM
REM
REM
REM
REM
REM ./C.cell (12c818d87b63d06a65506943cc24bca4)
REM
REM compiler GCC version 9.2.1 20190827 (Red Hat 9.2.1-1)
REM options -cpp -mtune=generic -march=x86-64 -g -O0 -fpre-include=/usr/include/finclude/math-vector-fortran.h
REM seed -2107474617 1442762915 1924694584 843880652 1251309590 -1581549838 1910290448 1395779426 -199164829 -535714596 1334626854 -1263196351 -695894349 1648063898 998913159 -1213497752 40734915 -64885310 -1144261777 1501677114 246216576 1207576818 -771118246 1753301794 -1504264304 -680787021 326720710 -1804878721 1950227996 1708650014 -1561461857 -521487947 -128398893
REM
CELL 1.54180   50.00000   50.00000   50.00000   90.00000   90.00000   90.00000
LATT -1
SFAC C  
C      1  0.4573830000000  0.5435210000000  0.4753500000000 1.0
C      1  0.4566610000000  0.5441710000000  0.5246110000000 1.0
C      1  0.4992070000000  0.5207110000000  0.5265160000000 1.0
C      1  0.5003020000000  0.5191500000000  0.4754610000000 1.0
C      1  0.4897200000000  0.4093050000000  0.4678280000000 1.0
C      1  0.4890520000000  0.4066830000000  0.5302450000000 1.0
C      1  0.5254200000000  0.5021280000000  0.4387620000000 1.0
C      1  0.5246040000000  0.5037300000000  0.5631550000000 1.0
C      1  0.4256660000000  0.5396390000000  0.4815870000000 1.0
C      1  0.4249160000000  0.5396610000000  0.5179070000000 1.0
C      1  0.5166720000000  0.4135320000000  0.4826180000000 1.0
C      1  0.5157020000000  0.4146140000000  0.5148370000000 1.0
C      1  0.4719880000000  0.5691580000000  0.5141050000000 1.0
C      1  0.4724860000000  0.5688580000000  0.4854480000000 1.0
C      1  0.4530080000000  0.4285030000000  0.5577960000000 1.0
C      1  0.4549320000000  0.4329400000000  0.4424920000000 1.0
C      1  0.5469380000000  0.5827440000000  0.4693260000000 1.0
C      1  0.5465230000000  0.5836390000000  0.5301130000000 1.0
C      1  0.5329730000000  0.5408330000000  0.5900730000000 1.0
C      1  0.5329740000000  0.5391530000000  0.4108030000000 1.0
C      1  0.4220060000000  0.4391230000000  0.4843010000000 1.0
C      1  0.4225190000000  0.4391850000000  0.5140680000000 1.0
C      1  0.5707030000000  0.5793430000000  0.5141300000000 1.0
C      1  0.5708020000000  0.5727780000000  0.4850640000000 1.0
C      1  0.5011420000000  0.5180490000000  0.4457110000000 1.0
C      1  0.5003080000000  0.5189780000000  0.5560580000000 1.0
C      1  0.4236640000000  0.5598650000000  0.4597310000000 1.0
C      1  0.4231060000000  0.5601850000000  0.5398050000000 1.0
C      1  0.4446060000000  0.5143140000000  0.4339250000000 1.0
C      1  0.4436800000000  0.5148820000000  0.5660400000000 1.0
C      1  0.4968940000000  0.4458790000000  0.4900660000000 1.0
C      1  0.4958500000000  0.4479050000000  0.5209920000000 1.0
C      1  0.5630760000000  0.4737630000000  0.4166620000000 1.0
C      1  0.5637310000000  0.4741480000000  0.5810610000000 1.0
C      1  0.4412430000000  0.4202900000000  0.5291540000000 1.0
C      1  0.4409350000000  0.4211850000000  0.4685590000000 1.0
C      1  0.5339610000000  0.5113340000000  0.5912260000000 1.0
C      1  0.5338520000000  0.5097820000000  0.4106430000000 1.0
C      1  0.5497550000000  0.4864260000000  0.5225640000000 1.0
C      1  0.5443330000000  0.4915280000000  0.4842770000000 1.0
C      1  0.4059820000000  0.4881750000000  0.5139060000000 1.0
C      1  0.4065880000000  0.4882750000000  0.4852560000000 1.0
C      1  0.5144220000000  0.4947790000000  0.4878170000000 1.0
C      1  0.5132290000000  0.4959510000000  0.5169130000000 1.0
C      1  0.4664610000000  0.4503630000000  0.5282910000000 1.0
C      1  0.4688160000000  0.4470360000000  0.4776400000000 1.0
C      1  0.4600440000000  0.4970740000000  0.4655690000000 1.0
C      1  0.4593690000000  0.4987800000000  0.5339240000000 1.0
C      1  0.4137440000000  0.5124910000000  0.5282780000000 1.0
C      1  0.4143520000000  0.5126720000000  0.4713250000000 1.0
C      1  0.5638150000000  0.5026760000000  0.4124320000000 1.0
C      1  0.5640410000000  0.5030200000000  0.5860400000000 1.0
C      1  0.5107280000000  0.4987060000000  0.3939810000000 1.0
C      1  0.5094230000000  0.4994960000000  0.6062310000000 1.0
C      1  0.4822110000000  0.4930140000000  0.4422890000000 1.0
C      1  0.4811010000000  0.4935300000000  0.5568950000000 1.0
C      1  0.4441340000000  0.5646470000000  0.4393990000000 1.0
C      1  0.4433740000000  0.5653850000000  0.5604230000000 1.0
C      1  0.5351280000000  0.4353210000000  0.4704130000000 1.0
C      1  0.5373750000000  0.4330890000000  0.5271410000000 1.0
C      1  0.4984500000000  0.5957760000000  0.4745540000000 1.0
C      1  0.4980780000000  0.5959770000000  0.5248830000000 1.0
C      1  0.5052840000000  0.5471770000000  0.4195610000000 1.0
C      1  0.5050000000000  0.5490440000000  0.5813490000000 1.0
C      1  0.5536870000000  0.5487350000000  0.5695970000000 1.0
C      1  0.5537620000000  0.5478730000000  0.4306200000000 1.0
C      1  0.5667900000000  0.4638560000000  0.4441360000000 1.0
C      1  0.5684260000000  0.4627800000000  0.5540540000000 1.0
C      1  0.5866660000000  0.4718810000000  0.4667910000000 1.0
C      1  0.5895050000000  0.4709070000000  0.5313810000000 1.0
C      1  0.4643990000000  0.4088590000000  0.5137440000000 1.0
C      1  0.4639150000000  0.4067130000000  0.4840310000000 1.0
C      1  0.5320440000000  0.4354330000000  0.5758480000000 1.0
C      1  0.5312990000000  0.4369090000000  0.4225540000000 1.0
C      1  0.4650290000000  0.4715030000000  0.4094520000000 1.0
C      1  0.4665660000000  0.4720800000000  0.5860620000000 1.0
C      1  0.5914530000000  0.4484700000000  0.5129600000000 1.0
C      1  0.5865460000000  0.4492850000000  0.4848240000000 1.0
C      1  0.5069910000000  0.5617350000000  0.4444670000000 1.0
C      1  0.5070890000000  0.5626110000000  0.5558010000000 1.0
C      1  0.5128680000000  0.4703510000000  0.6054400000000 1.0
C      1  0.5134750000000  0.4696630000000  0.3918080000000 1.0
C      1  0.4239210000000  0.4724310000000  0.4440580000000 1.0
C      1  0.4233460000000  0.4716840000000  0.5547080000000 1.0
C      1  0.5248800000000  0.5944390000000  0.4853960000000 1.0
C      1  0.5244250000000  0.5943670000000  0.5141750000000 1.0
C      1  0.5403070000000  0.5362630000000  0.5275400000000 1.0
C      1  0.5406210000000  0.5363450000000  0.4720650000000 1.0
C      1  0.4792130000000  0.5339220000000  0.4119290000000 1.0
C      1  0.4782440000000  0.5358210000000  0.5888420000000 1.0
C      1  0.5872520000000  0.5235310000000  0.4689130000000 1.0
C      1  0.5869070000000  0.5224080000000  0.5301140000000 1.0
C      1  0.4715310000000  0.5198630000000  0.5165040000000 1.0
C      1  0.4718700000000  0.5188580000000  0.4839280000000 1.0
C      1  0.4905900000000  0.4558380000000  0.5922230000000 1.0
C      1  0.4897710000000  0.4558440000000  0.4046770000000 1.0
C      1  0.5017100000000  0.4365080000000  0.5723980000000 1.0
C      1  0.5024280000000  0.4453560000000  0.4299950000000 1.0
C      1  0.5458600000000  0.5109950000000  0.5430210000000 1.0
C      1  0.5463900000000  0.5099190000000  0.4585990000000 1.0
C      1  0.4905830000000  0.5862840000000  0.5503250000000 1.0
C      1  0.4910090000000  0.5858670000000  0.4491450000000 1.0
C      1  0.4573540000000  0.5398940000000  0.5682830000000 1.0
C      1  0.4581700000000  0.5390640000000  0.4317590000000 1.0
C      1  0.4594060000000  0.4740040000000  0.4857700000000 1.0
C      1  0.4581170000000  0.4753300000000  0.5153080000000 1.0
C      1  0.5072050000000  0.4691260000000  0.4760400000000 1.0
C      1  0.5100850000000  0.4709270000000  0.5326720000000 1.0
C      1  0.5363130000000  0.5589720000000  0.4532290000000 1.0
C      1  0.5363860000000  0.5594160000000  0.5463600000000 1.0
C      1  0.5510700000000  0.4367610000000  0.5532160000000 1.0
C      1  0.5501640000000  0.4382840000000  0.4452250000000 1.0
C      1  0.5693510000000  0.5217560000000  0.5611070000000 1.0
C      1  0.5703120000000  0.5215470000000  0.4388200000000 1.0
C      1  0.4825100000000  0.5062990000000  0.5944790000000 1.0
C      1  0.4831140000000  0.5043830000000  0.4049800000000 1.0
C      1  0.5038700000000  0.4713830000000  0.4473730000000 1.0
C      1  0.5164680000000  0.4739310000000  0.5618860000000 1.0
C      1  0.4596050000000  0.5897320000000  0.5504870000000 1.0
C      1  0.4600960000000  0.5891980000000  0.4489730000000 1.0
C      1  0.4123190000000  0.4634920000000  0.4701540000000 1.0
C      1  0.4115450000000  0.4629640000000  0.5286570000000 1.0
C      1  0.4215810000000  0.5017960000000  0.5542950000000 1.0
C      1  0.4223070000000  0.5020940000000  0.4454210000000 1.0
C      1  0.4542550000000  0.5931450000000  0.5191180000000 1.0
C      1  0.4545970000000  0.5927630000000  0.4801690000000 1.0
C      1  0.5882230000000  0.4975230000000  0.4833900000000 1.0
C      1  0.5908510000000  0.4972270000000  0.5146500000000 1.0
C      1  0.4481330000000  0.4600370000000  0.4314000000000 1.0
C      1  0.4484490000000  0.4582930000000  0.5652550000000 1.0
C      1  0.5677390000000  0.5421150000000  0.4843290000000 1.0
C      1  0.5675200000000  0.5410810000000  0.5157910000000 1.0
C      1  0.5534590000000  0.4547910000000  0.5131280000000 1.0
C      1  0.5493020000000  0.4587100000000  0.4843020000000 1.0
C      1  0.5396510000000  0.4583900000000  0.4037000000000 1.0
C      1  0.5382610000000  0.4602890000000  0.5912100000000 1.0
C      1  0.4825020000000  0.4201160000000  0.5564730000000 1.0
C      1  0.4839010000000  0.4249060000000  0.4428870000000 1.0
END
