TITL C-3578207-9274-667 -1.86280970081387e-06 125000 -726.871974265042 0 0 115 (C1) n - 1
REM
REM in /home/bkarasulu/work/CARBON/AIRSS/Generating-Clusters/EDIP-Nigel-Params/with-SteepDescent/Higher-Symm/SD-CG/HFTN-CG
REM
REM
REM
REM
REM
REM ./C.cell (12c818d87b63d06a65506943cc24bca4)
REM
REM compiler GCC version 9.2.1 20190827 (Red Hat 9.2.1-1)
REM options -cpp -mtune=generic -march=x86-64 -g -O0 -fpre-include=/usr/include/finclude/math-vector-fortran.h
REM seed 1717505756 -1728996780 -608160942 -1662048877 1669185530 -490968413 -1778675577 1346222205 -1351129194 -997424782 310693847 -132422432 -1740772469 -1746830849 -1271661326 -972343468 -333723142 -2021013757 1072232946 -1795732878 654314967 492163247 -1999071674 489954373 970318420 1430135213 -1143647367 -1470995518 1466150374 745089474 2029123212 2025265858 -1840330741
REM
CELL 1.54180   50.00000   50.00000   50.00000   90.00000   90.00000   90.00000
LATT -1
SFAC C  
C      1  0.5431620000000  0.5533520000000  0.4737760000000 1.0
C      1  0.5244260000000  0.4451230000000  0.5391900000000 1.0
C      1  0.4565270000000  0.5561130000000  0.5255140000000 1.0
C      1  0.4758510000000  0.4462660000000  0.4582310000000 1.0
C      1  0.4716460000000  0.5234800000000  0.5936350000000 1.0
C      1  0.4045660000000  0.4777140000000  0.4742380000000 1.0
C      1  0.5287880000000  0.5221080000000  0.4038500000000 1.0
C      1  0.5957200000000  0.4786150000000  0.5274870000000 1.0
C      1  0.4265780000000  0.5156510000000  0.5246720000000 1.0
C      1  0.4785160000000  0.4850100000000  0.4254120000000 1.0
C      1  0.5755470000000  0.5144850000000  0.4778430000000 1.0
C      1  0.5217760000000  0.4858380000000  0.5733800000000 1.0
C      1  0.5626650000000  0.4994260000000  0.5487760000000 1.0
C      1  0.4533160000000  0.4984330000000  0.5620530000000 1.0
C      1  0.4336630000000  0.4981450000000  0.4474770000000 1.0
C      1  0.5549300000000  0.5011630000000  0.4330550000000 1.0
C      1  0.4799410000000  0.5478330000000  0.4381910000000 1.0
C      1  0.5666580000000  0.4537800000000  0.4782210000000 1.0
C      1  0.5198200000000  0.5472270000000  0.5621710000000 1.0
C      1  0.4348780000000  0.4523800000000  0.5208850000000 1.0
C      1  0.5933890000000  0.4707690000000  0.4799050000000 1.0
C      1  0.5198560000000  0.5305260000000  0.5889750000000 1.0
C      1  0.4094140000000  0.4705770000000  0.5221330000000 1.0
C      1  0.4815530000000  0.5302320000000  0.4114020000000 1.0
C      1  0.4540570000000  0.5086830000000  0.4790050000000 1.0
C      1  0.5232540000000  0.4898050000000  0.4528640000000 1.0
C      1  0.5454090000000  0.5119390000000  0.5219710000000 1.0
C      1  0.4773200000000  0.4861630000000  0.5468260000000 1.0
C      1  0.5032820000000  0.5856830000000  0.5382680000000 1.0
C      1  0.4609790000000  0.4154290000000  0.5026610000000 1.0
C      1  0.5086220000000  0.5879640000000  0.4647160000000 1.0
C      1  0.5401190000000  0.4159780000000  0.4942680000000 1.0
C      1  0.4495710000000  0.5444360000000  0.4451780000000 1.0
C      1  0.5588170000000  0.4556860000000  0.4483230000000 1.0
C      1  0.5494510000000  0.5459200000000  0.5545940000000 1.0
C      1  0.4442900000000  0.4523190000000  0.5502240000000 1.0
C      1  0.3974750000000  0.4871110000000  0.5006730000000 1.0
C      1  0.5022660000000  0.5135030000000  0.3970650000000 1.0
C      1  0.6050240000000  0.4876840000000  0.5018280000000 1.0
C      1  0.4982220000000  0.5146300000000  0.6017960000000 1.0
C      1  0.4112450000000  0.5276760000000  0.4772610000000 1.0
C      1  0.5256850000000  0.4719490000000  0.4099700000000 1.0
C      1  0.5888550000000  0.5292170000000  0.5236540000000 1.0
C      1  0.4765650000000  0.4725840000000  0.5899170000000 1.0
C      1  0.4564830000000  0.5543300000000  0.4945640000000 1.0
C      1  0.5092530000000  0.4428450000000  0.4543290000000 1.0
C      1  0.5427510000000  0.5584990000000  0.5049990000000 1.0
C      1  0.4926990000000  0.4403840000000  0.5408920000000 1.0
C      1  0.4515420000000  0.5065830000000  0.5090430000000 1.0
C      1  0.4936920000000  0.4925530000000  0.4503080000000 1.0
C      1  0.5504670000000  0.5059450000000  0.4928840000000 1.0
C      1  0.5056710000000  0.4953480000000  0.5497320000000 1.0
C      1  0.4290800000000  0.4288810000000  0.4754670000000 1.0
C      1  0.5271460000000  0.5695730000000  0.4291210000000 1.0
C      1  0.5712390000000  0.4291620000000  0.5225450000000 1.0
C      1  0.4769930000000  0.5721670000000  0.5709720000000 1.0
C      1  0.5390990000000  0.5090940000000  0.5852810000000 1.0
C      1  0.4147220000000  0.4916310000000  0.5414160000000 1.0
C      1  0.4617300000000  0.5090360000000  0.4144130000000 1.0
C      1  0.5886930000000  0.4919460000000  0.4607410000000 1.0
C      1  0.5024500000000  0.4843470000000  0.5967280000000 1.0
C      1  0.4039890000000  0.5169010000000  0.5041970000000 1.0
C      1  0.4988260000000  0.4831450000000  0.4027480000000 1.0
C      1  0.5977420000000  0.5175310000000  0.4979770000000 1.0
C      1  0.4417940000000  0.5363430000000  0.4741430000000 1.0
C      1  0.5291570000000  0.4622880000000  0.4405830000000 1.0
C      1  0.5570460000000  0.5401830000000  0.5253510000000 1.0
C      1  0.4740240000000  0.4574560000000  0.5576010000000 1.0
C      1  0.5406560000000  0.4643500000000  0.5200030000000 1.0
C      1  0.4756780000000  0.5367300000000  0.5402350000000 1.0
C      1  0.4585530000000  0.4649840000000  0.4778610000000 1.0
C      1  0.5225510000000  0.5334680000000  0.4600660000000 1.0
C      1  0.5903650000000  0.5045780000000  0.5410080000000 1.0
C      1  0.4588520000000  0.4970520000000  0.5903140000000 1.0
C      1  0.4074120000000  0.5033380000000  0.4595720000000 1.0
C      1  0.5433910000000  0.4962620000000  0.4064870000000 1.0
C      1  0.5363990000000  0.5786470000000  0.4572300000000 1.0
C      1  0.5416910000000  0.4202990000000  0.5259080000000 1.0
C      1  0.4719430000000  0.5812260000000  0.5413750000000 1.0
C      1  0.4588570000000  0.4209010000000  0.4714170000000 1.0
C      1  0.5349390000000  0.4588540000000  0.5656230000000 1.0
C      1  0.4318340000000  0.5433640000000  0.5381130000000 1.0
C      1  0.4637870000000  0.4591560000000  0.4323310000000 1.0
C      1  0.5691820000000  0.5401690000000  0.4634530000000 1.0
C      1  0.5590980000000  0.5208530000000  0.5684100000000 1.0
C      1  0.4322610000000  0.4783100000000  0.5602090000000 1.0
C      1  0.4404640000000  0.5203940000000  0.4298010000000 1.0
C      1  0.5737010000000  0.4799210000000  0.4393670000000 1.0
C      1  0.4300320000000  0.4586400000000  0.4684060000000 1.0
C      1  0.5327260000000  0.5397500000000  0.4305590000000 1.0
C      1  0.5694270000000  0.4589700000000  0.5300730000000 1.0
C      1  0.4656980000000  0.5434930000000  0.5692330000000 1.0
C      1  0.4930170000000  0.5362960000000  0.4639210000000 1.0
C      1  0.5388150000000  0.4623030000000  0.4907460000000 1.0
C      1  0.5050070000000  0.5396110000000  0.5348120000000 1.0
C      1  0.4615480000000  0.4617320000000  0.5071490000000 1.0
C      1  0.5690350000000  0.4259790000000  0.4917380000000 1.0
C      1  0.5076490000000  0.5746410000000  0.5663650000000 1.0
C      1  0.4318980000000  0.4250630000000  0.5061600000000 1.0
C      1  0.4972440000000  0.5749220000000  0.4362880000000 1.0
C      1  0.5221490000000  0.4382620000000  0.4819220000000 1.0
C      1  0.5150960000000  0.5674260000000  0.5153880000000 1.0
C      1  0.4789500000000  0.4376290000000  0.5139410000000 1.0
C      1  0.4842820000000  0.5521710000000  0.4873380000000 1.0
C      1  0.5148270000000  0.5118800000000  0.5263560000000 1.0
C      1  0.4724370000000  0.4875140000000  0.5170600000000 1.0
C      1  0.4840330000000  0.5089940000000  0.4725900000000 1.0
C      1  0.5284210000000  0.4891760000000  0.4826300000000 1.0
C      1  0.5622360000000  0.5316480000000  0.4361430000000 1.0
C      1  0.5617670000000  0.4678220000000  0.5587400000000 1.0
C      1  0.4363590000000  0.5445080000000  0.5660470000000 1.0
C      1  0.4364180000000  0.4675140000000  0.4394060000000 1.0
C      1  0.4999690000000  0.4389210000000  0.4972380000000 1.0
C      1  0.4985910000000  0.5761670000000  0.4913320000000 1.0
C      1  0.5007530000000  0.4984030000000  0.4992910000000 1.0
END
