TITL C-3577081-279-436 -5.56135466759439e-06 125000 -1209.02996680351 0 0 189 (C1) n - 1
REM
REM in /home/bkarasulu/work/CARBON/AIRSS/Generating-Clusters/EDIP-Nigel-Params/with-SteepDescent/Higher-Symm/SD-CG/HFTN-CG
REM
REM
REM
REM
REM
REM ./C.cell (12c818d87b63d06a65506943cc24bca4)
REM
REM compiler GCC version 9.2.1 20190827 (Red Hat 9.2.1-1)
REM options -cpp -mtune=generic -march=x86-64 -g -O0 -fpre-include=/usr/include/finclude/math-vector-fortran.h
REM seed 1794705174 -844633140 -1592149473 1856284684 -1125873510 -1508745886 217565203 1515838187 -2114138217 29944873 -440287752 727686497 -192339986 -49834051 -1510651748 1626134747 1416575342 -1563019278 1914398835 -2009399618 -1286805117 -235334780 635381594 -1956715930 -2142537414 401643105 388124216 -781617578 1405167495 -1386711266 628890286 -2010908978 1327999089
REM
CELL 1.54180   50.00000   50.00000   50.00000   90.00000   90.00000   90.00000
LATT -1
SFAC C  
C      1  0.4936500000000  0.4317350000000  0.5992020000000 1.0
C      1  0.5749450000000  0.5439600000000  0.5616440000000 1.0
C      1  0.4008290000000  0.4618610000000  0.4674530000000 1.0
C      1  0.3803760000000  0.4546180000000  0.5166270000000 1.0
C      1  0.4270750000000  0.4251830000000  0.5658200000000 1.0
C      1  0.4872490000000  0.5858680000000  0.5533200000000 1.0
C      1  0.5950710000000  0.5605750000000  0.5025390000000 1.0
C      1  0.4194330000000  0.5453620000000  0.4506390000000 1.0
C      1  0.5440360000000  0.5254250000000  0.4921780000000 1.0
C      1  0.5557310000000  0.4790740000000  0.4700800000000 1.0
C      1  0.4932660000000  0.5095300000000  0.3934170000000 1.0
C      1  0.4059870000000  0.5587630000000  0.4987530000000 1.0
C      1  0.4879150000000  0.4845810000000  0.4687090000000 1.0
C      1  0.4576390000000  0.5556100000000  0.5935300000000 1.0
C      1  0.5058610000000  0.5360510000000  0.3972350000000 1.0
C      1  0.4568800000000  0.5290490000000  0.4861800000000 1.0
C      1  0.5067860000000  0.5256100000000  0.6138690000000 1.0
C      1  0.5550390000000  0.4813230000000  0.3974810000000 1.0
C      1  0.5113730000000  0.6084080000000  0.5738600000000 1.0
C      1  0.5377170000000  0.4511690000000  0.5841250000000 1.0
C      1  0.5684310000000  0.4753280000000  0.5250820000000 1.0
C      1  0.4934120000000  0.5713130000000  0.5116720000000 1.0
C      1  0.5280510000000  0.5523210000000  0.4808590000000 1.0
C      1  0.5856370000000  0.5180410000000  0.5516160000000 1.0
C      1  0.5447420000000  0.5592060000000  0.4186700000000 1.0
C      1  0.4123680000000  0.4477090000000  0.5528460000000 1.0
C      1  0.4401590000000  0.5545790000000  0.5681550000000 1.0
C      1  0.4220070000000  0.5631850000000  0.4736530000000 1.0
C      1  0.4797190000000  0.3911220000000  0.5364790000000 1.0
C      1  0.4846430000000  0.5269700000000  0.4949510000000 1.0
C      1  0.4851460000000  0.4605510000000  0.4842700000000 1.0
C      1  0.5561850000000  0.5851500000000  0.4827800000000 1.0
C      1  0.5276330000000  0.5795260000000  0.4337040000000 1.0
C      1  0.4280850000000  0.4225050000000  0.4608010000000 1.0
C      1  0.5659050000000  0.4274530000000  0.5517560000000 1.0
C      1  0.5217070000000  0.4265650000000  0.5886570000000 1.0
C      1  0.5744870000000  0.4321220000000  0.4653550000000 1.0
C      1  0.5251070000000  0.4455730000000  0.5281800000000 1.0
C      1  0.5831830000000  0.4282830000000  0.5273580000000 1.0
C      1  0.4147510000000  0.4650660000000  0.4405160000000 1.0
C      1  0.5115890000000  0.4318090000000  0.5051920000000 1.0
C      1  0.4920960000000  0.5946190000000  0.5905130000000 1.0
C      1  0.4482380000000  0.4958450000000  0.4520480000000 1.0
C      1  0.4744290000000  0.4152810000000  0.5828260000000 1.0
C      1  0.3846440000000  0.4855080000000  0.4787710000000 1.0
C      1  0.5440580000000  0.4751330000000  0.4409040000000 1.0
C      1  0.4943480000000  0.4808730000000  0.4394820000000 1.0
C      1  0.4377040000000  0.5286820000000  0.5079870000000 1.0
C      1  0.4728750000000  0.4640100000000  0.5111740000000 1.0
C      1  0.4306390000000  0.4016640000000  0.5508150000000 1.0
C      1  0.4837450000000  0.4603400000000  0.6020690000000 1.0
C      1  0.4452140000000  0.5562030000000  0.5196940000000 1.0
C      1  0.5300750000000  0.5525690000000  0.5492690000000 1.0
C      1  0.4227420000000  0.4962650000000  0.4354510000000 1.0
C      1  0.6154200000000  0.4882790000000  0.4811790000000 1.0
C      1  0.5604090000000  0.4336950000000  0.4399900000000 1.0
C      1  0.4653070000000  0.5812150000000  0.5128310000000 1.0
C      1  0.5003380000000  0.5087900000000  0.4780440000000 1.0
C      1  0.4560830000000  0.5279640000000  0.6045650000000 1.0
C      1  0.4455730000000  0.4809170000000  0.4803600000000 1.0
C      1  0.5031240000000  0.4844150000000  0.5931490000000 1.0
C      1  0.5693970000000  0.5825690000000  0.5313030000000 1.0
C      1  0.4845570000000  0.5372460000000  0.5440770000000 1.0
C      1  0.4531800000000  0.5832270000000  0.4417340000000 1.0
C      1  0.6028750000000  0.4697300000000  0.4612610000000 1.0
C      1  0.5336100000000  0.4733550000000  0.4895560000000 1.0
C      1  0.5675420000000  0.4654820000000  0.4230390000000 1.0
C      1  0.5411680000000  0.4001360000000  0.5226090000000 1.0
C      1  0.3988520000000  0.5117100000000  0.4773810000000 1.0
C      1  0.5068930000000  0.4880940000000  0.3779090000000 1.0
C      1  0.5072270000000  0.5058510000000  0.4292180000000 1.0
C      1  0.4844650000000  0.4225590000000  0.4449590000000 1.0
C      1  0.4437490000000  0.3948800000000  0.4950510000000 1.0
C      1  0.5961380000000  0.5798280000000  0.5230160000000 1.0
C      1  0.4607220000000  0.5505170000000  0.4126160000000 1.0
C      1  0.5683120000000  0.4764460000000  0.5592900000000 1.0
C      1  0.5855280000000  0.4973580000000  0.5741550000000 1.0
C      1  0.4517740000000  0.3889750000000  0.5393590000000 1.0
C      1  0.3737200000000  0.4794890000000  0.5059780000000 1.0
C      1  0.4065050000000  0.5283900000000  0.5024150000000 1.0
C      1  0.5379300000000  0.4210650000000  0.5433580000000 1.0
C      1  0.6200700000000  0.4938580000000  0.5281710000000 1.0
C      1  0.4342130000000  0.4404020000000  0.4399000000000 1.0
C      1  0.4793440000000  0.5157890000000  0.6170320000000 1.0
C      1  0.5803610000000  0.4589730000000  0.4771610000000 1.0
C      1  0.4660830000000  0.4823870000000  0.4307370000000 1.0
C      1  0.4958140000000  0.4343890000000  0.3938930000000 1.0
C      1  0.6100150000000  0.5194330000000  0.5327930000000 1.0
C      1  0.5352580000000  0.4185820000000  0.4485170000000 1.0
C      1  0.5235830000000  0.5014150000000  0.4969600000000 1.0
C      1  0.4631340000000  0.4385280000000  0.4298730000000 1.0
C      1  0.4903550000000  0.4098160000000  0.5572860000000 1.0
C      1  0.6156460000000  0.4752350000000  0.5078950000000 1.0
C      1  0.5193430000000  0.4109730000000  0.5640160000000 1.0
C      1  0.4871990000000  0.5156460000000  0.5231070000000 1.0
C      1  0.6000680000000  0.5272870000000  0.4561540000000 1.0
C      1  0.4425050000000  0.5313380000000  0.4038010000000 1.0
C      1  0.4260120000000  0.4395930000000  0.5061460000000 1.0
C      1  0.4597230000000  0.5970220000000  0.4868950000000 1.0
C      1  0.4606910000000  0.4905320000000  0.5060900000000 1.0
C      1  0.4533630000000  0.4419360000000  0.5198850000000 1.0
C      1  0.5115770000000  0.4492830000000  0.4816970000000 1.0
C      1  0.5676870000000  0.4085130000000  0.5113270000000 1.0
C      1  0.4185710000000  0.5703130000000  0.5232660000000 1.0
C      1  0.4560900000000  0.5453570000000  0.5450780000000 1.0
C      1  0.4705920000000  0.3920480000000  0.4878530000000 1.0
C      1  0.5136590000000  0.5003210000000  0.5265020000000 1.0
C      1  0.4908830000000  0.3925890000000  0.5088020000000 1.0
C      1  0.5897840000000  0.4595320000000  0.5084550000000 1.0
C      1  0.6000900000000  0.5140660000000  0.4823380000000 1.0
C      1  0.5255120000000  0.5031010000000  0.6088060000000 1.0
C      1  0.5421410000000  0.4944810000000  0.5665800000000 1.0
C      1  0.4851810000000  0.4724720000000  0.3682710000000 1.0
C      1  0.5007860000000  0.5620810000000  0.5384900000000 1.0
C      1  0.5626460000000  0.5107140000000  0.4719220000000 1.0
C      1  0.4223850000000  0.4643540000000  0.4886440000000 1.0
C      1  0.4969670000000  0.5262950000000  0.5681960000000 1.0
C      1  0.4649680000000  0.4913260000000  0.5597370000000 1.0
C      1  0.5636120000000  0.5105370000000  0.5308910000000 1.0
C      1  0.5022530000000  0.5248810000000  0.4512990000000 1.0
C      1  0.4989140000000  0.5776470000000  0.4263980000000 1.0
C      1  0.5297140000000  0.6098120000000  0.5207130000000 1.0
C      1  0.4976460000000  0.5543280000000  0.4888510000000 1.0
C      1  0.4514790000000  0.5262100000000  0.4578290000000 1.0
C      1  0.5560560000000  0.5136370000000  0.3976850000000 1.0
C      1  0.5616170000000  0.5342880000000  0.5145840000000 1.0
C      1  0.5345120000000  0.5372260000000  0.4015360000000 1.0
C      1  0.5119700000000  0.6078700000000  0.4744650000000 1.0
C      1  0.5271740000000  0.4724640000000  0.3930470000000 1.0
C      1  0.4634140000000  0.4674250000000  0.3858260000000 1.0
C      1  0.4083320000000  0.5187480000000  0.4509310000000 1.0
C      1  0.5167300000000  0.4593470000000  0.4340480000000 1.0
C      1  0.5726000000000  0.5509230000000  0.4263130000000 1.0
C      1  0.4217950000000  0.5276610000000  0.5707980000000 1.0
C      1  0.4757090000000  0.5408980000000  0.4461450000000 1.0
C      1  0.5207270000000  0.6110470000000  0.5474940000000 1.0
C      1  0.4533350000000  0.4352660000000  0.5748320000000 1.0
C      1  0.4408280000000  0.5850450000000  0.4677240000000 1.0
C      1  0.5061850000000  0.5440390000000  0.5897350000000 1.0
C      1  0.5631620000000  0.4116190000000  0.4825040000000 1.0
C      1  0.4799450000000  0.5652280000000  0.4644990000000 1.0
C      1  0.5910970000000  0.5097090000000  0.4346190000000 1.0
C      1  0.5527110000000  0.5091780000000  0.5914630000000 1.0
C      1  0.4808710000000  0.4674750000000  0.5490570000000 1.0
C      1  0.6050360000000  0.5325760000000  0.5059470000000 1.0
C      1  0.4701640000000  0.4429020000000  0.4011120000000 1.0
C      1  0.5325840000000  0.5888290000000  0.4636840000000 1.0
C      1  0.4608840000000  0.4912990000000  0.4038440000000 1.0
C      1  0.5319890000000  0.5541890000000  0.5788920000000 1.0
C      1  0.4358150000000  0.5831560000000  0.5545840000000 1.0
C      1  0.4448190000000  0.5057240000000  0.5304410000000 1.0
C      1  0.4341810000000  0.5048560000000  0.4073260000000 1.0
C      1  0.4263860000000  0.4156080000000  0.4878410000000 1.0
C      1  0.5846330000000  0.5518550000000  0.4542900000000 1.0
C      1  0.4836530000000  0.6040640000000  0.4668850000000 1.0
C      1  0.4677190000000  0.4408270000000  0.5476660000000 1.0
C      1  0.5115850000000  0.4361330000000  0.4523840000000 1.0
C      1  0.4765360000000  0.4032920000000  0.4633390000000 1.0
C      1  0.5376420000000  0.4013670000000  0.4729500000000 1.0
C      1  0.5195460000000  0.4035660000000  0.5013880000000 1.0
C      1  0.5373510000000  0.5031720000000  0.4301990000000 1.0
C      1  0.5511450000000  0.5251590000000  0.4464010000000 1.0
C      1  0.5794250000000  0.5247550000000  0.4128740000000 1.0
C      1  0.5443960000000  0.4629780000000  0.5143620000000 1.0
C      1  0.5791450000000  0.5671130000000  0.4786600000000 1.0
C      1  0.4023780000000  0.4399100000000  0.5258300000000 1.0
C      1  0.4786530000000  0.5968510000000  0.4372620000000 1.0
C      1  0.5266660000000  0.5407400000000  0.4542710000000 1.0
C      1  0.4545940000000  0.4597530000000  0.5930020000000 1.0
C      1  0.4172380000000  0.5069940000000  0.5473620000000 1.0
C      1  0.5646820000000  0.4493310000000  0.5714630000000 1.0
C      1  0.5921430000000  0.4804620000000  0.4352980000000 1.0
C      1  0.4605250000000  0.5945330000000  0.5409250000000 1.0
C      1  0.5521870000000  0.5942730000000  0.5109820000000 1.0
C      1  0.5218810000000  0.4736870000000  0.5720480000000 1.0
C      1  0.5587850000000  0.5552250000000  0.5381580000000 1.0
C      1  0.5206010000000  0.4451150000000  0.3995110000000 1.0
C      1  0.5567040000000  0.5392860000000  0.5851420000000 1.0
C      1  0.3733960000000  0.5008530000000  0.5237390000000 1.0
C      1  0.4886510000000  0.5572980000000  0.4075860000000 1.0
C      1  0.3954180000000  0.5168720000000  0.5281220000000 1.0
C      1  0.4422820000000  0.4837010000000  0.5785000000000 1.0
C      1  0.4855650000000  0.5661380000000  0.5924740000000 1.0
C      1  0.4186250000000  0.4769940000000  0.5599300000000 1.0
C      1  0.5100320000000  0.4698750000000  0.5439640000000 1.0
C      1  0.4351030000000  0.5111570000000  0.5917110000000 1.0
C      1  0.5148550000000  0.6191380000000  0.4996190000000 1.0
C      1  0.5350330000000  0.5143010000000  0.5437400000000 1.0
C      1  0.4836670000000  0.5043030000000  0.5801110000000 1.0
END
