TITL C-3577085-527-471 3.48465916293757e-07 125000 -890.405487259091 0 0 142 (C1) n - 1
REM
REM in /home/bkarasulu/work/CARBON/AIRSS/Generating-Clusters/EDIP-Nigel-Params/with-SteepDescent/Higher-Symm/SD-CG/HFTN-CG
REM
REM
REM
REM
REM
REM ./C.cell (12c818d87b63d06a65506943cc24bca4)
REM
REM compiler GCC version 9.2.1 20190827 (Red Hat 9.2.1-1)
REM options -cpp -mtune=generic -march=x86-64 -g -O0 -fpre-include=/usr/include/finclude/math-vector-fortran.h
REM seed -1577992820 -136420279 1170851962 421375979 -1464922755 1321044341 -248242016 -1536575246 1081337626 1309004109 783809412 -1086860888 2043983221 -1218376607 -69584423 -1272448547 -1878723534 -1290942666 -202615921 -2146011526 672431283 696643524 1391686879 927193837 -306185163 -1903060331 371965511 -1627815366 823974843 232083498 -42887706 706423798 258450294
REM
CELL 1.54180   50.00000   50.00000   50.00000   90.00000   90.00000   90.00000
LATT -1
SFAC C  
C      1  0.5804860000000  0.5464180000000  0.5257160000000 1.0
C      1  0.5862600000000  0.5434910000000  0.4750580000000 1.0
C      1  0.5641210000000  0.5440660000000  0.4278510000000 1.0
C      1  0.5183220000000  0.5448920000000  0.4091320000000 1.0
C      1  0.4686550000000  0.5445340000000  0.4190780000000 1.0
C      1  0.4320220000000  0.5441440000000  0.4520600000000 1.0
C      1  0.4155750000000  0.5444040000000  0.4976460000000 1.0
C      1  0.4237880000000  0.5452390000000  0.5467420000000 1.0
C      1  0.4584430000000  0.5445110000000  0.5844340000000 1.0
C      1  0.5074340000000  0.5434830000000  0.5945660000000 1.0
C      1  0.5534350000000  0.5424190000000  0.5697580000000 1.0
C      1  0.5481820000000  0.6030310000000  0.5004800000000 1.0
C      1  0.5341120000000  0.6181800000000  0.4807960000000 1.0
C      1  0.5211660000000  0.6113840000000  0.4563440000000 1.0
C      1  0.4936090000000  0.6170300000000  0.4560990000000 1.0
C      1  0.4684950000000  0.6057370000000  0.4613600000000 1.0
C      1  0.4564890000000  0.6127820000000  0.4856700000000 1.0
C      1  0.4511820000000  0.6059830000000  0.5123210000000 1.0
C      1  0.4683930000000  0.6168550000000  0.5315840000000 1.0
C      1  0.4905330000000  0.6107460000000  0.5478150000000 1.0
C      1  0.5156900000000  0.6175250000000  0.5361700000000 1.0
C      1  0.5388700000000  0.6027030000000  0.5283330000000 1.0
C      1  0.5081240000000  0.5171980000000  0.6038600000000 1.0
C      1  0.5630320000000  0.5182380000000  0.5790210000000 1.0
C      1  0.5941600000000  0.5219160000000  0.5290090000000 1.0
C      1  0.5995780000000  0.5191440000000  0.4739120000000 1.0
C      1  0.5694470000000  0.5173770000000  0.4210500000000 1.0
C      1  0.5214570000000  0.5185520000000  0.4002330000000 1.0
C      1  0.4609040000000  0.5196740000000  0.4087730000000 1.0
C      1  0.4220660000000  0.5202630000000  0.4413220000000 1.0
C      1  0.4010100000000  0.5203790000000  0.4996210000000 1.0
C      1  0.4126370000000  0.5194020000000  0.5485690000000 1.0
C      1  0.4555720000000  0.5181450000000  0.5937180000000 1.0
C      1  0.5845760000000  0.4390880000000  0.5281830000000 1.0
C      1  0.5709010000000  0.4386200000000  0.4815430000000 1.0
C      1  0.5606250000000  0.4371280000000  0.4352450000000 1.0
C      1  0.5124940000000  0.4376540000000  0.4285320000000 1.0
C      1  0.4658780000000  0.4376030000000  0.4167570000000 1.0
C      1  0.4373560000000  0.4356740000000  0.4563230000000 1.0
C      1  0.4086490000000  0.4378650000000  0.4962320000000 1.0
C      1  0.4414170000000  0.4418090000000  0.5318830000000 1.0
C      1  0.4593390000000  0.4375780000000  0.5786080000000 1.0
C      1  0.5061980000000  0.4373990000000  0.5833620000000 1.0
C      1  0.5424390000000  0.4400370000000  0.5516160000000 1.0
C      1  0.5586060000000  0.4914280000000  0.5742270000000 1.0
C      1  0.5931300000000  0.4936560000000  0.5291480000000 1.0
C      1  0.5946570000000  0.4918040000000  0.4747180000000 1.0
C      1  0.5669120000000  0.4901500000000  0.4271610000000 1.0
C      1  0.5182920000000  0.4913260000000  0.4060270000000 1.0
C      1  0.4632090000000  0.4918460000000  0.4112080000000 1.0
C      1  0.4234040000000  0.4926380000000  0.4453400000000 1.0
C      1  0.4035590000000  0.4925100000000  0.4968410000000 1.0
C      1  0.4167190000000  0.4915810000000  0.5481420000000 1.0
C      1  0.4559360000000  0.4907360000000  0.5882360000000 1.0
C      1  0.5096720000000  0.4902920000000  0.5969540000000 1.0
C      1  0.4100270000000  0.4781590000000  0.5223780000000 1.0
C      1  0.4416330000000  0.4790000000000  0.5624630000000 1.0
C      1  0.4840790000000  0.4782920000000  0.5858520000000 1.0
C      1  0.5322550000000  0.4791790000000  0.5808820000000 1.0
C      1  0.5700500000000  0.4811800000000  0.5478680000000 1.0
C      1  0.5962860000000  0.4787580000000  0.5019680000000 1.0
C      1  0.5813590000000  0.4778710000000  0.4512950000000 1.0
C      1  0.5417870000000  0.4771180000000  0.4173120000000 1.0
C      1  0.4908460000000  0.4789590000000  0.4096850000000 1.0
C      1  0.4427490000000  0.4782530000000  0.4284010000000 1.0
C      1  0.4140940000000  0.4796690000000  0.4710370000000 1.0
C      1  0.4958200000000  0.5503800000000  0.4258620000000 1.0
C      1  0.4527920000000  0.5597650000000  0.4385090000000 1.0
C      1  0.4388530000000  0.5435610000000  0.4802040000000 1.0
C      1  0.4233170000000  0.5605150000000  0.5212150000000 1.0
C      1  0.4506650000000  0.5496240000000  0.5569970000000 1.0
C      1  0.4834700000000  0.5592460000000  0.5879590000000 1.0
C      1  0.5269140000000  0.5514100000000  0.5756380000000 1.0
C      1  0.5623190000000  0.5574930000000  0.5462250000000 1.0
C      1  0.5785860000000  0.5584310000000  0.4990750000000 1.0
C      1  0.5684690000000  0.5526740000000  0.4544250000000 1.0
C      1  0.5406040000000  0.5598650000000  0.4202390000000 1.0
C      1  0.4533410000000  0.4729550000000  0.4906890000000 1.0
C      1  0.4615480000000  0.4618210000000  0.5189760000000 1.0
C      1  0.4638670000000  0.4834180000000  0.5419910000000 1.0
C      1  0.4906680000000  0.4830830000000  0.5563500000000 1.0
C      1  0.5180880000000  0.4743850000000  0.5391380000000 1.0
C      1  0.5464460000000  0.4879660000000  0.5294260000000 1.0
C      1  0.5523690000000  0.4767800000000  0.5039810000000 1.0
C      1  0.5371240000000  0.4817090000000  0.4814070000000 1.0
C      1  0.5091920000000  0.4790280000000  0.4893860000000 1.0
C      1  0.4948600000000  0.4711860000000  0.4646740000000 1.0
C      1  0.4697090000000  0.4618260000000  0.4707960000000 1.0
C      1  0.4551520000000  0.5028580000000  0.4869310000000 1.0
C      1  0.4567230000000  0.5170340000000  0.5108210000000 1.0
C      1  0.4634790000000  0.5121840000000  0.5370130000000 1.0
C      1  0.4895130000000  0.5208560000000  0.5462240000000 1.0
C      1  0.5082730000000  0.5099980000000  0.5269650000000 1.0
C      1  0.5373730000000  0.5173070000000  0.5236270000000 1.0
C      1  0.5392210000000  0.5236710000000  0.4959960000000 1.0
C      1  0.5395170000000  0.5086880000000  0.4718340000000 1.0
C      1  0.5192560000000  0.5100140000000  0.4520490000000 1.0
C      1  0.4936730000000  0.4969050000000  0.4501390000000 1.0
C      1  0.4765660000000  0.5148960000000  0.4677330000000 1.0
C      1  0.5384350000000  0.4493670000000  0.4243620000000 1.0
C      1  0.4906720000000  0.4498950000000  0.4141670000000 1.0
C      1  0.4461650000000  0.4495750000000  0.4321260000000 1.0
C      1  0.4189070000000  0.4506680000000  0.4736520000000 1.0
C      1  0.4147940000000  0.4491830000000  0.5208500000000 1.0
C      1  0.4407780000000  0.4488350000000  0.5615180000000 1.0
C      1  0.4820800000000  0.4489210000000  0.5895470000000 1.0
C      1  0.5286820000000  0.4508830000000  0.5742730000000 1.0
C      1  0.5691580000000  0.4510050000000  0.5477850000000 1.0
C      1  0.5877180000000  0.4499660000000  0.5027960000000 1.0
C      1  0.5754330000000  0.4493600000000  0.4551660000000 1.0
C      1  0.4494980000000  0.4079370000000  0.4957900000000 1.0
C      1  0.4520710000000  0.4139280000000  0.5239560000000 1.0
C      1  0.4770930000000  0.4068290000000  0.5366360000000 1.0
C      1  0.5047000000000  0.4086860000000  0.5407950000000 1.0
C      1  0.5322180000000  0.4161850000000  0.5374900000000 1.0
C      1  0.5442390000000  0.4108900000000  0.5125280000000 1.0
C      1  0.5503770000000  0.4175250000000  0.4858510000000 1.0
C      1  0.5307110000000  0.4112720000000  0.4657350000000 1.0
C      1  0.5081340000000  0.4164390000000  0.4484540000000 1.0
C      1  0.4808100000000  0.4097740000000  0.4558240000000 1.0
C      1  0.4545480000000  0.4140370000000  0.4679540000000 1.0
C      1  0.4708300000000  0.5760120000000  0.4582580000000 1.0
C      1  0.4608630000000  0.5634270000000  0.4876500000000 1.0
C      1  0.4502630000000  0.5762800000000  0.5163440000000 1.0
C      1  0.4661110000000  0.5696350000000  0.5426870000000 1.0
C      1  0.4892750000000  0.5822970000000  0.5600340000000 1.0
C      1  0.5189830000000  0.5733870000000  0.5601740000000 1.0
C      1  0.5402930000000  0.5769160000000  0.5413420000000 1.0
C      1  0.5576950000000  0.5776520000000  0.4903240000000 1.0
C      1  0.5524760000000  0.5744590000000  0.4624020000000 1.0
C      1  0.5280220000000  0.5831460000000  0.4456350000000 1.0
C      1  0.4995710000000  0.5697520000000  0.4467600000000 1.0
C      1  0.5085170000000  0.3789600000000  0.4843260000000 1.0
C      1  0.4862210000000  0.5535260000000  0.4983790000000 1.0
C      1  0.5099710000000  0.4610660000000  0.5136500000000 1.0
C      1  0.4968530000000  0.5053290000000  0.4997750000000 1.0
C      1  0.5004190000000  0.6015000000000  0.5000640000000 1.0
C      1  0.4869800000000  0.4448820000000  0.5165220000000 1.0
C      1  0.5025170000000  0.5753510000000  0.5024720000000 1.0
C      1  0.4902470000000  0.4247230000000  0.4965850000000 1.0
C      1  0.4959480000000  0.3975360000000  0.4975840000000 1.0
C      1  0.4976180000000  0.5317950000000  0.4837170000000 1.0
END
