TITL C-3577083-591-46 1.69054332846544e-06 125000 -988.374904869232 0 0 162 (C1) n - 1
REM
REM in /home/bkarasulu/work/CARBON/AIRSS/Generating-Clusters/EDIP-Nigel-Params/with-SteepDescent/Higher-Symm/SD-CG/HFTN-CG
REM
REM
REM
REM
REM
REM ./C.cell (12c818d87b63d06a65506943cc24bca4)
REM
REM compiler GCC version 9.2.1 20190827 (Red Hat 9.2.1-1)
REM options -cpp -mtune=generic -march=x86-64 -g -O0 -fpre-include=/usr/include/finclude/math-vector-fortran.h
REM seed 802089566 -1247621983 -2083895517 -875142273 -710759399 1199260025 -1914686465 746631370 -280601918 -1635811145 2033112856 243440092 -1640920596 1681222096 -179435593 -1546746436 -1563616207 1763370722 -833703045 1879555172 152308717 605872007 -496969380 1824858515 -1675525722 516256129 -788870754 1977049485 -188632225 1076295074 433456080 512212097 1993713403
REM
CELL 1.54180   50.00000   50.00000   50.00000   90.00000   90.00000   90.00000
LATT -1
SFAC C  
C      1  0.5162540000000  0.5512400000000  0.4662000000000 1.0
C      1  0.5522060000000  0.5130750000000  0.4720280000000 1.0
C      1  0.5353640000000  0.4613540000000  0.4686180000000 1.0
C      1  0.4844880000000  0.4481150000000  0.4674470000000 1.0
C      1  0.4549950000000  0.4883480000000  0.4711690000000 1.0
C      1  0.4643870000000  0.5385510000000  0.4679680000000 1.0
C      1  0.4881870000000  0.5491320000000  0.4568560000000 1.0
C      1  0.4519300000000  0.5132410000000  0.4591270000000 1.0
C      1  0.4636500000000  0.4645910000000  0.4585430000000 1.0
C      1  0.5120650000000  0.4501540000000  0.4572940000000 1.0
C      1  0.5482510000000  0.4868780000000  0.4601070000000 1.0
C      1  0.5380480000000  0.5354600000000  0.4581560000000 1.0
C      1  0.5150190000000  0.5525380000000  0.5561480000000 1.0
C      1  0.5739290000000  0.5270080000000  0.5602820000000 1.0
C      1  0.5585500000000  0.4513920000000  0.5634760000000 1.0
C      1  0.4840620000000  0.4463680000000  0.5575670000000 1.0
C      1  0.4258110000000  0.4713790000000  0.5613370000000 1.0
C      1  0.4413910000000  0.5477260000000  0.5611980000000 1.0
C      1  0.4839170000000  0.5579640000000  0.5573340000000 1.0
C      1  0.4267710000000  0.5229000000000  0.5597180000000 1.0
C      1  0.4403960000000  0.4466120000000  0.5626380000000 1.0
C      1  0.5158440000000  0.4420010000000  0.5585840000000 1.0
C      1  0.5728670000000  0.4762680000000  0.5622660000000 1.0
C      1  0.5586490000000  0.5514810000000  0.5607770000000 1.0
C      1  0.4378230000000  0.5149880000000  0.5173690000000 1.0
C      1  0.4856960000000  0.5558030000000  0.5129680000000 1.0
C      1  0.5432110000000  0.5411430000000  0.5142580000000 1.0
C      1  0.5612410000000  0.4863070000000  0.5145890000000 1.0
C      1  0.5139010000000  0.4436490000000  0.5109930000000 1.0
C      1  0.4554840000000  0.4576770000000  0.5147200000000 1.0
C      1  0.5552150000000  0.5150830000000  0.5024590000000 1.0
C      1  0.5156310000000  0.5581300000000  0.5095680000000 1.0
C      1  0.4543390000000  0.5388330000000  0.5107930000000 1.0
C      1  0.4396310000000  0.4829930000000  0.5121200000000 1.0
C      1  0.4842790000000  0.4403130000000  0.5107380000000 1.0
C      1  0.5462140000000  0.4611700000000  0.5111250000000 1.0
C      1  0.5828850000000  0.4832330000000  0.4268130000000 1.0
C      1  0.5281130000000  0.4178760000000  0.4267470000000 1.0
C      1  0.4432480000000  0.4368200000000  0.4270200000000 1.0
C      1  0.4164960000000  0.5169710000000  0.4268500000000 1.0
C      1  0.4720760000000  0.5821510000000  0.4268530000000 1.0
C      1  0.5569020000000  0.5643760000000  0.4260420000000 1.0
C      1  0.4169350000000  0.4876190000000  0.4274830000000 1.0
C      1  0.4681420000000  0.4207100000000  0.4279100000000 1.0
C      1  0.5529610000000  0.4338120000000  0.4279790000000 1.0
C      1  0.5835310000000  0.5126970000000  0.4269300000000 1.0
C      1  0.5315790000000  0.5797250000000  0.4272220000000 1.0
C      1  0.4470180000000  0.5665480000000  0.4280350000000 1.0
C      1  0.5793160000000  0.5700870000000  0.5516950000000 1.0
C      1  0.5985120000000  0.4668450000000  0.5520660000000 1.0
C      1  0.5116610000000  0.4121940000000  0.5516180000000 1.0
C      1  0.4196480000000  0.4286120000000  0.5519700000000 1.0
C      1  0.4004510000000  0.5333700000000  0.5522290000000 1.0
C      1  0.4882420000000  0.5878280000000  0.5517190000000 1.0
C      1  0.4204380000000  0.5661650000000  0.5529450000000 1.0
C      1  0.4003140000000  0.4619020000000  0.5512090000000 1.0
C      1  0.4827720000000  0.4084180000000  0.5502410000000 1.0
C      1  0.5794060000000  0.4334180000000  0.5535720000000 1.0
C      1  0.5993060000000  0.5372260000000  0.5503200000000 1.0
C      1  0.5171210000000  0.5906610000000  0.5495670000000 1.0
C      1  0.5604230000000  0.5170440000000  0.4090080000000 1.0
C      1  0.5449390000000  0.4550020000000  0.4091660000000 1.0
C      1  0.4839150000000  0.4372710000000  0.4091490000000 1.0
C      1  0.4394770000000  0.4834880000000  0.4089550000000 1.0
C      1  0.4546410000000  0.5454440000000  0.4090030000000 1.0
C      1  0.5159810000000  0.5629590000000  0.4086030000000 1.0
C      1  0.4388440000000  0.5207160000000  0.4077530000000 1.0
C      1  0.4523510000000  0.4570570000000  0.4076580000000 1.0
C      1  0.5133780000000  0.4351440000000  0.4076820000000 1.0
C      1  0.5603710000000  0.4799490000000  0.4079580000000 1.0
C      1  0.5478750000000  0.5436100000000  0.4071310000000 1.0
C      1  0.4864720000000  0.5648810000000  0.4075390000000 1.0
C      1  0.4399200000000  0.5557270000000  0.4561620000000 1.0
C      1  0.5189940000000  0.5809130000000  0.4552920000000 1.0
C      1  0.5811370000000  0.5256300000000  0.4545430000000 1.0
C      1  0.5602270000000  0.4444530000000  0.4562170000000 1.0
C      1  0.4810230000000  0.4186290000000  0.4559660000000 1.0
C      1  0.4217270000000  0.4764790000000  0.4553280000000 1.0
C      1  0.5630350000000  0.5519320000000  0.4532870000000 1.0
C      1  0.4853300000000  0.5804280000000  0.4540320000000 1.0
C      1  0.4239190000000  0.5263440000000  0.4546820000000 1.0
C      1  0.4382930000000  0.4496610000000  0.4541480000000 1.0
C      1  0.5150730000000  0.4191320000000  0.4540200000000 1.0
C      1  0.5756280000000  0.4731910000000  0.4544200000000 1.0
C      1  0.6226010000000  0.4528080000000  0.5111900000000 1.0
C      1  0.5188500000000  0.3752230000000  0.5169610000000 1.0
C      1  0.3959940000000  0.4173570000000  0.5091960000000 1.0
C      1  0.3765310000000  0.5485240000000  0.5113470000000 1.0
C      1  0.4812790000000  0.6249040000000  0.5172220000000 1.0
C      1  0.6033020000000  0.5837040000000  0.5100010000000 1.0
C      1  0.3759650000000  0.4495290000000  0.5095800000000 1.0
C      1  0.4813570000000  0.3716740000000  0.5164290000000 1.0
C      1  0.6040310000000  0.4197990000000  0.5126790000000 1.0
C      1  0.6244910000000  0.5522880000000  0.5100590000000 1.0
C      1  0.5188530000000  0.6275620000000  0.5156750000000 1.0
C      1  0.3962140000000  0.5809280000000  0.5121960000000 1.0
C      1  0.4000810000000  0.5752490000000  0.4832390000000 1.0
C      1  0.5150620000000  0.6236580000000  0.4860150000000 1.0
C      1  0.6177400000000  0.5515980000000  0.4809550000000 1.0
C      1  0.6004050000000  0.4256650000000  0.4837400000000 1.0
C      1  0.4859760000000  0.3759420000000  0.4870010000000 1.0
C      1  0.3840400000000  0.4508250000000  0.4808730000000 1.0
C      1  0.5996360000000  0.5755850000000  0.4816210000000 1.0
C      1  0.4851030000000  0.6209420000000  0.4877230000000 1.0
C      1  0.3860540000000  0.5488430000000  0.4831770000000 1.0
C      1  0.4006360000000  0.4259940000000  0.4811170000000 1.0
C      1  0.5159420000000  0.3786720000000  0.4873710000000 1.0
C      1  0.6139770000000  0.4522310000000  0.4828580000000 1.0
C      1  0.4339610000000  0.5116680000000  0.5857250000000 1.0
C      1  0.4834190000000  0.5517760000000  0.5875270000000 1.0
C      1  0.5448630000000  0.5472100000000  0.5869010000000 1.0
C      1  0.5649160000000  0.4880240000000  0.5875240000000 1.0
C      1  0.5158390000000  0.4477460000000  0.5887800000000 1.0
C      1  0.4545430000000  0.4517150000000  0.5885680000000 1.0
C      1  0.5668830000000  0.5165020000000  0.5866150000000 1.0
C      1  0.5150990000000  0.5454760000000  0.5864900000000 1.0
C      1  0.4549670000000  0.5436330000000  0.5870180000000 1.0
C      1  0.4331900000000  0.4831580000000  0.5867150000000 1.0
C      1  0.4842930000000  0.4532580000000  0.5879200000000 1.0
C      1  0.5442680000000  0.4556730000000  0.5890120000000 1.0
C      1  0.5710540000000  0.4279090000000  0.4790940000000 1.0
C      1  0.4714620000000  0.4009980000000  0.4789670000000 1.0
C      1  0.4004900000000  0.4755680000000  0.4771530000000 1.0
C      1  0.4294530000000  0.5725860000000  0.4788230000000 1.0
C      1  0.5289950000000  0.5982150000000  0.4782760000000 1.0
C      1  0.6030880000000  0.5260320000000  0.4757860000000 1.0
C      1  0.4295850000000  0.4316140000000  0.4775340000000 1.0
C      1  0.5263590000000  0.4054740000000  0.4794870000000 1.0
C      1  0.5954290000000  0.4749270000000  0.4781200000000 1.0
C      1  0.5709350000000  0.5691780000000  0.4773540000000 1.0
C      1  0.4747840000000  0.5941110000000  0.4799390000000 1.0
C      1  0.4042290000000  0.5257170000000  0.4788440000000 1.0
C      1  0.4718960000000  0.5999740000000  0.5293520000000 1.0
C      1  0.5785250000000  0.5803530000000  0.5246990000000 1.0
C      1  0.6088060000000  0.4737610000000  0.5257920000000 1.0
C      1  0.5278760000000  0.4003500000000  0.5289970000000 1.0
C      1  0.4205570000000  0.4193540000000  0.5245150000000 1.0
C      1  0.3891640000000  0.5270350000000  0.5263220000000 1.0
C      1  0.5305720000000  0.6033170000000  0.5272770000000 1.0
C      1  0.4213290000000  0.5775580000000  0.5264610000000 1.0
C      1  0.3901610000000  0.4695730000000  0.5251840000000 1.0
C      1  0.4690920000000  0.3956400000000  0.5280410000000 1.0
C      1  0.5787440000000  0.4225770000000  0.5268230000000 1.0
C      1  0.6103760000000  0.5311490000000  0.5241740000000 1.0
C      1  0.5587950000000  0.4329810000000  0.5063650000000 1.0
C      1  0.4670850000000  0.4150340000000  0.5053820000000 1.0
C      1  0.4084620000000  0.4834860000000  0.5054850000000 1.0
C      1  0.4414340000000  0.5672430000000  0.5061170000000 1.0
C      1  0.5325990000000  0.5839300000000  0.5047190000000 1.0
C      1  0.5938220000000  0.5176610000000  0.5031210000000 1.0
C      1  0.4410520000000  0.4311380000000  0.5056660000000 1.0
C      1  0.5313740000000  0.4194980000000  0.5062990000000 1.0
C      1  0.5903310000000  0.4871360000000  0.5057760000000 1.0
C      1  0.5587990000000  0.5682510000000  0.5053120000000 1.0
C      1  0.4689750000000  0.5805800000000  0.5068330000000 1.0
C      1  0.4085150000000  0.5144910000000  0.5070270000000 1.0
C      1  0.4816310000000  0.5226120000000  0.5411250000000 1.0
C      1  0.5101340000000  0.5267330000000  0.5399940000000 1.0
C      1  0.4883290000000  0.4719550000000  0.5410670000000 1.0
C      1  0.4746040000000  0.4961280000000  0.5457530000000 1.0
C      1  0.5240780000000  0.5025950000000  0.5443000000000 1.0
C      1  0.5169180000000  0.4760150000000  0.5402850000000 1.0
END
