TITL C-3578199-7832-174 3.9647417691369e-07 125000 -696.031053128989 0 0 110 (C1) n - 1
REM
REM in /home/bkarasulu/work/CARBON/AIRSS/Generating-Clusters/EDIP-Nigel-Params/with-SteepDescent/Higher-Symm/SD-CG/HFTN-CG
REM
REM
REM
REM
REM
REM ./C.cell (12c818d87b63d06a65506943cc24bca4)
REM
REM compiler GCC version 9.2.1 20190827 (Red Hat 9.2.1-1)
REM options -cpp -mtune=generic -march=x86-64 -g -O0 -fpre-include=/usr/include/finclude/math-vector-fortran.h
REM seed -1364098411 -144727512 896333735 -2094417531 558496934 -1033309739 158878201 1447999173 1678117132 -258940269 514200755 -1741834062 1725778313 -1846225782 -940997994 -2109455926 466091428 -1331864776 677529230 -2064221799 -1404091896 -363891572 741741615 1228290780 67650885 -1462769472 142908544 -1282875523 1287607587 -559304675 -989169402 298917629 -1334235287
REM
CELL 1.54180   50.00000   50.00000   50.00000   90.00000   90.00000   90.00000
LATT -1
SFAC C  
C      1  0.5006550000000  0.5905970000000  0.4624120000000 1.0
C      1  0.4517700000000  0.5762290000000  0.4633460000000 1.0
C      1  0.4183480000000  0.5384960000000  0.4639270000000 1.0
C      1  0.4120540000000  0.4887900000000  0.4630560000000 1.0
C      1  0.4319640000000  0.4428230000000  0.4619310000000 1.0
C      1  0.4741480000000  0.4162070000000  0.4622850000000 1.0
C      1  0.5234800000000  0.4178850000000  0.4636990000000 1.0
C      1  0.5659300000000  0.4421570000000  0.4637700000000 1.0
C      1  0.5882600000000  0.4862660000000  0.4631480000000 1.0
C      1  0.5812330000000  0.5355500000000  0.4620150000000 1.0
C      1  0.5495690000000  0.5751000000000  0.4615850000000 1.0
C      1  0.5613870000000  0.4454170000000  0.5515610000000 1.0
C      1  0.5849320000000  0.4874440000000  0.5520510000000 1.0
C      1  0.5777940000000  0.5335130000000  0.5498500000000 1.0
C      1  0.5458180000000  0.5659790000000  0.5483270000000 1.0
C      1  0.5020210000000  0.5790760000000  0.5500260000000 1.0
C      1  0.4573620000000  0.5660740000000  0.5501340000000 1.0
C      1  0.4259150000000  0.5329360000000  0.5500770000000 1.0
C      1  0.4186860000000  0.4876050000000  0.5510210000000 1.0
C      1  0.4381440000000  0.4442560000000  0.5510870000000 1.0
C      1  0.4756640000000  0.4167080000000  0.5500470000000 1.0
C      1  0.5219370000000  0.4193780000000  0.5502290000000 1.0
C      1  0.5519110000000  0.5777530000000  0.4913240000000 1.0
C      1  0.5010330000000  0.5933350000000  0.4924310000000 1.0
C      1  0.4498150000000  0.5791110000000  0.4929720000000 1.0
C      1  0.4150640000000  0.5392440000000  0.4930910000000 1.0
C      1  0.4067910000000  0.4870380000000  0.4923180000000 1.0
C      1  0.4288240000000  0.4393060000000  0.4916330000000 1.0
C      1  0.4728570000000  0.4112660000000  0.4914980000000 1.0
C      1  0.5249620000000  0.4124970000000  0.4923300000000 1.0
C      1  0.5691310000000  0.4394190000000  0.4929920000000 1.0
C      1  0.5928660000000  0.4855150000000  0.4923870000000 1.0
C      1  0.5856640000000  0.5373320000000  0.4912670000000 1.0
C      1  0.4388820000000  0.5131900000000  0.4275410000000 1.0
C      1  0.4517960000000  0.4801470000000  0.4337900000000 1.0
C      1  0.4686610000000  0.4513010000000  0.4280210000000 1.0
C      1  0.4992440000000  0.4450020000000  0.4308680000000 1.0
C      1  0.5297900000000  0.4542870000000  0.4310800000000 1.0
C      1  0.5538150000000  0.4751310000000  0.4296740000000 1.0
C      1  0.5597750000000  0.5053330000000  0.4274200000000 1.0
C      1  0.5385460000000  0.5329910000000  0.4365480000000 1.0
C      1  0.5151000000000  0.5563850000000  0.4292670000000 1.0
C      1  0.4843110000000  0.5572430000000  0.4297400000000 1.0
C      1  0.4512080000000  0.5414500000000  0.4276400000000 1.0
C      1  0.5138080000000  0.4372470000000  0.5724970000000 1.0
C      1  0.5414630000000  0.4623610000000  0.5691940000000 1.0
C      1  0.5624790000000  0.4930140000000  0.5717790000000 1.0
C      1  0.5568400000000  0.5234530000000  0.5689910000000 1.0
C      1  0.5337110000000  0.5454030000000  0.5661580000000 1.0
C      1  0.5040890000000  0.5550240000000  0.5686690000000 1.0
C      1  0.4716090000000  0.5406170000000  0.5603140000000 1.0
C      1  0.4464790000000  0.5218360000000  0.5689590000000 1.0
C      1  0.4418610000000  0.4917350000000  0.5696320000000 1.0
C      1  0.4611670000000  0.4594580000000  0.5678440000000 1.0
C      1  0.4830320000000  0.4352980000000  0.5727790000000 1.0
C      1  0.5722350000000  0.5601050000000  0.5051570000000 1.0
C      1  0.5278500000000  0.5889170000000  0.5058680000000 1.0
C      1  0.4747650000000  0.5884860000000  0.5069740000000 1.0
C      1  0.4297860000000  0.5613220000000  0.5070270000000 1.0
C      1  0.4071420000000  0.5134720000000  0.5067910000000 1.0
C      1  0.4141300000000  0.4610010000000  0.5064680000000 1.0
C      1  0.4488170000000  0.4217890000000  0.5057700000000 1.0
C      1  0.4990370000000  0.4076030000000  0.5057310000000 1.0
C      1  0.5488100000000  0.4227570000000  0.5069210000000 1.0
C      1  0.5849580000000  0.4604790000000  0.5070870000000 1.0
C      1  0.5939320000000  0.5121420000000  0.5060050000000 1.0
C      1  0.4328830000000  0.5579950000000  0.5362810000000 1.0
C      1  0.4116550000000  0.5119950000000  0.5360010000000 1.0
C      1  0.4185380000000  0.4618410000000  0.5365370000000 1.0
C      1  0.4510520000000  0.4233360000000  0.5353170000000 1.0
C      1  0.4992490000000  0.4101180000000  0.5347810000000 1.0
C      1  0.5463320000000  0.4258390000000  0.5359710000000 1.0
C      1  0.5814260000000  0.4620220000000  0.5368780000000 1.0
C      1  0.5921040000000  0.5118540000000  0.5360670000000 1.0
C      1  0.5694390000000  0.5569910000000  0.5343950000000 1.0
C      1  0.5266030000000  0.5829530000000  0.5347440000000 1.0
C      1  0.4763700000000  0.5835890000000  0.5361750000000 1.0
C      1  0.5611160000000  0.5516150000000  0.4478290000000 1.0
C      1  0.5236840000000  0.5792020000000  0.4474260000000 1.0
C      1  0.4770510000000  0.5794400000000  0.4484620000000 1.0
C      1  0.4359150000000  0.5563850000000  0.4487290000000 1.0
C      1  0.4174310000000  0.5137890000000  0.4487230000000 1.0
C      1  0.4262890000000  0.4681890000000  0.4480900000000 1.0
C      1  0.4548790000000  0.4319060000000  0.4470260000000 1.0
C      1  0.4991830000000  0.4213730000000  0.4489200000000 1.0
C      1  0.5420540000000  0.4343400000000  0.4496570000000 1.0
C      1  0.5747680000000  0.4650770000000  0.4486730000000 1.0
C      1  0.5821210000000  0.5101160000000  0.4474660000000 1.0
C      1  0.4769930000000  0.5319860000000  0.4829300000000 1.0
C      1  0.4686180000000  0.5184580000000  0.4599710000000 1.0
C      1  0.4698420000000  0.4910090000000  0.4557390000000 1.0
C      1  0.4663660000000  0.4777660000000  0.4815500000000 1.0
C      1  0.4861980000000  0.4603760000000  0.4907990000000 1.0
C      1  0.5065970000000  0.4705050000000  0.5064280000000 1.0
C      1  0.5296510000000  0.4760890000000  0.4913480000000 1.0
C      1  0.5343160000000  0.4940150000000  0.4710940000000 1.0
C      1  0.5265440000000  0.5190290000000  0.4609880000000 1.0
C      1  0.5211410000000  0.5363720000000  0.4832470000000 1.0
C      1  0.4973980000000  0.5506390000000  0.4814180000000 1.0
C      1  0.5453770000000  0.5090720000000  0.5140220000000 1.0
C      1  0.5234660000000  0.5246820000000  0.5089030000000 1.0
C      1  0.5095130000000  0.5365450000000  0.5299240000000 1.0
C      1  0.4834880000000  0.5275500000000  0.5349720000000 1.0
C      1  0.4704730000000  0.5207380000000  0.5084330000000 1.0
C      1  0.4582840000000  0.4950920000000  0.5043580000000 1.0
C      1  0.4580380000000  0.4801460000000  0.5275680000000 1.0
C      1  0.4768770000000  0.4758950000000  0.5474330000000 1.0
C      1  0.5034240000000  0.4697540000000  0.5358740000000 1.0
C      1  0.5264570000000  0.4801950000000  0.5498200000000 1.0
C      1  0.5456810000000  0.4878390000000  0.5310040000000 1.0
END
