TITL C-3578199-7832-730 2.10684144939643e-07 125000 -217.918132459011 0 0 36 (C1) n - 1
REM
REM in /home/bkarasulu/work/CARBON/AIRSS/Generating-Clusters/EDIP-Nigel-Params/with-SteepDescent/Higher-Symm/SD-CG/HFTN-CG
REM
REM
REM
REM
REM
REM ./C.cell (12c818d87b63d06a65506943cc24bca4)
REM
REM compiler GCC version 9.2.1 20190827 (Red Hat 9.2.1-1)
REM options -cpp -mtune=generic -march=x86-64 -g -O0 -fpre-include=/usr/include/finclude/math-vector-fortran.h
REM seed 980723952 -123354958 669187568 -2081711500 751848990 -1246789349 -1694233283 2096657239 -989352572 -548768738 -1407783354 -132894550 1234597934 -1814997106 1871292167 1500373544 1323213377 1150347090 -615279749 -507406603 -796870559 2041141463 -425990721 -1855336348 591580584 -1830738167 -817105474 588954124 -1760405221 -1058989372 286561652 970839351 -1976268972
REM
CELL 1.54180   50.00000   50.00000   50.00000   90.00000   90.00000   90.00000
LATT -1
SFAC C  
C      1  0.4576050000000  0.5199550000000  0.5423290000000 1.0
C      1  0.4587010000000  0.4907310000000  0.5459040000000 1.0
C      1  0.4593640000000  0.4603740000000  0.5218280000000 1.0
C      1  0.4569630000000  0.4463590000000  0.4966180000000 1.0
C      1  0.4551620000000  0.4636340000000  0.4735650000000 1.0
C      1  0.4608460000000  0.5001520000000  0.4622180000000 1.0
C      1  0.4687560000000  0.5272330000000  0.4680880000000 1.0
C      1  0.4600670000000  0.5422520000000  0.4929430000000 1.0
C      1  0.4713790000000  0.5291170000000  0.5174590000000 1.0
C      1  0.4920700000000  0.5459440000000  0.5314430000000 1.0
C      1  0.4745250000000  0.5320920000000  0.5633760000000 1.0
C      1  0.4864980000000  0.4819840000000  0.5494220000000 1.0
C      1  0.4872690000000  0.4607040000000  0.5301150000000 1.0
C      1  0.4799370000000  0.4300810000000  0.4933500000000 1.0
C      1  0.4754210000000  0.4592370000000  0.4528250000000 1.0
C      1  0.4781390000000  0.4863630000000  0.4431400000000 1.0
C      1  0.4974200000000  0.5315130000000  0.4712550000000 1.0
C      1  0.4748250000000  0.5671360000000  0.4911090000000 1.0
C      1  0.5047410000000  0.4430120000000  0.4885580000000 1.0
C      1  0.5031180000000  0.4548970000000  0.4620510000000 1.0
C      1  0.5069000000000  0.4900160000000  0.4466260000000 1.0
C      1  0.5166670000000  0.5139900000000  0.4587550000000 1.0
C      1  0.5013840000000  0.5568820000000  0.4861250000000 1.0
C      1  0.5150910000000  0.5523810000000  0.5121510000000 1.0
C      1  0.5024610000000  0.5259740000000  0.5621830000000 1.0
C      1  0.5076870000000  0.5018980000000  0.5475790000000 1.0
C      1  0.5087750000000  0.4620250000000  0.5104770000000 1.0
C      1  0.5343440000000  0.4739230000000  0.5171990000000 1.0
C      1  0.5561860000000  0.4704870000000  0.5005130000000 1.0
C      1  0.5672050000000  0.4765990000000  0.4769900000000 1.0
C      1  0.5618370000000  0.4963810000000  0.4597570000000 1.0
C      1  0.5447370000000  0.5178690000000  0.4637990000000 1.0
C      1  0.5511680000000  0.5355570000000  0.4843190000000 1.0
C      1  0.5406780000000  0.5375620000000  0.5101170000000 1.0
C      1  0.5486190000000  0.5193060000000  0.5300980000000 1.0
C      1  0.5334540000000  0.4963820000000  0.5357170000000 1.0
END
