TITL C-3577089-586-510 -1.26148468594171e-06 125000 -1129.85657741069 0 0 182 (C1) n - 1
REM
REM in /home/bkarasulu/work/CARBON/AIRSS/Generating-Clusters/EDIP-Nigel-Params/with-SteepDescent/Higher-Symm/SD-CG/HFTN-CG
REM
REM
REM
REM
REM
REM ./C.cell (12c818d87b63d06a65506943cc24bca4)
REM
REM compiler GCC version 9.2.1 20190827 (Red Hat 9.2.1-1)
REM options -cpp -mtune=generic -march=x86-64 -g -O0 -fpre-include=/usr/include/finclude/math-vector-fortran.h
REM seed -870269252 -44618096 -692073540 -483672452 -1641998746 -1480951413 1681335696 -692897745 872124312 326631946 1862737218 1892644508 -1916920480 659371659 460261806 1610065639 -173213087 240845981 -276141269 783793050 311999411 339980089 -561659343 58860271 -1839968763 871335634 2031619157 1402055979 2008452425 -1832785288 -1310721212 323515583 -258011078
REM
CELL 1.54180   50.00000   50.00000   50.00000   90.00000   90.00000   90.00000
LATT -1
SFAC C  
C      1  0.4374280000000  0.5494660000000  0.5973930000000 1.0
C      1  0.4889610000000  0.4211060000000  0.6004990000000 1.0
C      1  0.5784310000000  0.5303380000000  0.5988150000000 1.0
C      1  0.4338220000000  0.5469620000000  0.3983090000000 1.0
C      1  0.4916900000000  0.4190480000000  0.3944200000000 1.0
C      1  0.5734920000000  0.5313240000000  0.3994150000000 1.0
C      1  0.5153330000000  0.6038650000000  0.5625110000000 1.0
C      1  0.4044540000000  0.4650740000000  0.5627370000000 1.0
C      1  0.5796110000000  0.4374880000000  0.5559120000000 1.0
C      1  0.5158690000000  0.6020590000000  0.4437100000000 1.0
C      1  0.4041100000000  0.4554510000000  0.4446580000000 1.0
C      1  0.5834780000000  0.4358080000000  0.4382170000000 1.0
C      1  0.4902600000000  0.4214040000000  0.5560770000000 1.0
C      1  0.5767290000000  0.5298870000000  0.5581260000000 1.0
C      1  0.4359110000000  0.5493550000000  0.5488770000000 1.0
C      1  0.4949600000000  0.4192280000000  0.4383120000000 1.0
C      1  0.5736850000000  0.5313810000000  0.4505050000000 1.0
C      1  0.4286770000000  0.5437040000000  0.4596530000000 1.0
C      1  0.5758800000000  0.5041270000000  0.5870630000000 1.0
C      1  0.4596170000000  0.5649230000000  0.5903030000000 1.0
C      1  0.4656190000000  0.4331000000000  0.5904800000000 1.0
C      1  0.5755340000000  0.5048640000000  0.4082010000000 1.0
C      1  0.4557250000000  0.5607540000000  0.4091520000000 1.0
C      1  0.4678910000000  0.4289650000000  0.4055800000000 1.0
C      1  0.5097530000000  0.5592240000000  0.5912450000000 1.0
C      1  0.4481290000000  0.4790630000000  0.5877720000000 1.0
C      1  0.5463940000000  0.4654420000000  0.5875590000000 1.0
C      1  0.5066990000000  0.5576150000000  0.4120570000000 1.0
C      1  0.4464990000000  0.4756930000000  0.4114580000000 1.0
C      1  0.5479250000000  0.4642390000000  0.4089850000000 1.0
C      1  0.5340570000000  0.5597700000000  0.4535760000000 1.0
C      1  0.4243930000000  0.4961240000000  0.4501010000000 1.0
C      1  0.5375790000000  0.4384300000000  0.4461940000000 1.0
C      1  0.5379180000000  0.5629950000000  0.5512200000000 1.0
C      1  0.4337330000000  0.4973200000000  0.5449340000000 1.0
C      1  0.5338070000000  0.4418320000000  0.5475060000000 1.0
C      1  0.5600650000000  0.5246150000000  0.4866650000000 1.0
C      1  0.4563250000000  0.5378540000000  0.4800510000000 1.0
C      1  0.4940950000000  0.4361690000000  0.4643350000000 1.0
C      1  0.5444790000000  0.5202030000000  0.5171850000000 1.0
C      1  0.4467850000000  0.5465960000000  0.5067730000000 1.0
C      1  0.4919330000000  0.4338180000000  0.5288780000000 1.0
C      1  0.4737300000000  0.6154180000000  0.4857200000000 1.0
C      1  0.4136560000000  0.4173400000000  0.4877500000000 1.0
C      1  0.6141350000000  0.4646220000000  0.4876770000000 1.0
C      1  0.4729500000000  0.6170000000000  0.5153740000000 1.0
C      1  0.4119690000000  0.4161370000000  0.5172040000000 1.0
C      1  0.6073610000000  0.4663860000000  0.5173790000000 1.0
C      1  0.5424320000000  0.5822080000000  0.5292580000000 1.0
C      1  0.4126520000000  0.4928210000000  0.5246300000000 1.0
C      1  0.5452370000000  0.4276090000000  0.5244460000000 1.0
C      1  0.5414100000000  0.5772000000000  0.4761980000000 1.0
C      1  0.4074930000000  0.4931440000000  0.4735040000000 1.0
C      1  0.5494150000000  0.4251020000000  0.4700240000000 1.0
C      1  0.4277150000000  0.5963460000000  0.4829830000000 1.0
C      1  0.4569360000000  0.3950530000000  0.4856180000000 1.0
C      1  0.6190440000000  0.5152700000000  0.4873620000000 1.0
C      1  0.4252110000000  0.5970050000000  0.5116460000000 1.0
C      1  0.4544100000000  0.3884350000000  0.5137900000000 1.0
C      1  0.6141410000000  0.5152850000000  0.5153290000000 1.0
C      1  0.4908940000000  0.4886770000000  0.4788750000000 1.0
C      1  0.5190470000000  0.4962590000000  0.4835770000000 1.0
C      1  0.4762820000000  0.5137240000000  0.4890390000000 1.0
C      1  0.4994510000000  0.4660900000000  0.5089290000000 1.0
C      1  0.5191860000000  0.5050080000000  0.5100740000000 1.0
C      1  0.4932690000000  0.5186510000000  0.5122520000000 1.0
C      1  0.4955550000000  0.4731340000000  0.6005900000000 1.0
C      1  0.5281770000000  0.5108330000000  0.6019590000000 1.0
C      1  0.4793570000000  0.5202870000000  0.6018640000000 1.0
C      1  0.4960930000000  0.4700060000000  0.4013710000000 1.0
C      1  0.5267950000000  0.5091510000000  0.3976760000000 1.0
C      1  0.4781920000000  0.5169030000000  0.3982610000000 1.0
C      1  0.5076780000000  0.4840870000000  0.5596660000000 1.0
C      1  0.5143770000000  0.5179180000000  0.5611240000000 1.0
C      1  0.4796680000000  0.5034630000000  0.5565480000000 1.0
C      1  0.5024060000000  0.4859690000000  0.4423390000000 1.0
C      1  0.5092130000000  0.5193760000000  0.4426040000000 1.0
C      1  0.4724750000000  0.5036130000000  0.4428930000000 1.0
C      1  0.5415520000000  0.4775440000000  0.4837140000000 1.0
C      1  0.5010100000000  0.5581900000000  0.4861140000000 1.0
C      1  0.4518660000000  0.4670530000000  0.4822550000000 1.0
C      1  0.5515930000000  0.4744860000000  0.5151410000000 1.0
C      1  0.4970590000000  0.5469340000000  0.5162220000000 1.0
C      1  0.4679120000000  0.4714980000000  0.5124780000000 1.0
C      1  0.5243440000000  0.5381540000000  0.5386770000000 1.0
C      1  0.4618130000000  0.4953700000000  0.5327280000000 1.0
C      1  0.5188490000000  0.4680350000000  0.5343830000000 1.0
C      1  0.5187040000000  0.5369270000000  0.4660280000000 1.0
C      1  0.4505300000000  0.4913860000000  0.4616060000000 1.0
C      1  0.5172730000000  0.4594060000000  0.4594150000000 1.0
C      1  0.4174980000000  0.5722280000000  0.5519640000000 1.0
C      1  0.4781590000000  0.3940460000000  0.5539520000000 1.0
C      1  0.6068360000000  0.5314530000000  0.5581290000000 1.0
C      1  0.4200870000000  0.5765270000000  0.4405980000000 1.0
C      1  0.4813810000000  0.3915690000000  0.4420680000000 1.0
C      1  0.6029480000000  0.5354560000000  0.4477440000000 1.0
C      1  0.4645750000000  0.4448130000000  0.5248630000000 1.0
C      1  0.5616640000000  0.4988500000000  0.5306560000000 1.0
C      1  0.4690140000000  0.5541460000000  0.5270340000000 1.0
C      1  0.4644940000000  0.4441400000000  0.4667010000000 1.0
C      1  0.5619930000000  0.4958840000000  0.4726840000000 1.0
C      1  0.4752730000000  0.5587840000000  0.4719510000000 1.0
C      1  0.5828260000000  0.4829070000000  0.4557680000000 1.0
C      1  0.4676960000000  0.5798720000000  0.4539140000000 1.0
C      1  0.4448570000000  0.4263530000000  0.4514810000000 1.0
C      1  0.5823110000000  0.4888100000000  0.5518490000000 1.0
C      1  0.4707060000000  0.5811630000000  0.5409430000000 1.0
C      1  0.4416560000000  0.4378820000000  0.5416350000000 1.0
C      1  0.4996020000000  0.4082930000000  0.5134170000000 1.0
C      1  0.5843870000000  0.5528670000000  0.5208920000000 1.0
C      1  0.4164530000000  0.5479090000000  0.5094800000000 1.0
C      1  0.5013240000000  0.4092390000000  0.4813470000000 1.0
C      1  0.5820760000000  0.5477980000000  0.4906750000000 1.0
C      1  0.4049980000000  0.5458150000000  0.4802290000000 1.0
C      1  0.5787750000000  0.4280700000000  0.4655110000000 1.0
C      1  0.5242950000000  0.6007920000000  0.4711290000000 1.0
C      1  0.4000610000000  0.4647450000000  0.4717070000000 1.0
C      1  0.5740780000000  0.4303130000000  0.5286710000000 1.0
C      1  0.5230170000000  0.6045620000000  0.5348820000000 1.0
C      1  0.3987240000000  0.4682670000000  0.5348060000000 1.0
C      1  0.5631350000000  0.5557700000000  0.5654340000000 1.0
C      1  0.4268610000000  0.5236500000000  0.5586250000000 1.0
C      1  0.5184040000000  0.4213250000000  0.5644720000000 1.0
C      1  0.5583790000000  0.5524870000000  0.4384510000000 1.0
C      1  0.4212020000000  0.5229260000000  0.4394260000000 1.0
C      1  0.5235250000000  0.4171830000000  0.4290750000000 1.0
C      1  0.4582540000000  0.4112840000000  0.4290090000000 1.0
C      1  0.5920140000000  0.5021940000000  0.4329930000000 1.0
C      1  0.4478770000000  0.5739850000000  0.4340300000000 1.0
C      1  0.4527530000000  0.4193250000000  0.5662570000000 1.0
C      1  0.6107300000000  0.5016390000000  0.5602500000000 1.0
C      1  0.4520530000000  0.5804120000000  0.5657370000000 1.0
C      1  0.6092340000000  0.5399120000000  0.5299940000000 1.0
C      1  0.4098210000000  0.5747450000000  0.5240490000000 1.0
C      1  0.4810960000000  0.3867250000000  0.5260810000000 1.0
C      1  0.6086920000000  0.5400840000000  0.4756210000000 1.0
C      1  0.4097920000000  0.5812880000000  0.4665640000000 1.0
C      1  0.4821940000000  0.3876890000000  0.4715370000000 1.0
C      1  0.4500390000000  0.6093830000000  0.4709770000000 1.0
C      1  0.4341570000000  0.4061290000000  0.4708840000000 1.0
C      1  0.6160610000000  0.4899860000000  0.4732770000000 1.0
C      1  0.4475430000000  0.6077890000000  0.5269380000000 1.0
C      1  0.4343180000000  0.4021460000000  0.5299170000000 1.0
C      1  0.6161710000000  0.4916600000000  0.5318910000000 1.0
C      1  0.5864710000000  0.4530190000000  0.4804360000000 1.0
C      1  0.5011520000000  0.5910110000000  0.4882950000000 1.0
C      1  0.4220850000000  0.4545560000000  0.4898940000000 1.0
C      1  0.5778650000000  0.4553380000000  0.5121800000000 1.0
C      1  0.4977800000000  0.5990630000000  0.5192090000000 1.0
C      1  0.4154040000000  0.4466150000000  0.5212770000000 1.0
C      1  0.5147800000000  0.5747050000000  0.4362810000000 1.0
C      1  0.4216410000000  0.4735190000000  0.4306080000000 1.0
C      1  0.5607230000000  0.4522300000000  0.4330790000000 1.0
C      1  0.5179840000000  0.5763890000000  0.5686680000000 1.0
C      1  0.4312630000000  0.4741470000000  0.5640210000000 1.0
C      1  0.5573870000000  0.4537740000000  0.5624020000000 1.0
C      1  0.3942810000000  0.5170000000000  0.4865530000000 1.0
C      1  0.5329250000000  0.4037740000000  0.4828840000000 1.0
C      1  0.5689890000000  0.5771100000000  0.4871400000000 1.0
C      1  0.3987920000000  0.5171030000000  0.5156250000000 1.0
C      1  0.5315360000000  0.4042130000000  0.5134190000000 1.0
C      1  0.5699600000000  0.5808990000000  0.5175470000000 1.0
C      1  0.5530920000000  0.5465400000000  0.4113530000000 1.0
C      1  0.4330730000000  0.5229070000000  0.4133370000000 1.0
C      1  0.5181850000000  0.4254570000000  0.4015090000000 1.0
C      1  0.5583140000000  0.5495360000000  0.5929960000000 1.0
C      1  0.4347820000000  0.5240800000000  0.5855820000000 1.0
C      1  0.5146240000000  0.4290880000000  0.5919900000000 1.0
C      1  0.4566740000000  0.5043640000000  0.4146460000000 1.0
C      1  0.5205200000000  0.4542370000000  0.4047770000000 1.0
C      1  0.5255380000000  0.5340630000000  0.4146830000000 1.0
C      1  0.4591450000000  0.5066890000000  0.5841640000000 1.0
C      1  0.5177300000000  0.4586550000000  0.5878720000000 1.0
C      1  0.5307450000000  0.5380250000000  0.5903180000000 1.0
C      1  0.4698800000000  0.4580450000000  0.4082470000000 1.0
C      1  0.5492200000000  0.4928760000000  0.4081050000000 1.0
C      1  0.4805580000000  0.5451630000000  0.4083740000000 1.0
C      1  0.4702870000000  0.4617530000000  0.5904930000000 1.0
C      1  0.5499560000000  0.4932690000000  0.5930520000000 1.0
C      1  0.4832510000000  0.5477530000000  0.5909960000000 1.0
C      1  0.5003640000000  0.4983760000000  0.4002870000000 1.0
C      1  0.5011100000000  0.5014500000000  0.5997200000000 1.0
END
