TITL C-3577087-600-59 -4.92243032617562e-07 125000 -596.323226275059 0 0 95 (C1) n - 1
REM
REM in /home/bkarasulu/work/CARBON/AIRSS/Generating-Clusters/EDIP-Nigel-Params/with-SteepDescent/Higher-Symm/SD-CG/HFTN-CG
REM
REM
REM
REM
REM
REM ./C.cell (12c818d87b63d06a65506943cc24bca4)
REM
REM compiler GCC version 9.2.1 20190827 (Red Hat 9.2.1-1)
REM options -cpp -mtune=generic -march=x86-64 -g -O0 -fpre-include=/usr/include/finclude/math-vector-fortran.h
REM seed 49447575 -1957649158 -1438702337 561343190 -616760412 367012842 -933056941 -1799850428 169319417 1027230123 2083273580 1979578486 1589893682 -1724808473 -1604262845 1727611420 1478126640 91801792 670720701 -2130408391 -588758703 1600988255 1515633772 449878140 429342461 -1947835223 -1876902499 -1230535373 710651818 -730326366 109656023 -267056450 2034943144
REM
CELL 1.54180   50.00000   50.00000   50.00000   90.00000   90.00000   90.00000
LATT -1
SFAC C  
C      1  0.5042520000000  0.4778660000000  0.4608410000000 1.0
C      1  0.4965800000000  0.4841940000000  0.5346470000000 1.0
C      1  0.4983870000000  0.5281360000000  0.5481980000000 1.0
C      1  0.4998470000000  0.5477650000000  0.4284500000000 1.0
C      1  0.4561510000000  0.5340670000000  0.5597690000000 1.0
C      1  0.5480900000000  0.5342800000000  0.4392440000000 1.0
C      1  0.4559050000000  0.4652020000000  0.4457900000000 1.0
C      1  0.5404380000000  0.4688880000000  0.5571830000000 1.0
C      1  0.4892280000000  0.5275210000000  0.5139660000000 1.0
C      1  0.4943360000000  0.5305190000000  0.4544610000000 1.0
C      1  0.4940110000000  0.4641820000000  0.4882260000000 1.0
C      1  0.5089160000000  0.4821570000000  0.5069260000000 1.0
C      1  0.5814860000000  0.4814290000000  0.4823180000000 1.0
C      1  0.4194600000000  0.4796580000000  0.5231840000000 1.0
C      1  0.5848240000000  0.5217280000000  0.5258930000000 1.0
C      1  0.4203520000000  0.5219510000000  0.4791340000000 1.0
C      1  0.5242560000000  0.4734610000000  0.5795050000000 1.0
C      1  0.4835850000000  0.4707190000000  0.4364440000000 1.0
C      1  0.5244630000000  0.5306140000000  0.4208170000000 1.0
C      1  0.4757720000000  0.5279090000000  0.5796450000000 1.0
C      1  0.5373170000000  0.4636050000000  0.4737800000000 1.0
C      1  0.4601350000000  0.4511100000000  0.5276470000000 1.0
C      1  0.5382790000000  0.5216480000000  0.5265200000000 1.0
C      1  0.4671380000000  0.5313600000000  0.4699360000000 1.0
C      1  0.4614110000000  0.5552190000000  0.5402480000000 1.0
C      1  0.5467470000000  0.5578120000000  0.4561010000000 1.0
C      1  0.4585480000000  0.4419800000000  0.4639000000000 1.0
C      1  0.5366790000000  0.4474940000000  0.5372410000000 1.0
C      1  0.4998270000000  0.4196550000000  0.5103110000000 1.0
C      1  0.5043220000000  0.4345230000000  0.4844780000000 1.0
C      1  0.4945940000000  0.5837580000000  0.4906200000000 1.0
C      1  0.5064240000000  0.5686370000000  0.5124810000000 1.0
C      1  0.4656350000000  0.5020630000000  0.4751350000000 1.0
C      1  0.5189530000000  0.5060830000000  0.5473360000000 1.0
C      1  0.4704060000000  0.5029960000000  0.5247140000000 1.0
C      1  0.5131480000000  0.5077650000000  0.4664680000000 1.0
C      1  0.5659250000000  0.5088080000000  0.4835910000000 1.0
C      1  0.4246990000000  0.5089420000000  0.5285390000000 1.0
C      1  0.5797360000000  0.4907340000000  0.5310580000000 1.0
C      1  0.4203490000000  0.4913820000000  0.4723380000000 1.0
C      1  0.4866240000000  0.5014480000000  0.5814110000000 1.0
C      1  0.5156340000000  0.5013190000000  0.4189250000000 1.0
C      1  0.4870760000000  0.4944300000000  0.4177180000000 1.0
C      1  0.5140880000000  0.4976920000000  0.5894700000000 1.0
C      1  0.5798960000000  0.4677650000000  0.5097570000000 1.0
C      1  0.4230860000000  0.4703510000000  0.4945070000000 1.0
C      1  0.5799550000000  0.5328910000000  0.4975570000000 1.0
C      1  0.4296960000000  0.5278970000000  0.5071350000000 1.0
C      1  0.5328830000000  0.4784900000000  0.4268340000000 1.0
C      1  0.4703110000000  0.4778970000000  0.5773870000000 1.0
C      1  0.5315890000000  0.5212050000000  0.5810430000000 1.0
C      1  0.4687130000000  0.5172350000000  0.4206600000000 1.0
C      1  0.5624670000000  0.5317940000000  0.5426510000000 1.0
C      1  0.4378990000000  0.5354220000000  0.4569170000000 1.0
C      1  0.5648970000000  0.4680300000000  0.4616050000000 1.0
C      1  0.4366810000000  0.4641320000000  0.5424460000000 1.0
C      1  0.5240950000000  0.4517670000000  0.4314390000000 1.0
C      1  0.4819370000000  0.4527110000000  0.5723360000000 1.0
C      1  0.5220570000000  0.5493520000000  0.5820260000000 1.0
C      1  0.4770080000000  0.5425630000000  0.4107850000000 1.0
C      1  0.4719530000000  0.5472890000000  0.4957620000000 1.0
C      1  0.5223490000000  0.5506840000000  0.4715810000000 1.0
C      1  0.4660310000000  0.4652290000000  0.5006130000000 1.0
C      1  0.5367920000000  0.4742600000000  0.5030170000000 1.0
C      1  0.4456220000000  0.5741640000000  0.4958530000000 1.0
C      1  0.5585330000000  0.5567210000000  0.5017910000000 1.0
C      1  0.4511860000000  0.4257420000000  0.5138810000000 1.0
C      1  0.5523520000000  0.4245830000000  0.4956130000000 1.0
C      1  0.4459450000000  0.4840230000000  0.5627670000000 1.0
C      1  0.5556930000000  0.4876490000000  0.4418350000000 1.0
C      1  0.4434280000000  0.5140370000000  0.4353690000000 1.0
C      1  0.5580380000000  0.5147690000000  0.5664950000000 1.0
C      1  0.5459900000000  0.5109810000000  0.4581190000000 1.0
C      1  0.4487260000000  0.5087170000000  0.5460990000000 1.0
C      1  0.5628610000000  0.4873590000000  0.5557120000000 1.0
C      1  0.4455150000000  0.4913330000000  0.4556340000000 1.0
C      1  0.4971570000000  0.4435470000000  0.4337170000000 1.0
C      1  0.4871550000000  0.4544160000000  0.5436170000000 1.0
C      1  0.5134830000000  0.5523300000000  0.5551670000000 1.0
C      1  0.5008380000000  0.5761570000000  0.4374590000000 1.0
C      1  0.5582910000000  0.4442090000000  0.5157310000000 1.0
C      1  0.4389090000000  0.4398870000000  0.4882510000000 1.0
C      1  0.5679830000000  0.5620150000000  0.4748660000000 1.0
C      1  0.4404630000000  0.5547890000000  0.5174570000000 1.0
C      1  0.4949810000000  0.5703140000000  0.5396520000000 1.0
C      1  0.5034550000000  0.5722580000000  0.4654320000000 1.0
C      1  0.4862240000000  0.4294170000000  0.4592810000000 1.0
C      1  0.5089950000000  0.4356690000000  0.5342060000000 1.0
C      1  0.4736900000000  0.4097350000000  0.5115260000000 1.0
C      1  0.5335880000000  0.4348100000000  0.4776730000000 1.0
C      1  0.4678950000000  0.5902690000000  0.4940710000000 1.0
C      1  0.5283750000000  0.5488590000000  0.5029560000000 1.0
C      1  0.4549800000000  0.4923000000000  0.5005530000000 1.0
C      1  0.5502950000000  0.5003550000000  0.5076840000000 1.0
C      1  0.5084030000000  0.5101200000000  0.4964550000000 1.0
END
