TITL C-3577083-591-199 -9.73867091981402e-07 125000 -124.538771607737 0 0 21 (C1) n - 1
REM
REM in /home/bkarasulu/work/CARBON/AIRSS/Generating-Clusters/EDIP-Nigel-Params/with-SteepDescent/Higher-Symm/SD-CG/HFTN-CG
REM
REM
REM
REM
REM
REM ./C.cell (12c818d87b63d06a65506943cc24bca4)
REM
REM compiler GCC version 9.2.1 20190827 (Red Hat 9.2.1-1)
REM options -cpp -mtune=generic -march=x86-64 -g -O0 -fpre-include=/usr/include/finclude/math-vector-fortran.h
REM seed -8291171 -1442833423 1114326702 -1495121410 -872938825 -391937590 -1526614165 -332463776 -1388073352 -269409644 -1195083963 -1452645812 72851976 1154072738 -8333002 1226423510 -2100951762 657148986 -1187074520 58810855 1178230023 -523128798 -367207849 589075613 1183780951 1185024096 1600246404 639515995 -1650156287 877898122 -82985706 2133526807 128511880
REM
CELL 1.54180   50.00000   50.00000   50.00000   90.00000   90.00000   90.00000
LATT -1
SFAC C  
C      1  0.4793620000000  0.4553610000000  0.4753530000000 1.0
C      1  0.4960910000000  0.4468210000000  0.5393460000000 1.0
C      1  0.5038330000000  0.5350660000000  0.5115800000000 1.0
C      1  0.5081910000000  0.5360970000000  0.4832460000000 1.0
C      1  0.4957540000000  0.5104770000000  0.5240740000000 1.0
C      1  0.5126400000000  0.5116860000000  0.4688830000000 1.0
C      1  0.4788760000000  0.4324700000000  0.4942370000000 1.0
C      1  0.4738420000000  0.4438630000000  0.5212500000000 1.0
C      1  0.5006240000000  0.5594920000000  0.5244460000000 1.0
C      1  0.5112350000000  0.5611320000000  0.4717100000000 1.0
C      1  0.5046610000000  0.4663890000000  0.4649060000000 1.0
C      1  0.5135140000000  0.4676390000000  0.5303090000000 1.0
C      1  0.5130590000000  0.4870950000000  0.4837010000000 1.0
C      1  0.4993840000000  0.4845710000000  0.5098920000000 1.0
C      1  0.5037940000000  0.5821310000000  0.5100940000000 1.0
C      1  0.5091900000000  0.5852940000000  0.4837530000000 1.0
C      1  0.5060800000000  0.4791290000000  0.4395670000000 1.0
C      1  0.5071430000000  0.4806210000000  0.5551000000000 1.0
C      1  0.4973410000000  0.5065090000000  0.5517090000000 1.0
C      1  0.5123120000000  0.5059880000000  0.4412150000000 1.0
C      1  0.4734820000000  0.4697410000000  0.5032640000000 1.0
END
