TITL C-3577089-586-80 -1.63774814830686e-07 125000 -1102.23905063925 0 0 175 (C1) n - 1
REM
REM in /home/bkarasulu/work/CARBON/AIRSS/Generating-Clusters/EDIP-Nigel-Params/with-SteepDescent/Higher-Symm/SD-CG/HFTN-CG
REM
REM
REM
REM
REM
REM ./C.cell (12c818d87b63d06a65506943cc24bca4)
REM
REM compiler GCC version 9.2.1 20190827 (Red Hat 9.2.1-1)
REM options -cpp -mtune=generic -march=x86-64 -g -O0 -fpre-include=/usr/include/finclude/math-vector-fortran.h
REM seed -1181675698 1177981018 -1626331044 -1766949714 -1309941826 440449115 -2064760701 1971178381 -5166715 -539197692 -767240986 2065242747 -254877740 -1413032102 884190815 2134614083 -1396731050 1125335551 1496605914 -1113751265 111158755 -2128883431 1569081222 -421305471 -372186925 1725839204 2078046248 -573026906 -502115684 -1228399514 -325252155 1649705696 -1521122988
REM
CELL 1.54180   50.00000   50.00000   50.00000   90.00000   90.00000   90.00000
LATT -1
SFAC C  
C      1  0.3933730000000  0.4749880000000  0.4670850000000 1.0
C      1  0.4672940000000  0.4750420000000  0.6065160000000 1.0
C      1  0.6066020000000  0.4749710000000  0.5325560000000 1.0
C      1  0.5332810000000  0.4760330000000  0.3933550000000 1.0
C      1  0.3943640000000  0.5258900000000  0.4676540000000 1.0
C      1  0.4678030000000  0.5259720000000  0.6053880000000 1.0
C      1  0.6055150000000  0.5259060000000  0.5318150000000 1.0
C      1  0.5317230000000  0.5267360000000  0.3946720000000 1.0
C      1  0.5290500000000  0.4045930000000  0.5128580000000 1.0
C      1  0.5130360000000  0.4046400000000  0.4704460000000 1.0
C      1  0.4707850000000  0.4047550000000  0.4866920000000 1.0
C      1  0.4868190000000  0.4046560000000  0.5290850000000 1.0
C      1  0.5292370000000  0.5972390000000  0.5127910000000 1.0
C      1  0.5128700000000  0.5974260000000  0.4705440000000 1.0
C      1  0.4705080000000  0.5973750000000  0.4867250000000 1.0
C      1  0.4868050000000  0.5972630000000  0.5289930000000 1.0
C      1  0.5524400000000  0.4456880000000  0.5034100000000 1.0
C      1  0.5035180000000  0.4459000000000  0.4471360000000 1.0
C      1  0.4475030000000  0.4459130000000  0.4963460000000 1.0
C      1  0.4964960000000  0.4458720000000  0.5523590000000 1.0
C      1  0.5514060000000  0.5550340000000  0.5040780000000 1.0
C      1  0.5049770000000  0.5551140000000  0.4486310000000 1.0
C      1  0.4485210000000  0.5550100000000  0.4948860000000 1.0
C      1  0.4950480000000  0.5550170000000  0.5511500000000 1.0
C      1  0.5939970000000  0.5644050000000  0.4885010000000 1.0
C      1  0.4889120000000  0.5648730000000  0.4056520000000 1.0
C      1  0.4055760000000  0.5644460000000  0.5105410000000 1.0
C      1  0.5106870000000  0.5645560000000  0.5940140000000 1.0
C      1  0.5922330000000  0.4370070000000  0.4855730000000 1.0
C      1  0.4854840000000  0.4377840000000  0.4073750000000 1.0
C      1  0.4078060000000  0.4376170000000  0.5144680000000 1.0
C      1  0.5146280000000  0.4376020000000  0.5920560000000 1.0
C      1  0.5913770000000  0.4822910000000  0.5074420000000 1.0
C      1  0.5077660000000  0.4828790000000  0.4084400000000 1.0
C      1  0.4086100000000  0.4825010000000  0.4921520000000 1.0
C      1  0.4923430000000  0.4825340000000  0.5912470000000 1.0
C      1  0.5899860000000  0.5180160000000  0.5067420000000 1.0
C      1  0.5068650000000  0.5184050000000  0.4096970000000 1.0
C      1  0.4098420000000  0.5180570000000  0.4928030000000 1.0
C      1  0.4929760000000  0.5181320000000  0.5899440000000 1.0
C      1  0.4686940000000  0.5537080000000  0.4360220000000 1.0
C      1  0.4358980000000  0.5536120000000  0.5310520000000 1.0
C      1  0.5312220000000  0.5536040000000  0.5637510000000 1.0
C      1  0.5639320000000  0.5535090000000  0.4677900000000 1.0
C      1  0.4673640000000  0.4476310000000  0.4332720000000 1.0
C      1  0.4336170000000  0.4475260000000  0.5325100000000 1.0
C      1  0.5326560000000  0.4474760000000  0.5662210000000 1.0
C      1  0.5663190000000  0.4472180000000  0.4672540000000 1.0
C      1  0.4613270000000  0.5713860000000  0.5743690000000 1.0
C      1  0.5744250000000  0.5711560000000  0.5380660000000 1.0
C      1  0.5372220000000  0.5724140000000  0.4239670000000 1.0
C      1  0.4251870000000  0.5713850000000  0.4612490000000 1.0
C      1  0.4612190000000  0.4312570000000  0.5742980000000 1.0
C      1  0.5743950000000  0.4310570000000  0.5386770000000 1.0
C      1  0.5388370000000  0.4312690000000  0.4252640000000 1.0
C      1  0.4256300000000  0.4313340000000  0.4610130000000 1.0
C      1  0.5596870000000  0.5255920000000  0.5128030000000 1.0
C      1  0.5133600000000  0.5256460000000  0.4399490000000 1.0
C      1  0.4402400000000  0.5255230000000  0.4867040000000 1.0
C      1  0.4868580000000  0.5255480000000  0.5595590000000 1.0
C      1  0.5616990000000  0.4749430000000  0.5131140000000 1.0
C      1  0.5133040000000  0.4751340000000  0.4380320000000 1.0
C      1  0.4382980000000  0.4751150000000  0.4865350000000 1.0
C      1  0.4866980000000  0.4751070000000  0.5615800000000 1.0
C      1  0.4637500000000  0.5149280000000  0.5056890000000 1.0
C      1  0.5058390000000  0.5148730000000  0.5360670000000 1.0
C      1  0.5364230000000  0.5147440000000  0.4937600000000 1.0
C      1  0.4942970000000  0.5149130000000  0.4634990000000 1.0
C      1  0.4544200000000  0.4880520000000  0.5069690000000 1.0
C      1  0.5071200000000  0.4880070000000  0.5454170000000 1.0
C      1  0.5455300000000  0.4877930000000  0.4926580000000 1.0
C      1  0.4929530000000  0.4880210000000  0.4542660000000 1.0
C      1  0.5617540000000  0.4787150000000  0.4241840000000 1.0
C      1  0.4244020000000  0.4791830000000  0.4380520000000 1.0
C      1  0.4382400000000  0.4791650000000  0.5754980000000 1.0
C      1  0.5755790000000  0.4791340000000  0.5615510000000 1.0
C      1  0.5625460000000  0.5226560000000  0.4244770000000 1.0
C      1  0.4246790000000  0.5236910000000  0.4385790000000 1.0
C      1  0.4386760000000  0.5237010000000  0.5751470000000 1.0
C      1  0.5752770000000  0.5236850000000  0.5610110000000 1.0
C      1  0.5434230000000  0.4032100000000  0.4688110000000 1.0
C      1  0.4691030000000  0.4034950000000  0.4562460000000 1.0
C      1  0.4564320000000  0.4033750000000  0.5307490000000 1.0
C      1  0.5307770000000  0.4033180000000  0.5432960000000 1.0
C      1  0.5432950000000  0.5985940000000  0.4684400000000 1.0
C      1  0.4686750000000  0.5989220000000  0.4563170000000 1.0
C      1  0.4563210000000  0.5987220000000  0.5307490000000 1.0
C      1  0.5309450000000  0.5986460000000  0.5432490000000 1.0
C      1  0.5529590000000  0.5765190000000  0.4504840000000 1.0
C      1  0.4514220000000  0.5766720000000  0.4461450000000 1.0
C      1  0.4461110000000  0.5766460000000  0.5481750000000 1.0
C      1  0.5483440000000  0.5765470000000  0.5533960000000 1.0
C      1  0.5539250000000  0.4248340000000  0.4509480000000 1.0
C      1  0.4512410000000  0.4251050000000  0.4458060000000 1.0
C      1  0.4460560000000  0.4250120000000  0.5486520000000 1.0
C      1  0.5487100000000  0.4248950000000  0.5537620000000 1.0
C      1  0.4270530000000  0.5757230000000  0.4925030000000 1.0
C      1  0.4926060000000  0.5757880000000  0.5725400000000 1.0
C      1  0.5727570000000  0.5757530000000  0.5067770000000 1.0
C      1  0.5067410000000  0.5759310000000  0.4274110000000 1.0
C      1  0.4260560000000  0.4246900000000  0.4924480000000 1.0
C      1  0.4926090000000  0.4246540000000  0.5738040000000 1.0
C      1  0.5737400000000  0.4244310000000  0.5073040000000 1.0
C      1  0.5073860000000  0.4247000000000  0.4256670000000 1.0
C      1  0.4590570000000  0.5160170000000  0.5542700000000 1.0
C      1  0.5543940000000  0.5160010000000  0.5406300000000 1.0
C      1  0.5413480000000  0.5156740000000  0.4449990000000 1.0
C      1  0.4456100000000  0.5160190000000  0.4589240000000 1.0
C      1  0.4588850000000  0.4856840000000  0.5545620000000 1.0
C      1  0.5546800000000  0.4856400000000  0.5408760000000 1.0
C      1  0.5411490000000  0.4853700000000  0.4450830000000 1.0
C      1  0.4453330000000  0.4856900000000  0.4587160000000 1.0
C      1  0.3978400000000  0.4658300000000  0.5152230000000 1.0
C      1  0.5153980000000  0.4658300000000  0.6019910000000 1.0
C      1  0.6022340000000  0.4651670000000  0.4847080000000 1.0
C      1  0.4847950000000  0.4660690000000  0.3975720000000 1.0
C      1  0.3993740000000  0.5362340000000  0.5148040000000 1.0
C      1  0.5149590000000  0.5363650000000  0.6003370000000 1.0
C      1  0.6002230000000  0.5361130000000  0.4846670000000 1.0
C      1  0.4847960000000  0.5366230000000  0.3993360000000 1.0
C      1  0.4775770000000  0.5677820000000  0.4921900000000 1.0
C      1  0.4923420000000  0.5676590000000  0.5220200000000 1.0
C      1  0.5223000000000  0.5676200000000  0.5071260000000 1.0
C      1  0.5073370000000  0.5678530000000  0.4776530000000 1.0
C      1  0.4772710000000  0.4343930000000  0.4928440000000 1.0
C      1  0.4929380000000  0.4342950000000  0.5226000000000 1.0
C      1  0.5226300000000  0.4342420000000  0.5067730000000 1.0
C      1  0.5070630000000  0.4343040000000  0.4769010000000 1.0
C      1  0.5911420000000  0.4537470000000  0.5499470000000 1.0
C      1  0.5502900000000  0.4538370000000  0.4084870000000 1.0
C      1  0.4088330000000  0.4538660000000  0.4496820000000 1.0
C      1  0.4499070000000  0.4538540000000  0.5910710000000 1.0
C      1  0.5910420000000  0.5483290000000  0.5491260000000 1.0
C      1  0.5458330000000  0.5510260000000  0.4054200000000 1.0
C      1  0.4087860000000  0.5483340000000  0.4502680000000 1.0
C      1  0.4503890000000  0.5484110000000  0.5909090000000 1.0
C      1  0.4968410000000  0.6001550000000  0.4445770000000 1.0
C      1  0.4444140000000  0.5999060000000  0.5026090000000 1.0
C      1  0.5027430000000  0.5998700000000  0.5550730000000 1.0
C      1  0.5552540000000  0.5997760000000  0.4966400000000 1.0
C      1  0.4973480000000  0.4016580000000  0.4444410000000 1.0
C      1  0.4448060000000  0.4016580000000  0.5024150000000 1.0
C      1  0.5025190000000  0.4015790000000  0.5550650000000 1.0
C      1  0.5550150000000  0.4014190000000  0.4971810000000 1.0
C      1  0.5655420000000  0.5165400000000  0.5890100000000 1.0
C      1  0.5896750000000  0.5150480000000  0.4344040000000 1.0
C      1  0.4343240000000  0.5165880000000  0.4105910000000 1.0
C      1  0.4106940000000  0.5165040000000  0.5654300000000 1.0
C      1  0.5654700000000  0.4871700000000  0.5893790000000 1.0
C      1  0.5899140000000  0.4857540000000  0.4344370000000 1.0
C      1  0.4345700000000  0.4872120000000  0.4101950000000 1.0
C      1  0.4103850000000  0.4871330000000  0.5653560000000 1.0
C      1  0.5308930000000  0.4734990000000  0.5497080000000 1.0
C      1  0.5498560000000  0.4732350000000  0.4689300000000 1.0
C      1  0.4691500000000  0.4735730000000  0.4498760000000 1.0
C      1  0.4501010000000  0.4735480000000  0.5307470000000 1.0
C      1  0.5300990000000  0.5287660000000  0.5461430000000 1.0
C      1  0.5468220000000  0.5283470000000  0.4693430000000 1.0
C      1  0.4699630000000  0.5288030000000  0.4534850000000 1.0
C      1  0.4535680000000  0.5287970000000  0.5299510000000 1.0
C      1  0.5416290000000  0.5285300000000  0.5972970000000 1.0
C      1  0.5972630000000  0.5276710000000  0.4582400000000 1.0
C      1  0.4581720000000  0.5287280000000  0.4024240000000 1.0
C      1  0.4024360000000  0.5284330000000  0.5414800000000 1.0
C      1  0.5414130000000  0.4756320000000  0.5980880000000 1.0
C      1  0.5988400000000  0.4745250000000  0.4585080000000 1.0
C      1  0.4587310000000  0.4758300000000  0.4014630000000 1.0
C      1  0.4017200000000  0.4756370000000  0.5412520000000 1.0
C      1  0.5496030000000  0.5022060000000  0.3941460000000 1.0
C      1  0.3943220000000  0.5006220000000  0.4503860000000 1.0
C      1  0.4505700000000  0.5006740000000  0.6055220000000 1.0
C      1  0.6056110000000  0.5006790000000  0.5491690000000 1.0
C      1  0.5000140000000  0.6136720000000  0.4999350000000 1.0
C      1  0.4998620000000  0.3883120000000  0.4997400000000 1.0
C      1  0.5001200000000  0.5171210000000  0.4997560000000 1.0
END
