TITL C-3578195-8548-464 2.39468603117713e-06 125000 -798.732116837247 0 0 128 (C1) n - 1
REM
REM in /home/bkarasulu/work/CARBON/AIRSS/Generating-Clusters/EDIP-Nigel-Params/with-SteepDescent/Higher-Symm/SD-CG/HFTN-CG
REM
REM
REM
REM
REM
REM ./C.cell (12c818d87b63d06a65506943cc24bca4)
REM
REM compiler GCC version 9.2.1 20190827 (Red Hat 9.2.1-1)
REM options -cpp -mtune=generic -march=x86-64 -g -O0 -fpre-include=/usr/include/finclude/math-vector-fortran.h
REM seed -1101718041 -2022300976 -1548911857 1593867062 -723448360 -311851356 -441204644 1385188868 -88453014 -2139966416 66446074 546738468 -1278800685 -1626085777 2112869996 54399244 -718859385 1347389818 -1380028729 2070157784 -836511497 1886120485 -353039295 808867430 -840346383 -2086070184 1392337913 89906973 1700769603 494697973 -778870542 478405018 238614511
REM
CELL 1.54180   50.00000   50.00000   50.00000   90.00000   90.00000   90.00000
LATT -1
SFAC C  
C      1  0.4666380000000  0.5688650000000  0.4855780000000 1.0
C      1  0.5488380000000  0.4875410000000  0.4128370000000 1.0
C      1  0.4416410000000  0.4897040000000  0.5416490000000 1.0
C      1  0.4700000000000  0.4515640000000  0.4249800000000 1.0
C      1  0.5173710000000  0.5723220000000  0.4303040000000 1.0
C      1  0.5776600000000  0.5378250000000  0.5428490000000 1.0
C      1  0.4728650000000  0.5341630000000  0.5449340000000 1.0
C      1  0.5189020000000  0.4050240000000  0.4982420000000 1.0
C      1  0.5149620000000  0.4282700000000  0.4578970000000 1.0
C      1  0.4474910000000  0.4690700000000  0.4304350000000 1.0
C      1  0.4409850000000  0.4400930000000  0.5018050000000 1.0
C      1  0.5023390000000  0.4518680000000  0.5238320000000 1.0
C      1  0.5238910000000  0.4671680000000  0.5911310000000 1.0
C      1  0.4808250000000  0.5329680000000  0.5749620000000 1.0
C      1  0.5297600000000  0.5196580000000  0.5728030000000 1.0
C      1  0.4973390000000  0.4901290000000  0.4683940000000 1.0
C      1  0.4873900000000  0.5637000000000  0.5764780000000 1.0
C      1  0.5476090000000  0.5236110000000  0.4703370000000 1.0
C      1  0.5541370000000  0.5042780000000  0.5721960000000 1.0
C      1  0.4286720000000  0.5026010000000  0.5656360000000 1.0
C      1  0.5319600000000  0.4792860000000  0.4966150000000 1.0
C      1  0.5651690000000  0.4513640000000  0.4593390000000 1.0
C      1  0.5831780000000  0.5016790000000  0.5054430000000 1.0
C      1  0.4307850000000  0.4620690000000  0.5479630000000 1.0
C      1  0.5774570000000  0.5168820000000  0.5619760000000 1.0
C      1  0.5707340000000  0.4774060000000  0.5199040000000 1.0
C      1  0.5685360000000  0.4879090000000  0.4344530000000 1.0
C      1  0.4870070000000  0.5893910000000  0.4787200000000 1.0
C      1  0.4501410000000  0.4400840000000  0.5507560000000 1.0
C      1  0.5217400000000  0.4514200000000  0.5653440000000 1.0
C      1  0.4351470000000  0.4279100000000  0.4757640000000 1.0
C      1  0.5547650000000  0.5542720000000  0.5526460000000 1.0
C      1  0.4563360000000  0.5256430000000  0.5905910000000 1.0
C      1  0.5525980000000  0.4780060000000  0.5842810000000 1.0
C      1  0.5512770000000  0.4214480000000  0.5354950000000 1.0
C      1  0.5481460000000  0.4908120000000  0.4671250000000 1.0
C      1  0.4066010000000  0.4573420000000  0.5349910000000 1.0
C      1  0.4013420000000  0.5209230000000  0.4855660000000 1.0
C      1  0.4695540000000  0.5349680000000  0.4790950000000 1.0
C      1  0.5013740000000  0.5992900000000  0.5036310000000 1.0
C      1  0.4246530000000  0.4576250000000  0.4406290000000 1.0
C      1  0.5001830000000  0.4159920000000  0.5390930000000 1.0
C      1  0.5303630000000  0.5949360000000  0.4984120000000 1.0
C      1  0.4439970000000  0.5463570000000  0.5458310000000 1.0
C      1  0.4256660000000  0.4902670000000  0.5138680000000 1.0
C      1  0.5111110000000  0.4999480000000  0.4933330000000 1.0
C      1  0.5568980000000  0.4333190000000  0.4805190000000 1.0
C      1  0.4629460000000  0.4641590000000  0.4981460000000 1.0
C      1  0.5682420000000  0.5272540000000  0.5158410000000 1.0
C      1  0.5053320000000  0.5478420000000  0.4177930000000 1.0
C      1  0.5142860000000  0.5705730000000  0.5711990000000 1.0
C      1  0.4888510000000  0.4065490000000  0.4908690000000 1.0
C      1  0.4499090000000  0.4907630000000  0.4955790000000 1.0
C      1  0.4743790000000  0.5795840000000  0.5543760000000 1.0
C      1  0.4504020000000  0.4974400000000  0.4340270000000 1.0
C      1  0.4499540000000  0.4951620000000  0.5880500000000 1.0
C      1  0.4289690000000  0.5121420000000  0.4475950000000 1.0
C      1  0.5217920000000  0.5230570000000  0.5060820000000 1.0
C      1  0.4225230000000  0.5609160000000  0.5003650000000 1.0
C      1  0.5026190000000  0.5083100000000  0.5736230000000 1.0
C      1  0.5710890000000  0.4356160000000  0.5053580000000 1.0
C      1  0.4127180000000  0.5469050000000  0.4760310000000 1.0
C      1  0.5858200000000  0.4685640000000  0.4687990000000 1.0
C      1  0.4869660000000  0.4217930000000  0.4625560000000 1.0
C      1  0.5000120000000  0.4862640000000  0.5943300000000 1.0
C      1  0.4471190000000  0.5747580000000  0.5498080000000 1.0
C      1  0.5177780000000  0.4487090000000  0.4052020000000 1.0
C      1  0.5452620000000  0.5763100000000  0.5360220000000 1.0
C      1  0.4962320000000  0.4927050000000  0.4105240000000 1.0
C      1  0.5906460000000  0.4960430000000  0.4755200000000 1.0
C      1  0.4693160000000  0.5121840000000  0.5019050000000 1.0
C      1  0.5226840000000  0.4988500000000  0.4233460000000 1.0
C      1  0.5171200000000  0.4714500000000  0.5416310000000 1.0
C      1  0.5619280000000  0.5743160000000  0.4722070000000 1.0
C      1  0.5197630000000  0.5274660000000  0.4596520000000 1.0
C      1  0.5109660000000  0.5770470000000  0.4605150000000 1.0
C      1  0.5832550000000  0.5094680000000  0.4477640000000 1.0
C      1  0.5410730000000  0.5167920000000  0.5258140000000 1.0
C      1  0.4107940000000  0.5003290000000  0.4671490000000 1.0
C      1  0.4739510000000  0.4500710000000  0.5658020000000 1.0
C      1  0.4792160000000  0.4146270000000  0.5181300000000 1.0
C      1  0.5253100000000  0.5288060000000  0.4300030000000 1.0
C      1  0.5670550000000  0.4564350000000  0.5679250000000 1.0
C      1  0.5466630000000  0.4579120000000  0.4070010000000 1.0
C      1  0.4731960000000  0.4743240000000  0.5850520000000 1.0
C      1  0.5365690000000  0.5905380000000  0.4706490000000 1.0
C      1  0.5020230000000  0.5496980000000  0.5373950000000 1.0
C      1  0.4577340000000  0.5590850000000  0.4160830000000 1.0
C      1  0.4731130000000  0.5105020000000  0.4195610000000 1.0
C      1  0.5588150000000  0.5505580000000  0.4933310000000 1.0
C      1  0.4940560000000  0.4637650000000  0.4132470000000 1.0
C      1  0.5420290000000  0.4853500000000  0.5254060000000 1.0
C      1  0.4333550000000  0.5323830000000  0.5706410000000 1.0
C      1  0.5464030000000  0.5620120000000  0.4262530000000 1.0
C      1  0.5368900000000  0.5674360000000  0.5087350000000 1.0
C      1  0.5116750000000  0.5499190000000  0.5065720000000 1.0
C      1  0.5243470000000  0.4520660000000  0.4427000000000 1.0
C      1  0.5129450000000  0.4546070000000  0.4954140000000 1.0
C      1  0.5213440000000  0.5873940000000  0.5495520000000 1.0
C      1  0.5641570000000  0.5328310000000  0.4469210000000 1.0
C      1  0.5694780000000  0.5633060000000  0.4460720000000 1.0
C      1  0.4078340000000  0.4675120000000  0.4856900000000 1.0
C      1  0.5046270000000  0.5492040000000  0.4744610000000 1.0
C      1  0.5602110000000  0.4445670000000  0.4309320000000 1.0
C      1  0.4397140000000  0.5580340000000  0.4359060000000 1.0
C      1  0.4958560000000  0.5897780000000  0.5336290000000 1.0
C      1  0.4117510000000  0.5168430000000  0.5131440000000 1.0
C      1  0.4426500000000  0.5793040000000  0.4949940000000 1.0
C      1  0.5843810000000  0.4623700000000  0.5427580000000 1.0
C      1  0.5260210000000  0.4070790000000  0.5272530000000 1.0
C      1  0.4868290000000  0.4627780000000  0.4789390000000 1.0
C      1  0.4827010000000  0.5158640000000  0.4567930000000 1.0
C      1  0.4972520000000  0.4942020000000  0.5473840000000 1.0
C      1  0.4717260000000  0.5060790000000  0.5333490000000 1.0
C      1  0.4275390000000  0.5406190000000  0.5205990000000 1.0
C      1  0.4762540000000  0.4630860000000  0.5233900000000 1.0
C      1  0.4172580000000  0.4476200000000  0.4650000000000 1.0
C      1  0.5220830000000  0.4827820000000  0.4505110000000 1.0
C      1  0.4980250000000  0.4337450000000  0.5639510000000 1.0
C      1  0.4330140000000  0.5397210000000  0.4556020000000 1.0
C      1  0.5313140000000  0.5356990000000  0.5488090000000 1.0
C      1  0.4778060000000  0.5404880000000  0.4217940000000 1.0
C      1  0.4712820000000  0.4267100000000  0.4389010000000 1.0
C      1  0.5865060000000  0.4366940000000  0.5293370000000 1.0
C      1  0.5276990000000  0.4295300000000  0.4836690000000 1.0
C      1  0.4133050000000  0.4499600000000  0.5090930000000 1.0
C      1  0.5470190000000  0.4360810000000  0.5608270000000 1.0
C      1  0.4522390000000  0.4237350000000  0.5245010000000 1.0
END
