TITL C-3577082-504-294 -3.27673347834923e-07 125000 -260.442859365714 0 0 44 (C1) n - 1
REM
REM in /home/bkarasulu/work/CARBON/AIRSS/Generating-Clusters/EDIP-Nigel-Params/with-SteepDescent/Higher-Symm/SD-CG/HFTN-CG
REM
REM
REM
REM
REM
REM ./C.cell (12c818d87b63d06a65506943cc24bca4)
REM
REM compiler GCC version 9.2.1 20190827 (Red Hat 9.2.1-1)
REM options -cpp -mtune=generic -march=x86-64 -g -O0 -fpre-include=/usr/include/finclude/math-vector-fortran.h
REM seed -1494254201 1677446265 852414645 -891241252 1203162951 1554683838 -122764952 700120295 -2001431872 230934722 856451535 -1584300808 -423972710 -111893797 -1759852432 -1535644204 -1411768880 -332482055 -1080847174 -1904759461 -1340581757 -663412086 928795160 1239909167 -294035061 -623086709 -1904056769 1659301486 992779921 -1447731220 1439078974 1147587407 -2049709853
REM
CELL 1.54180   50.00000   50.00000   50.00000   90.00000   90.00000   90.00000
LATT -1
SFAC C  
C      1  0.4780030000000  0.5483930000000  0.5292800000000 1.0
C      1  0.4846170000000  0.4373180000000  0.5223390000000 1.0
C      1  0.5550170000000  0.4872230000000  0.4725320000000 1.0
C      1  0.4973180000000  0.4921970000000  0.4286980000000 1.0
C      1  0.5133590000000  0.4415290000000  0.5286590000000 1.0
C      1  0.4791450000000  0.5624460000000  0.5030480000000 1.0
C      1  0.5288600000000  0.5355540000000  0.4552360000000 1.0
C      1  0.4871280000000  0.4713450000000  0.5574260000000 1.0
C      1  0.4791660000000  0.4578980000000  0.4658760000000 1.0
C      1  0.4612190000000  0.5477100000000  0.4840110000000 1.0
C      1  0.4476590000000  0.5251340000000  0.4983210000000 1.0
C      1  0.4804850000000  0.5353780000000  0.4644520000000 1.0
C      1  0.4964830000000  0.4494420000000  0.4875590000000 1.0
C      1  0.4869930000000  0.5078780000000  0.4752840000000 1.0
C      1  0.5062300000000  0.5427960000000  0.5384200000000 1.0
C      1  0.5062840000000  0.5206510000000  0.5576960000000 1.0
C      1  0.5596150000000  0.4813980000000  0.5504950000000 1.0
C      1  0.5204980000000  0.4551580000000  0.5033680000000 1.0
C      1  0.4601180000000  0.4934800000000  0.4383270000000 1.0
C      1  0.5261570000000  0.4958100000000  0.4625730000000 1.0
C      1  0.4488310000000  0.5004740000000  0.4805690000000 1.0
C      1  0.4695650000000  0.4722010000000  0.5126260000000 1.0
C      1  0.5572810000000  0.4882300000000  0.4999580000000 1.0
C      1  0.5323030000000  0.4834550000000  0.5408870000000 1.0
C      1  0.4822810000000  0.4993830000000  0.5188240000000 1.0
C      1  0.4626610000000  0.5224510000000  0.5245760000000 1.0
C      1  0.5542750000000  0.5021190000000  0.5678220000000 1.0
C      1  0.5166600000000  0.5354850000000  0.5103700000000 1.0
C      1  0.5372540000000  0.4679580000000  0.4614040000000 1.0
C      1  0.5495280000000  0.5406470000000  0.4742290000000 1.0
C      1  0.5150030000000  0.4612760000000  0.5510330000000 1.0
C      1  0.4850910000000  0.5010100000000  0.5492680000000 1.0
C      1  0.4475210000000  0.4733440000000  0.4926780000000 1.0
C      1  0.4384990000000  0.5022370000000  0.4536120000000 1.0
C      1  0.4519250000000  0.4537470000000  0.4728390000000 1.0
C      1  0.5303890000000  0.4834660000000  0.5098390000000 1.0
C      1  0.4835080000000  0.4856750000000  0.4539640000000 1.0
C      1  0.5302290000000  0.5148320000000  0.5707930000000 1.0
C      1  0.5050380000000  0.5508890000000  0.4633060000000 1.0
C      1  0.5072470000000  0.5590920000000  0.4917880000000 1.0
C      1  0.4680670000000  0.4563630000000  0.5394340000000 1.0
C      1  0.5077550000000  0.5066150000000  0.5013290000000 1.0
C      1  0.5426590000000  0.5450790000000  0.5006530000000 1.0
C      1  0.5220810000000  0.5052310000000  0.4346010000000 1.0
END
