TITL C-3577078-809-208 -3.10902175801971e-06 125000 -555.28778280734 0 0 89 (C1) n - 1
REM
REM in /home/bkarasulu/work/CARBON/AIRSS/Generating-Clusters/EDIP-Nigel-Params/with-SteepDescent/Higher-Symm/SD-CG/HFTN-CG
REM
REM
REM
REM
REM
REM ./C.cell (12c818d87b63d06a65506943cc24bca4)
REM
REM compiler GCC version 9.2.1 20190827 (Red Hat 9.2.1-1)
REM options -cpp -mtune=generic -march=x86-64 -g -O0 -fpre-include=/usr/include/finclude/math-vector-fortran.h
REM seed -155810098 1876005869 -774889888 -2088990337 1130772159 -1890871856 -798529567 110708878 -1621412188 -642977773 -882370069 -100777380 901087223 1806563397 1103647416 632897100 1515055294 1032126277 -1037265084 740098341 717004669 -2070401141 -1052879085 1723331328 1543120397 223803619 -1797325183 1036536752 -260433826 -857825365 -1523040341 -1038037346 -1771286640
REM
CELL 1.54180   50.00000   50.00000   50.00000   90.00000   90.00000   90.00000
LATT -1
SFAC C  
C      1  0.5105520000000  0.4432840000000  0.5361640000000 1.0
C      1  0.4693290000000  0.4582780000000  0.4913580000000 1.0
C      1  0.5156580000000  0.4508110000000  0.4834170000000 1.0
C      1  0.5208020000000  0.5975050000000  0.4771040000000 1.0
C      1  0.5058250000000  0.5990210000000  0.5294290000000 1.0
C      1  0.4666790000000  0.5969540000000  0.4900420000000 1.0
C      1  0.4136090000000  0.4746080000000  0.5259780000000 1.0
C      1  0.5261660000000  0.4699970000000  0.4159380000000 1.0
C      1  0.5593300000000  0.4683500000000  0.5606020000000 1.0
C      1  0.5336640000000  0.4939320000000  0.4282300000000 1.0
C      1  0.5459870000000  0.4926920000000  0.5632280000000 1.0
C      1  0.4251200000000  0.4944330000000  0.5099520000000 1.0
C      1  0.4436430000000  0.4421330000000  0.4561190000000 1.0
C      1  0.5514510000000  0.4380990000000  0.4613400000000 1.0
C      1  0.5007510000000  0.4416720000000  0.5647920000000 1.0
C      1  0.4549750000000  0.4911940000000  0.5550270000000 1.0
C      1  0.4824290000000  0.4912380000000  0.4344400000000 1.0
C      1  0.5674600000000  0.4909840000000  0.5151530000000 1.0
C      1  0.5535620000000  0.5091580000000  0.5373790000000 1.0
C      1  0.4458140000000  0.5070580000000  0.5294480000000 1.0
C      1  0.5081800000000  0.5097180000000  0.4357320000000 1.0
C      1  0.5180530000000  0.4889900000000  0.5735200000000 1.0
C      1  0.4340660000000  0.4836700000000  0.4831180000000 1.0
C      1  0.5512410000000  0.4874660000000  0.4509390000000 1.0
C      1  0.5017980000000  0.5019960000000  0.5350850000000 1.0
C      1  0.4821230000000  0.5102280000000  0.4748550000000 1.0
C      1  0.5287780000000  0.4988450000000  0.4869280000000 1.0
C      1  0.5226410000000  0.4335440000000  0.4496500000000 1.0
C      1  0.5374070000000  0.4299700000000  0.5425460000000 1.0
C      1  0.4440920000000  0.4441600000000  0.5039050000000 1.0
C      1  0.4616190000000  0.5576040000000  0.4619200000000 1.0
C      1  0.5539580000000  0.5624060000000  0.4869550000000 1.0
C      1  0.4862660000000  0.5605360000000  0.5513220000000 1.0
C      1  0.4653350000000  0.5399250000000  0.5551910000000 1.0
C      1  0.4691940000000  0.5383100000000  0.4407620000000 1.0
C      1  0.5640610000000  0.5407760000000  0.5047780000000 1.0
C      1  0.4263030000000  0.5276650000000  0.4719320000000 1.0
C      1  0.5628100000000  0.5333140000000  0.4497350000000 1.0
C      1  0.5148730000000  0.5360730000000  0.5796420000000 1.0
C      1  0.5378880000000  0.5851320000000  0.4961480000000 1.0
C      1  0.4827670000000  0.5833340000000  0.5337210000000 1.0
C      1  0.4750910000000  0.5830840000000  0.4670140000000 1.0
C      1  0.4443700000000  0.5373260000000  0.5337440000000 1.0
C      1  0.4977290000000  0.5399950000000  0.4309630000000 1.0
C      1  0.5579030000000  0.5412870000000  0.5342210000000 1.0
C      1  0.5072560000000  0.4640150000000  0.5797650000000 1.0
C      1  0.4280080000000  0.4538540000000  0.4770630000000 1.0
C      1  0.5622990000000  0.4618000000000  0.4518780000000 1.0
C      1  0.5654560000000  0.5126210000000  0.4934190000000 1.0
C      1  0.4734960000000  0.5133630000000  0.5660110000000 1.0
C      1  0.4638940000000  0.5097050000000  0.4502090000000 1.0
C      1  0.5121970000000  0.4723020000000  0.5270580000000 1.0
C      1  0.4817990000000  0.4854450000000  0.4940800000000 1.0
C      1  0.5105330000000  0.4764770000000  0.4976200000000 1.0
C      1  0.5281000000000  0.5125730000000  0.5180520000000 1.0
C      1  0.4755350000000  0.5045830000000  0.5181840000000 1.0
C      1  0.5111010000000  0.5139200000000  0.4670630000000 1.0
C      1  0.5296860000000  0.5848210000000  0.5240960000000 1.0
C      1  0.4625450000000  0.5810220000000  0.5129050000000 1.0
C      1  0.5030020000000  0.5854600000000  0.4586320000000 1.0
C      1  0.4357760000000  0.5036400000000  0.4614520000000 1.0
C      1  0.5650920000000  0.5094190000000  0.4635760000000 1.0
C      1  0.5010350000000  0.5120930000000  0.5774460000000 1.0
C      1  0.5314750000000  0.5577250000000  0.5379430000000 1.0
C      1  0.4520840000000  0.5528710000000  0.5078440000000 1.0
C      1  0.5142020000000  0.5594350000000  0.4486420000000 1.0
C      1  0.5304440000000  0.4141400000000  0.5020670000000 1.0
C      1  0.4765130000000  0.4201020000000  0.5227250000000 1.0
C      1  0.4875540000000  0.4197190000000  0.4719580000000 1.0
C      1  0.4873320000000  0.4638980000000  0.4440090000000 1.0
C      1  0.5587400000000  0.4618240000000  0.5127540000000 1.0
C      1  0.4557820000000  0.4616370000000  0.5478180000000 1.0
C      1  0.5121580000000  0.5380420000000  0.5235410000000 1.0
C      1  0.4762870000000  0.5345100000000  0.4969100000000 1.0
C      1  0.5176580000000  0.5417400000000  0.4741730000000 1.0
C      1  0.5066480000000  0.4097680000000  0.4536860000000 1.0
C      1  0.5408970000000  0.4068480000000  0.5269020000000 1.0
C      1  0.4516660000000  0.4165040000000  0.5092200000000 1.0
C      1  0.5499480000000  0.5568550000000  0.4577800000000 1.0
C      1  0.5134310000000  0.5579000000000  0.5628400000000 1.0
C      1  0.4390350000000  0.5511150000000  0.4797850000000 1.0
C      1  0.5435520000000  0.4399140000000  0.4906470000000 1.0
C      1  0.4744550000000  0.4370110000000  0.5494430000000 1.0
C      1  0.4717720000000  0.4457120000000  0.4642010000000 1.0
C      1  0.5591560000000  0.4496670000000  0.5396570000000 1.0
C      1  0.4340680000000  0.4557260000000  0.5293450000000 1.0
C      1  0.5101890000000  0.4524280000000  0.4307610000000 1.0
C      1  0.4991800000000  0.4203730000000  0.5009420000000 1.0
C      1  0.5017090000000  0.5484380000000  0.4983330000000 1.0
END
