TITL C-3577084-3642-243 -8.64071084195084e-07 125000 -440.057624378754 0 0 71 (C1) n - 1
REM
REM in /home/bkarasulu/work/CARBON/AIRSS/Generating-Clusters/EDIP-Nigel-Params/with-SteepDescent/Higher-Symm/SD-CG/HFTN-CG
REM
REM
REM
REM
REM
REM ./C.cell (12c818d87b63d06a65506943cc24bca4)
REM
REM compiler GCC version 9.2.1 20190827 (Red Hat 9.2.1-1)
REM options -cpp -mtune=generic -march=x86-64 -g -O0 -fpre-include=/usr/include/finclude/math-vector-fortran.h
REM seed -1711040409 847327389 -1324631116 7752252 1744896040 -1316643528 1839194287 -2002432219 -142658898 -600573969 1376501453 -623667234 -709385507 1754542095 -253942968 1783537742 -2090735001 -879079735 784857009 -768979222 -150304572 346032351 -2021026389 1280163855 863321633 -280449393 1562052453 -278891805 1282203462 -79828640 856055572 1898694410 -132603765
REM
CELL 1.54180   50.00000   50.00000   50.00000   90.00000   90.00000   90.00000
LATT -1
SFAC C  
C      1  0.4361230000000  0.5201330000000  0.5506270000000 1.0
C      1  0.5674170000000  0.5185530000000  0.5274340000000 1.0
C      1  0.4876320000000  0.5198280000000  0.4232260000000 1.0
C      1  0.4440920000000  0.4859300000000  0.4540200000000 1.0
C      1  0.5701520000000  0.4867790000000  0.4700490000000 1.0
C      1  0.4885580000000  0.4844010000000  0.5805350000000 1.0
C      1  0.5319410000000  0.4429310000000  0.4525550000000 1.0
C      1  0.4480410000000  0.4469060000000  0.4960140000000 1.0
C      1  0.5222310000000  0.4455320000000  0.5497540000000 1.0
C      1  0.5275060000000  0.5577000000000  0.5433430000000 1.0
C      1  0.4459910000000  0.5589970000000  0.5063510000000 1.0
C      1  0.5248780000000  0.5587480000000  0.4480300000000 1.0
C      1  0.5108060000000  0.5267100000000  0.5067860000000 1.0
C      1  0.5082980000000  0.5263220000000  0.4763930000000 1.0
C      1  0.4810550000000  0.5255290000000  0.5110760000000 1.0
C      1  0.5145990000000  0.4791990000000  0.4793260000000 1.0
C      1  0.5005650000000  0.4781920000000  0.5212020000000 1.0
C      1  0.4883290000000  0.4771710000000  0.4938620000000 1.0
C      1  0.5344310000000  0.4552670000000  0.4796350000000 1.0
C      1  0.4710720000000  0.4532110000000  0.4782620000000 1.0
C      1  0.4955400000000  0.4552020000000  0.5400680000000 1.0
C      1  0.5326180000000  0.5512520000000  0.5147250000000 1.0
C      1  0.4676960000000  0.5490290000000  0.5244380000000 1.0
C      1  0.4984170000000  0.5502400000000  0.4597780000000 1.0
C      1  0.5293770000000  0.5347820000000  0.5585730000000 1.0
C      1  0.5381130000000  0.5358640000000  0.4374670000000 1.0
C      1  0.4239620000000  0.5425090000000  0.5037580000000 1.0
C      1  0.5381030000000  0.4606260000000  0.4318450000000 1.0
C      1  0.5350840000000  0.4619320000000  0.5679320000000 1.0
C      1  0.4334610000000  0.4696020000000  0.5016360000000 1.0
C      1  0.4571560000000  0.5696190000000  0.4830940000000 1.0
C      1  0.5057420000000  0.5741950000000  0.5484140000000 1.0
C      1  0.5367680000000  0.5729740000000  0.4692500000000 1.0
C      1  0.4556900000000  0.4317360000000  0.5179910000000 1.0
C      1  0.5074640000000  0.4293260000000  0.4527770000000 1.0
C      1  0.5371100000000  0.4363850000000  0.5279560000000 1.0
C      1  0.5286790000000  0.5749910000000  0.4964150000000 1.0
C      1  0.4845550000000  0.5715420000000  0.4769540000000 1.0
C      1  0.4887880000000  0.5712570000000  0.5262870000000 1.0
C      1  0.5275860000000  0.4346900000000  0.5014870000000 1.0
C      1  0.4832120000000  0.4326380000000  0.5233610000000 1.0
C      1  0.4884260000000  0.4288930000000  0.4737530000000 1.0
C      1  0.5251930000000  0.5082610000000  0.5518070000000 1.0
C      1  0.5367300000000  0.5080090000000  0.4434940000000 1.0
C      1  0.4226780000000  0.5158100000000  0.5037150000000 1.0
C      1  0.5426460000000  0.4866880000000  0.4263540000000 1.0
C      1  0.5353810000000  0.4886660000000  0.5684550000000 1.0
C      1  0.4417980000000  0.4958600000000  0.5039890000000 1.0
C      1  0.4773780000000  0.4653660000000  0.5624400000000 1.0
C      1  0.5623940000000  0.4642720000000  0.4856130000000 1.0
C      1  0.4617030000000  0.4637900000000  0.4515830000000 1.0
C      1  0.4784430000000  0.5418030000000  0.4388000000000 1.0
C      1  0.5611320000000  0.5415760000000  0.5115180000000 1.0
C      1  0.4572820000000  0.5392790000000  0.5514470000000 1.0
C      1  0.5518750000000  0.4982080000000  0.5122480000000 1.0
C      1  0.4879850000000  0.4988650000000  0.4439430000000 1.0
C      1  0.4473430000000  0.4979850000000  0.5643590000000 1.0
C      1  0.5561840000000  0.5078560000000  0.4834970000000 1.0
C      1  0.4708180000000  0.5064140000000  0.5780300000000 1.0
C      1  0.4633080000000  0.5069220000000  0.4618180000000 1.0
C      1  0.5636870000000  0.4710770000000  0.5133620000000 1.0
C      1  0.4827590000000  0.4715080000000  0.4343650000000 1.0
C      1  0.4502640000000  0.4710800000000  0.5559970000000 1.0
C      1  0.5668840000000  0.5343210000000  0.4846690000000 1.0
C      1  0.4763600000000  0.5334850000000  0.5717640000000 1.0
C      1  0.4550000000000  0.5337170000000  0.4526210000000 1.0
C      1  0.5132830000000  0.5020850000000  0.4607610000000 1.0
C      1  0.4688540000000  0.5030260000000  0.4931470000000 1.0
C      1  0.5216940000000  0.5010910000000  0.5227680000000 1.0
C      1  0.5000410000000  0.5802090000000  0.5001310000000 1.0
C      1  0.5002660000000  0.4243950000000  0.5002970000000 1.0
END
