TITL C-3578194-7807-488 -1.36396743080871e-06 125000 -1078.0128090932 0 0 167 (C1) n - 1
REM
REM in /home/bkarasulu/work/CARBON/AIRSS/Generating-Clusters/EDIP-Nigel-Params/with-SteepDescent/Higher-Symm/SD-CG/HFTN-CG
REM
REM
REM
REM
REM
REM ./C.cell (12c818d87b63d06a65506943cc24bca4)
REM
REM compiler GCC version 9.2.1 20190827 (Red Hat 9.2.1-1)
REM options -cpp -mtune=generic -march=x86-64 -g -O0 -fpre-include=/usr/include/finclude/math-vector-fortran.h
REM seed -1483305861 -452397153 234012937 -1501089586 1056282154 -2059405369 -979785694 -613396286 -1939763445 984150230 -670282524 1357213169 1063210702 782700047 2119510984 -1716150587 1977219804 838844512 1859594809 1205180290 -2144593840 1240712127 -1001174471 1194351326 -1071777664 -1501886578 -1686152819 -308891858 1413526257 440430196 716595481 1590684679 1779152674
REM
CELL 1.54180   50.00000   50.00000   50.00000   90.00000   90.00000   90.00000
LATT -1
SFAC C  
C      1  0.4777570000000  0.4540400000000  0.6001730000000 1.0
C      1  0.4780070000000  0.5791940000000  0.5769980000000 1.0
C      1  0.4801930000000  0.5954020000000  0.4496000000000 1.0
C      1  0.4785860000000  0.4777760000000  0.3927640000000 1.0
C      1  0.4779820000000  0.3912620000000  0.4868900000000 1.0
C      1  0.5397160000000  0.5211580000000  0.5316010000000 1.0
C      1  0.5400600000000  0.5319780000000  0.4892990000000 1.0
C      1  0.5163470000000  0.5127000000000  0.4578950000000 1.0
C      1  0.5373190000000  0.4791640000000  0.4780640000000 1.0
C      1  0.5358520000000  0.4768740000000  0.5224900000000 1.0
C      1  0.4445050000000  0.5025350000000  0.4748310000000 1.0
C      1  0.4403170000000  0.4766730000000  0.4904970000000 1.0
C      1  0.4483060000000  0.4830570000000  0.5192220000000 1.0
C      1  0.4446980000000  0.5151370000000  0.5208620000000 1.0
C      1  0.4350340000000  0.5240840000000  0.4937310000000 1.0
C      1  0.5645080000000  0.5163520000000  0.5806940000000 1.0
C      1  0.5641680000000  0.5799080000000  0.5107570000000 1.0
C      1  0.5721710000000  0.5374070000000  0.4218650000000 1.0
C      1  0.5641840000000  0.4428130000000  0.4481090000000 1.0
C      1  0.5636900000000  0.4334840000000  0.5382210000000 1.0
C      1  0.3922900000000  0.5029920000000  0.5255770000000 1.0
C      1  0.3923860000000  0.5257350000000  0.5058410000000 1.0
C      1  0.3945500000000  0.5142510000000  0.4781790000000 1.0
C      1  0.3916120000000  0.4842780000000  0.4804320000000 1.0
C      1  0.3921170000000  0.4772810000000  0.5100890000000 1.0
C      1  0.6156160000000  0.4863960000000  0.4784250000000 1.0
C      1  0.6146080000000  0.4765990000000  0.5067160000000 1.0
C      1  0.6126590000000  0.4999660000000  0.5248870000000 1.0
C      1  0.6104830000000  0.5231070000000  0.5082500000000 1.0
C      1  0.6099430000000  0.5150260000000  0.4805690000000 1.0
C      1  0.4528120000000  0.5079780000000  0.4218820000000 1.0
C      1  0.4515020000000  0.4285880000000  0.4674060000000 1.0
C      1  0.4519520000000  0.4456130000000  0.5585070000000 1.0
C      1  0.4525130000000  0.5375670000000  0.5690880000000 1.0
C      1  0.4527430000000  0.5758460000000  0.4868490000000 1.0
C      1  0.4051870000000  0.5296890000000  0.4548590000000 1.0
C      1  0.4048050000000  0.4652800000000  0.4606940000000 1.0
C      1  0.4066280000000  0.4530590000000  0.5212820000000 1.0
C      1  0.4070660000000  0.5056500000000  0.5516240000000 1.0
C      1  0.4052860000000  0.5526670000000  0.5120750000000 1.0
C      1  0.4897500000000  0.3920710000000  0.5165690000000 1.0
C      1  0.4892370000000  0.4825020000000  0.6081110000000 1.0
C      1  0.4890660000000  0.5961050000000  0.5512770000000 1.0
C      1  0.4899070000000  0.5688110000000  0.4322930000000 1.0
C      1  0.4899900000000  0.4507960000000  0.4034950000000 1.0
C      1  0.4557610000000  0.4935170000000  0.5692160000000 1.0
C      1  0.4554710000000  0.5633150000000  0.5291310000000 1.0
C      1  0.4513500000000  0.5467800000000  0.4437420000000 1.0
C      1  0.4540080000000  0.4635270000000  0.4406380000000 1.0
C      1  0.4538120000000  0.4318610000000  0.5165720000000 1.0
C      1  0.5623740000000  0.5704260000000  0.5394090000000 1.0
C      1  0.5670360000000  0.5590920000000  0.4436990000000 1.0
C      1  0.5643320000000  0.4659070000000  0.4288120000000 1.0
C      1  0.5633800000000  0.4230500000000  0.5101640000000 1.0
C      1  0.5624880000000  0.4863120000000  0.5779810000000 1.0
C      1  0.5285300000000  0.5839110000000  0.4721790000000 1.0
C      1  0.5301580000000  0.4973700000000  0.4058990000000 1.0
C      1  0.5278730000000  0.4119710000000  0.4733990000000 1.0
C      1  0.5278710000000  0.4471970000000  0.5757980000000 1.0
C      1  0.5276330000000  0.5575620000000  0.5766300000000 1.0
C      1  0.5244670000000  0.5445010000000  0.4094520000000 1.0
C      1  0.5226430000000  0.4260130000000  0.4282190000000 1.0
C      1  0.5226980000000  0.4080280000000  0.5478830000000 1.0
C      1  0.5219290000000  0.5178890000000  0.6052260000000 1.0
C      1  0.5214830000000  0.6005930000000  0.5163950000000 1.0
C      1  0.4513190000000  0.5903000000000  0.5159150000000 1.0
C      1  0.4525060000000  0.5376020000000  0.4155210000000 1.0
C      1  0.4506500000000  0.4340510000000  0.4345420000000 1.0
C      1  0.4506240000000  0.4163750000000  0.5423800000000 1.0
C      1  0.4511650000000  0.5140920000000  0.5915630000000 1.0
C      1  0.4861380000000  0.4816180000000  0.4861000000000 1.0
C      1  0.4801670000000  0.4784280000000  0.5153780000000 1.0
C      1  0.4943400000000  0.5034610000000  0.5241540000000 1.0
C      1  0.4804390000000  0.5224710000000  0.5055270000000 1.0
C      1  0.4749590000000  0.5075360000000  0.4783700000000 1.0
C      1  0.4887480000000  0.5192140000000  0.4542370000000 1.0
C      1  0.4931060000000  0.4619080000000  0.4660290000000 1.0
C      1  0.4924290000000  0.4536750000000  0.5266010000000 1.0
C      1  0.4962460000000  0.5098570000000  0.5533720000000 1.0
C      1  0.4942630000000  0.5489120000000  0.5073110000000 1.0
C      1  0.5357240000000  0.5720710000000  0.5526790000000 1.0
C      1  0.5387280000000  0.5680250000000  0.4497830000000 1.0
C      1  0.5381940000000  0.4710480000000  0.4149890000000 1.0
C      1  0.5368080000000  0.4119410000000  0.5009260000000 1.0
C      1  0.5362750000000  0.4736690000000  0.5852330000000 1.0
C      1  0.5429490000000  0.5170470000000  0.4474890000000 1.0
C      1  0.5223650000000  0.4589650000000  0.4644530000000 1.0
C      1  0.5218930000000  0.4528010000000  0.5278390000000 1.0
C      1  0.5260960000000  0.5145190000000  0.5580060000000 1.0
C      1  0.5259280000000  0.5500420000000  0.5087270000000 1.0
C      1  0.5702270000000  0.5105970000000  0.5224860000000 1.0
C      1  0.5691950000000  0.5269340000000  0.4931830000000 1.0
C      1  0.5686110000000  0.5080730000000  0.4660460000000 1.0
C      1  0.5657660000000  0.4783990000000  0.4834500000000 1.0
C      1  0.5644540000000  0.4799540000000  0.5158120000000 1.0
C      1  0.4969710000000  0.4124830000000  0.4349720000000 1.0
C      1  0.4972360000000  0.4098030000000  0.5631200000000 1.0
C      1  0.4960290000000  0.5325310000000  0.6063760000000 1.0
C      1  0.4965350000000  0.6075850000000  0.5023930000000 1.0
C      1  0.4992780000000  0.5339090000000  0.3978660000000 1.0
C      1  0.4997890000000  0.5036900000000  0.4038830000000 1.0
C      1  0.4976180000000  0.4099080000000  0.4664260000000 1.0
C      1  0.4980750000000  0.4386890000000  0.5762160000000 1.0
C      1  0.4971530000000  0.5532440000000  0.5820990000000 1.0
C      1  0.4980590000000  0.5902420000000  0.4759760000000 1.0
C      1  0.5183760000000  0.4883100000000  0.6040780000000 1.0
C      1  0.5180810000000  0.5939260000000  0.5445840000000 1.0
C      1  0.5195220000000  0.5657760000000  0.4285440000000 1.0
C      1  0.5191640000000  0.4488370000000  0.4101140000000 1.0
C      1  0.5189410000000  0.3984180000000  0.5203590000000 1.0
C      1  0.5869330000000  0.4353890000000  0.4949070000000 1.0
C      1  0.5844300000000  0.4756490000000  0.5601860000000 1.0
C      1  0.5817060000000  0.5482540000000  0.5416640000000 1.0
C      1  0.5872200000000  0.5555220000000  0.4654920000000 1.0
C      1  0.5878030000000  0.4845370000000  0.4360450000000 1.0
C      1  0.4816860000000  0.4557660000000  0.5554330000000 1.0
C      1  0.4824960000000  0.5376450000000  0.5585200000000 1.0
C      1  0.4817810000000  0.5643180000000  0.4825870000000 1.0
C      1  0.4813320000000  0.5012980000000  0.4311550000000 1.0
C      1  0.4811540000000  0.4352450000000  0.4766320000000 1.0
C      1  0.5353130000000  0.4353330000000  0.5481940000000 1.0
C      1  0.5367920000000  0.5285130000000  0.5814510000000 1.0
C      1  0.5359450000000  0.5791340000000  0.5014040000000 1.0
C      1  0.5441790000000  0.5228970000000  0.4176950000000 1.0
C      1  0.5357360000000  0.4342630000000  0.4540040000000 1.0
C      1  0.4129590000000  0.5572150000000  0.4629210000000 1.0
C      1  0.4136530000000  0.4806600000000  0.4362450000000 1.0
C      1  0.4133480000000  0.4339860000000  0.4991580000000 1.0
C      1  0.4148660000000  0.4786740000000  0.5620160000000 1.0
C      1  0.4141610000000  0.5531150000000  0.5408860000000 1.0
C      1  0.5913720000000  0.5175950000000  0.4355670000000 1.0
C      1  0.5803880000000  0.4537650000000  0.4712260000000 1.0
C      1  0.5793880000000  0.4591800000000  0.5348350000000 1.0
C      1  0.5841990000000  0.5257130000000  0.5606410000000 1.0
C      1  0.5843390000000  0.5626980000000  0.4961550000000 1.0
C      1  0.4344650000000  0.4659460000000  0.4182440000000 1.0
C      1  0.4341040000000  0.4120370000000  0.5069420000000 1.0
C      1  0.4349470000000  0.4790350000000  0.5852880000000 1.0
C      1  0.4351370000000  0.5746030000000  0.5480280000000 1.0
C      1  0.4345210000000  0.5708940000000  0.4461450000000 1.0
C      1  0.4271810000000  0.5534530000000  0.4892220000000 1.0
C      1  0.4304790000000  0.5047250000000  0.4454250000000 1.0
C      1  0.4274800000000  0.4513300000000  0.4783330000000 1.0
C      1  0.4303840000000  0.4641570000000  0.5399920000000 1.0
C      1  0.4295120000000  0.5270350000000  0.5461770000000 1.0
C      1  0.6041940000000  0.5324140000000  0.4584940000000 1.0
C      1  0.6023780000000  0.4697080000000  0.4579730000000 1.0
C      1  0.6017060000000  0.4515060000000  0.5158910000000 1.0
C      1  0.5966480000000  0.5007970000000  0.5498920000000 1.0
C      1  0.5987190000000  0.5478500000000  0.5176990000000 1.0
C      1  0.4776010000000  0.5520170000000  0.4080590000000 1.0
C      1  0.4762010000000  0.4275600000000  0.4193580000000 1.0
C      1  0.4761760000000  0.3998390000000  0.5438560000000 1.0
C      1  0.4755690000000  0.5106950000000  0.6090030000000 1.0
C      1  0.4757950000000  0.6056300000000  0.5241340000000 1.0
C      1  0.4491480000000  0.4519360000000  0.5891530000000 1.0
C      1  0.4493900000000  0.5681500000000  0.5746490000000 1.0
C      1  0.4512970000000  0.5921000000000  0.4604660000000 1.0
C      1  0.4498370000000  0.4858450000000  0.4000050000000 1.0
C      1  0.4489750000000  0.4010470000000  0.4821010000000 1.0
C      1  0.4807760000000  0.4727310000000  0.4406660000000 1.0
C      1  0.4805060000000  0.4341130000000  0.5071070000000 1.0
C      1  0.4823780000000  0.4849850000000  0.5645860000000 1.0
C      1  0.4825220000000  0.5559260000000  0.5343400000000 1.0
C      1  0.4797840000000  0.5492770000000  0.4541030000000 1.0
C      1  0.5238810000000  0.5051960000000  0.4858360000000 1.0
C      1  0.5221090000000  0.5011380000000  0.5157400000000 1.0
END
