TITL C-3577084-3642-307 -1.32265417783532e-07 125000 -315.57590656665 0 0 53 (C1) n - 1
REM
REM in /home/bkarasulu/work/CARBON/AIRSS/Generating-Clusters/EDIP-Nigel-Params/with-SteepDescent/Higher-Symm/SD-CG/HFTN-CG
REM
REM
REM
REM
REM
REM ./C.cell (12c818d87b63d06a65506943cc24bca4)
REM
REM compiler GCC version 9.2.1 20190827 (Red Hat 9.2.1-1)
REM options -cpp -mtune=generic -march=x86-64 -g -O0 -fpre-include=/usr/include/finclude/math-vector-fortran.h
REM seed 1237188767 157769791 1101834639 -422191483 1071449912 -829310430 -1141220643 145015823 -1800656972 -410900689 98818796 -134818341 1288602824 1595831597 245784406 -1721680577 231122434 1495770386 1881919938 650765426 1456395529 178363090 -612238537 -362442940 1273836203 490117819 -1518902095 1648966129 164280764 482750825 376988870 928412768 -1122705671
REM
CELL 1.54180   50.00000   50.00000   50.00000   90.00000   90.00000   90.00000
LATT -1
SFAC C  
C      1  0.4398710000000  0.4927700000000  0.5282800000000 1.0
C      1  0.5041400000000  0.4909180000000  0.4397210000000 1.0
C      1  0.5517750000000  0.4928090000000  0.5371990000000 1.0
C      1  0.5328040000000  0.4770750000000  0.5503930000000 1.0
C      1  0.4416440000000  0.4776130000000  0.5048390000000 1.0
C      1  0.5257850000000  0.4753070000000  0.4481550000000 1.0
C      1  0.5300480000000  0.4676140000000  0.4914050000000 1.0
C      1  0.4937540000000  0.4684530000000  0.5317790000000 1.0
C      1  0.4779920000000  0.4686920000000  0.4812200000000 1.0
C      1  0.4786770000000  0.4448650000000  0.5742900000000 1.0
C      1  0.4475500000000  0.4458240000000  0.4472990000000 1.0
C      1  0.5738780000000  0.4433740000000  0.4836720000000 1.0
C      1  0.4513230000000  0.5182520000000  0.5309330000000 1.0
C      1  0.4979910000000  0.5180930000000  0.4397860000000 1.0
C      1  0.5486030000000  0.5185950000000  0.5268460000000 1.0
C      1  0.5000600000000  0.5173660000000  0.5482830000000 1.0
C      1  0.4610530000000  0.5186370000000  0.4785140000000 1.0
C      1  0.5389600000000  0.5161310000000  0.4750780000000 1.0
C      1  0.5028970000000  0.5711900000000  0.4772980000000 1.0
C      1  0.5235350000000  0.5644650000000  0.5212270000000 1.0
C      1  0.4703270000000  0.5646300000000  0.5163470000000 1.0
C      1  0.5218080000000  0.4480830000000  0.4543920000000 1.0
C      1  0.5300820000000  0.4496720000000  0.5437320000000 1.0
C      1  0.4487050000000  0.4503010000000  0.5060280000000 1.0
C      1  0.4726760000000  0.5275160000000  0.5484710000000 1.0
C      1  0.4805870000000  0.5298600000000  0.4601020000000 1.0
C      1  0.5496540000000  0.5280210000000  0.4993620000000 1.0
C      1  0.4723730000000  0.4493750000000  0.4560270000000 1.0
C      1  0.5537230000000  0.4480900000000  0.5002840000000 1.0
C      1  0.4743100000000  0.4490720000000  0.5484500000000 1.0
C      1  0.4565160000000  0.5652400000000  0.4801270000000 1.0
C      1  0.5315390000000  0.5620430000000  0.4713720000000 1.0
C      1  0.5023250000000  0.5636200000000  0.5536040000000 1.0
C      1  0.4566980000000  0.4899080000000  0.4832530000000 1.0
C      1  0.5402560000000  0.4873680000000  0.4703740000000 1.0
C      1  0.5059070000000  0.4887330000000  0.5509290000000 1.0
C      1  0.5351200000000  0.5371420000000  0.4548620000000 1.0
C      1  0.5172440000000  0.5392700000000  0.5569170000000 1.0
C      1  0.4450120000000  0.5406440000000  0.4892180000000 1.0
C      1  0.5433300000000  0.5568100000000  0.4988300000000 1.0
C      1  0.4750420000000  0.5570520000000  0.5455690000000 1.0
C      1  0.4792950000000  0.5594690000000  0.4626310000000 1.0
C      1  0.5301230000000  0.4291030000000  0.5001120000000 1.0
C      1  0.4862620000000  0.4297810000000  0.5285410000000 1.0
C      1  0.4833430000000  0.4298160000000  0.4763890000000 1.0
C      1  0.5190300000000  0.5346030000000  0.4315570000000 1.0
C      1  0.5428400000000  0.5400950000000  0.5446650000000 1.0
C      1  0.4398120000000  0.5402850000000  0.5171140000000 1.0
C      1  0.4700680000000  0.4318100000000  0.5035660000000 1.0
C      1  0.5130900000000  0.4306610000000  0.4749060000000 1.0
C      1  0.5166540000000  0.4313920000000  0.5265980000000 1.0
C      1  0.5010190000000  0.4741250000000  0.5015760000000 1.0
C      1  0.4981080000000  0.5712160000000  0.5063770000000 1.0
END
