TITL C-3577089-586-390 1.01066151084701e-06 125000 -748.168780740247 0 0 120 (C1) n - 1
REM
REM in /home/bkarasulu/work/CARBON/AIRSS/Generating-Clusters/EDIP-Nigel-Params/with-SteepDescent/Higher-Symm/SD-CG/HFTN-CG
REM
REM
REM
REM
REM
REM ./C.cell (12c818d87b63d06a65506943cc24bca4)
REM
REM compiler GCC version 9.2.1 20190827 (Red Hat 9.2.1-1)
REM options -cpp -mtune=generic -march=x86-64 -g -O0 -fpre-include=/usr/include/finclude/math-vector-fortran.h
REM seed -1977022557 -1602457981 -344334893 -329290905 -204998460 -848675742 -26590459 -1008590177 -573550243 1156023711 1873710602 783977107 -1838134759 822200297 -240643935 1917787213 -226323461 -110139101 -337945409 -509875480 -1749370710 993082152 -1888523299 565337306 326292959 -978212159 1690673962 239627555 -1783554483 1793488623 1327590014 -574198797 1092970099
REM
CELL 1.54180   50.00000   50.00000   50.00000   90.00000   90.00000   90.00000
LATT -1
SFAC C  
C      1  0.4991360000000  0.4819400000000  0.4663190000000 1.0
C      1  0.5233880000000  0.5503420000000  0.5132130000000 1.0
C      1  0.4735850000000  0.5883410000000  0.5013470000000 1.0
C      1  0.4725770000000  0.4444860000000  0.5595380000000 1.0
C      1  0.4077260000000  0.5327460000000  0.4601900000000 1.0
C      1  0.5023490000000  0.4703650000000  0.5149500000000 1.0
C      1  0.5013230000000  0.5087160000000  0.4489830000000 1.0
C      1  0.4453320000000  0.5648720000000  0.5649220000000 1.0
C      1  0.5089700000000  0.5497700000000  0.4848810000000 1.0
C      1  0.5335150000000  0.4475830000000  0.5490550000000 1.0
C      1  0.5324950000000  0.4815820000000  0.5803010000000 1.0
C      1  0.4213120000000  0.5227370000000  0.5053290000000 1.0
C      1  0.4560690000000  0.4866950000000  0.5267260000000 1.0
C      1  0.4610740000000  0.5435050000000  0.4739700000000 1.0
C      1  0.5144760000000  0.5179810000000  0.4051420000000 1.0
C      1  0.5081560000000  0.5075440000000  0.5061690000000 1.0
C      1  0.4870530000000  0.4686150000000  0.5628170000000 1.0
C      1  0.5284020000000  0.4731530000000  0.4686320000000 1.0
C      1  0.5278200000000  0.4588610000000  0.4220270000000 1.0
C      1  0.4437040000000  0.4272850000000  0.5270600000000 1.0
C      1  0.4904830000000  0.5087420000000  0.5887840000000 1.0
C      1  0.5349020000000  0.5913830000000  0.4969360000000 1.0
C      1  0.4371370000000  0.5600660000000  0.4834920000000 1.0
C      1  0.5332780000000  0.5821660000000  0.5727480000000 1.0
C      1  0.4375590000000  0.4582920000000  0.4465140000000 1.0
C      1  0.5303660000000  0.4195420000000  0.5552510000000 1.0
C      1  0.5675740000000  0.5082960000000  0.5350260000000 1.0
C      1  0.5864970000000  0.5159790000000  0.4896610000000 1.0
C      1  0.4197660000000  0.4543660000000  0.4948720000000 1.0
C      1  0.5587300000000  0.5728170000000  0.4912210000000 1.0
C      1  0.4692540000000  0.5389370000000  0.5253270000000 1.0
C      1  0.4794080000000  0.4515700000000  0.5053710000000 1.0
C      1  0.4635550000000  0.5049530000000  0.4173580000000 1.0
C      1  0.5542540000000  0.5598950000000  0.4650980000000 1.0
C      1  0.4509000000000  0.5365250000000  0.5744900000000 1.0
C      1  0.5553870000000  0.5508590000000  0.5123200000000 1.0
C      1  0.4349090000000  0.5326090000000  0.5303830000000 1.0
C      1  0.5719820000000  0.4962430000000  0.4723910000000 1.0
C      1  0.5207860000000  0.5574950000000  0.5769790000000 1.0
C      1  0.5183970000000  0.4298960000000  0.4273560000000 1.0
C      1  0.5319630000000  0.5130070000000  0.4892110000000 1.0
C      1  0.4045080000000  0.4778140000000  0.4922880000000 1.0
C      1  0.4459430000000  0.5751180000000  0.5079840000000 1.0
C      1  0.5711590000000  0.4555210000000  0.4517180000000 1.0
C      1  0.5157730000000  0.4622630000000  0.5678000000000 1.0
C      1  0.4741500000000  0.5773700000000  0.5700650000000 1.0
C      1  0.4565000000000  0.4235970000000  0.4747490000000 1.0
C      1  0.4362120000000  0.4435550000000  0.4720810000000 1.0
C      1  0.4107990000000  0.5160650000000  0.5541540000000 1.0
C      1  0.4908650000000  0.4199090000000  0.5248870000000 1.0
C      1  0.4322650000000  0.4742620000000  0.5408800000000 1.0
C      1  0.4765230000000  0.5618550000000  0.4570800000000 1.0
C      1  0.5306130000000  0.5709710000000  0.4529820000000 1.0
C      1  0.4867050000000  0.5210700000000  0.5427740000000 1.0
C      1  0.5792770000000  0.4132240000000  0.5173980000000 1.0
C      1  0.5253690000000  0.4205140000000  0.4542560000000 1.0
C      1  0.4820940000000  0.4375810000000  0.4778480000000 1.0
C      1  0.4613010000000  0.4768140000000  0.5001220000000 1.0
C      1  0.5417880000000  0.5810180000000  0.5460090000000 1.0
C      1  0.4451480000000  0.5064580000000  0.4414540000000 1.0
C      1  0.5467470000000  0.4730550000000  0.5112260000000 1.0
C      1  0.5130560000000  0.5261270000000  0.5295760000000 1.0
C      1  0.5587870000000  0.5317890000000  0.5556250000000 1.0
C      1  0.5611650000000  0.4606060000000  0.5534920000000 1.0
C      1  0.4142540000000  0.5422990000000  0.4855310000000 1.0
C      1  0.4455710000000  0.4873120000000  0.5732480000000 1.0
C      1  0.5351680000000  0.5319500000000  0.5749950000000 1.0
C      1  0.4783420000000  0.4971680000000  0.4852090000000 1.0
C      1  0.5778610000000  0.4305700000000  0.4955160000000 1.0
C      1  0.5701120000000  0.4762660000000  0.5287270000000 1.0
C      1  0.4648580000000  0.4561340000000  0.4334670000000 1.0
C      1  0.5164050000000  0.5864040000000  0.4733560000000 1.0
C      1  0.5580650000000  0.5050400000000  0.4204650000000 1.0
C      1  0.5529540000000  0.4272330000000  0.4805760000000 1.0
C      1  0.4919260000000  0.5882110000000  0.5248460000000 1.0
C      1  0.5861920000000  0.4583560000000  0.4987920000000 1.0
C      1  0.5322670000000  0.5340120000000  0.4239040000000 1.0
C      1  0.4736020000000  0.4842490000000  0.5837940000000 1.0
C      1  0.5342020000000  0.4939370000000  0.4058440000000 1.0
C      1  0.4806570000000  0.5395380000000  0.4958790000000 1.0
C      1  0.5600820000000  0.4776150000000  0.5759340000000 1.0
C      1  0.5198600000000  0.5074370000000  0.5820850000000 1.0
C      1  0.5141340000000  0.4068560000000  0.5360810000000 1.0
C      1  0.4205030000000  0.5219860000000  0.4383280000000 1.0
C      1  0.5291330000000  0.4252690000000  0.4983550000000 1.0
C      1  0.5612190000000  0.5586220000000  0.5406410000000 1.0
C      1  0.4033680000000  0.4999570000000  0.5096330000000 1.0
C      1  0.4842010000000  0.4867540000000  0.5376890000000 1.0
C      1  0.5590120000000  0.3965300000000  0.5236600000000 1.0
C      1  0.4607130000000  0.5143960000000  0.4659340000000 1.0
C      1  0.4863440000000  0.5849030000000  0.4738140000000 1.0
C      1  0.5857240000000  0.4699130000000  0.4714760000000 1.0
C      1  0.5074290000000  0.4206810000000  0.4775560000000 1.0
C      1  0.5235670000000  0.5282170000000  0.4614820000000 1.0
C      1  0.4756590000000  0.5679420000000  0.5403430000000 1.0
C      1  0.4335200000000  0.5631870000000  0.5344760000000 1.0
C      1  0.5179390000000  0.5588090000000  0.4301640000000 1.0
C      1  0.4799590000000  0.5308070000000  0.5726140000000 1.0
C      1  0.5270380000000  0.4530600000000  0.5189460000000 1.0
C      1  0.5645250000000  0.5220220000000  0.5084870000000 1.0
C      1  0.5326170000000  0.4004490000000  0.5149730000000 1.0
C      1  0.4744280000000  0.4775500000000  0.4140520000000 1.0
C      1  0.5624760000000  0.5136240000000  0.4481960000000 1.0
C      1  0.5454600000000  0.4877520000000  0.4858260000000 1.0
C      1  0.5445030000000  0.4646950000000  0.4462000000000 1.0
C      1  0.4931790000000  0.4225460000000  0.4181070000000 1.0
C      1  0.4341140000000  0.5137760000000  0.5702630000000 1.0
C      1  0.5738580000000  0.5404050000000  0.4548620000000 1.0
C      1  0.4265010000000  0.4843570000000  0.4454790000000 1.0
C      1  0.4676540000000  0.4304210000000  0.4206110000000 1.0
C      1  0.4890060000000  0.5219360000000  0.4233720000000 1.0
C      1  0.4074910000000  0.4922210000000  0.5378560000000 1.0
C      1  0.4680810000000  0.4261760000000  0.5397080000000 1.0
C      1  0.5948500000000  0.5373960000000  0.4737280000000 1.0
C      1  0.4922230000000  0.5564600000000  0.5801570000000 1.0
C      1  0.5215510000000  0.5807510000000  0.5222490000000 1.0
C      1  0.4889900000000  0.5524750000000  0.4316560000000 1.0
C      1  0.5035080000000  0.4796580000000  0.4225590000000 1.0
C      1  0.4845320000000  0.4578640000000  0.4561810000000 1.0
C      1  0.4263190000000  0.4485300000000  0.5233120000000 1.0
END
