TITL C-3577083-591-257 -0.000193846640872185 125000 -743.865740909235 0 0 125 (C1) n - 1
REM
REM in /home/bkarasulu/work/CARBON/AIRSS/Generating-Clusters/EDIP-Nigel-Params/with-SteepDescent/Higher-Symm/SD-CG/HFTN-CG
REM
REM
REM
REM
REM
REM ./C.cell (12c818d87b63d06a65506943cc24bca4)
REM
REM compiler GCC version 9.2.1 20190827 (Red Hat 9.2.1-1)
REM options -cpp -mtune=generic -march=x86-64 -g -O0 -fpre-include=/usr/include/finclude/math-vector-fortran.h
REM seed -1166925267 -1352054590 -1442388204 -998490681 894751381 932978560 310153805 -81274744 -1763486702 2051098573 1789499654 1931069200 -681650176 1154010751 -507588480 2088311044 -200609964 925841018 -1111231885 -1022503816 -1894933054 -282413158 313159482 -1881219989 -1594183482 159359781 159764888 475418580 1880442902 -659399178 -1428912380 -417735432 -259119721
REM
CELL 1.54180   50.00000   50.00000   50.00000   90.00000   90.00000   90.00000
LATT -1
SFAC C  
C      1  0.4888450000000  0.4184680000000  0.5684120000000 1.0
C      1  0.5549940000000  0.4840910000000  0.5661650000000 1.0
C      1  0.5410850000000  0.5503390000000  0.5750880000000 1.0
C      1  0.4629300000000  0.5674240000000  0.5735340000000 1.0
C      1  0.4419590000000  0.4837130000000  0.5777170000000 1.0
C      1  0.4914050000000  0.5784460000000  0.5693360000000 1.0
C      1  0.5564730000000  0.5237220000000  0.5690140000000 1.0
C      1  0.5367110000000  0.4584510000000  0.5707540000000 1.0
C      1  0.4597600000000  0.4288490000000  0.5722820000000 1.0
C      1  0.4426820000000  0.5139110000000  0.5770700000000 1.0
C      1  0.4200700000000  0.4567320000000  0.5206930000000 1.0
C      1  0.5026110000000  0.4154000000000  0.5209630000000 1.0
C      1  0.5786970000000  0.4854460000000  0.5235930000000 1.0
C      1  0.5420470000000  0.5749730000000  0.5323870000000 1.0
C      1  0.4453020000000  0.5597670000000  0.5283290000000 1.0
C      1  0.4212430000000  0.5421190000000  0.5217330000000 1.0
C      1  0.5052260000000  0.5863380000000  0.5229060000000 1.0
C      1  0.5908040000000  0.5136140000000  0.5239970000000 1.0
C      1  0.5378240000000  0.4296140000000  0.5310310000000 1.0
C      1  0.4433620000000  0.4382140000000  0.5267420000000 1.0
C      1  0.4097930000000  0.5154050000000  0.4615480000000 1.0
C      1  0.4541550000000  0.4172490000000  0.4554960000000 1.0
C      1  0.5655800000000  0.4332080000000  0.4582790000000 1.0
C      1  0.5789600000000  0.5354590000000  0.4517470000000 1.0
C      1  0.4827580000000  0.5901130000000  0.4626480000000 1.0
C      1  0.4096290000000  0.4854210000000  0.4614170000000 1.0
C      1  0.4559270000000  0.5823780000000  0.4561170000000 1.0
C      1  0.5628830000000  0.5610690000000  0.4548870000000 1.0
C      1  0.5818080000000  0.4583840000000  0.4594860000000 1.0
C      1  0.4811040000000  0.4104030000000  0.4633350000000 1.0
C      1  0.4781830000000  0.3921670000000  0.5561960000000 1.0
C      1  0.5804410000000  0.4655380000000  0.5670910000000 1.0
C      1  0.5681590000000  0.5657400000000  0.5735760000000 1.0
C      1  0.4506890000000  0.5939660000000  0.5629830000000 1.0
C      1  0.4173620000000  0.4713570000000  0.5693210000000 1.0
C      1  0.4798930000000  0.6055510000000  0.5593940000000 1.0
C      1  0.5835540000000  0.5376330000000  0.5719180000000 1.0
C      1  0.5624600000000  0.4410390000000  0.5713430000000 1.0
C      1  0.4486010000000  0.4026420000000  0.5600740000000 1.0
C      1  0.4180510000000  0.5267320000000  0.5695120000000 1.0
C      1  0.4959790000000  0.4355520000000  0.5441400000000 1.0
C      1  0.5534580000000  0.4933300000000  0.5373820000000 1.0
C      1  0.5292650000000  0.5509810000000  0.5471260000000 1.0
C      1  0.4654190000000  0.5492200000000  0.5492970000000 1.0
C      1  0.4602300000000  0.4770670000000  0.5556290000000 1.0
C      1  0.5008940000000  0.5639820000000  0.5443690000000 1.0
C      1  0.5551920000000  0.5237730000000  0.5372880000000 1.0
C      1  0.5220620000000  0.4506980000000  0.5465350000000 1.0
C      1  0.4624460000000  0.4481720000000  0.5485850000000 1.0
C      1  0.4624690000000  0.5206380000000  0.5562940000000 1.0
C      1  0.4505940000000  0.4736930000000  0.4097030000000 1.0
C      1  0.4988040000000  0.4622430000000  0.4145890000000 1.0
C      1  0.5474270000000  0.4841900000000  0.4110030000000 1.0
C      1  0.5270100000000  0.5365420000000  0.4101220000000 1.0
C      1  0.4740880000000  0.5438880000000  0.4064310000000 1.0
C      1  0.4514470000000  0.5268000000000  0.4102350000000 1.0
C      1  0.4987620000000  0.5361170000000  0.4196500000000 1.0
C      1  0.5390730000000  0.5106130000000  0.4008520000000 1.0
C      1  0.5297630000000  0.4600690000000  0.4131740000000 1.0
C      1  0.4716990000000  0.4546790000000  0.4054550000000 1.0
C      1  0.5499900000000  0.4438680000000  0.5063290000000 1.0
C      1  0.5765470000000  0.5276170000000  0.4999590000000 1.0
C      1  0.5015600000000  0.5764580000000  0.4937240000000 1.0
C      1  0.4255770000000  0.5276340000000  0.4948220000000 1.0
C      1  0.4591930000000  0.4337460000000  0.5007690000000 1.0
C      1  0.5487740000000  0.5592830000000  0.5067990000000 1.0
C      1  0.5747830000000  0.4774050000000  0.4932980000000 1.0
C      1  0.5008610000000  0.4266740000000  0.4916890000000 1.0
C      1  0.4252280000000  0.4718710000000  0.4942650000000 1.0
C      1  0.4608030000000  0.5649530000000  0.5021770000000 1.0
C      1  0.5610050000000  0.5193780000000  0.4321130000000 1.0
C      1  0.5060900000000  0.5761490000000  0.4499960000000 1.0
C      1  0.4247710000000  0.5246540000000  0.4378560000000 1.0
C      1  0.4556070000000  0.4396770000000  0.4368850000000 1.0
C      1  0.5421920000000  0.4373880000000  0.4411320000000 1.0
C      1  0.5680780000000  0.4782700000000  0.4421410000000 1.0
C      1  0.5007180000000  0.4234310000000  0.4467380000000 1.0
C      1  0.4243660000000  0.4763860000000  0.4375000000000 1.0
C      1  0.4570760000000  0.5614800000000  0.4363200000000 1.0
C      1  0.5405810000000  0.5519560000000  0.4364150000000 1.0
C      1  0.4527960000000  0.4844230000000  0.4371090000000 1.0
C      1  0.4973710000000  0.4536310000000  0.4431560000000 1.0
C      1  0.5428010000000  0.4844450000000  0.4572110000000 1.0
C      1  0.5211210000000  0.5301270000000  0.4621490000000 1.0
C      1  0.4687220000000  0.5397550000000  0.4537740000000 1.0
C      1  0.4530630000000  0.5167470000000  0.4377480000000 1.0
C      1  0.4983930000000  0.5456530000000  0.4480000000000 1.0
C      1  0.5340400000000  0.5095380000000  0.4447470000000 1.0
C      1  0.5257430000000  0.4595960000000  0.4529140000000 1.0
C      1  0.4688390000000  0.4625730000000  0.4526940000000 1.0
C      1  0.4416970000000  0.5713120000000  0.4798140000000 1.0
C      1  0.4235570000000  0.4509470000000  0.4732290000000 1.0
C      1  0.5236210000000  0.4154410000000  0.4748740000000 1.0
C      1  0.5937970000000  0.4921210000000  0.4750080000000 1.0
C      1  0.5514100000000  0.5741080000000  0.4800190000000 1.0
C      1  0.4396800000000  0.4281000000000  0.4787180000000 1.0
C      1  0.4244610000000  0.5491870000000  0.4743310000000 1.0
C      1  0.5249320000000  0.5861600000000  0.4743610000000 1.0
C      1  0.5916270000000  0.5213150000000  0.4753020000000 1.0
C      1  0.5505360000000  0.4245860000000  0.4826930000000 1.0
C      1  0.4531770000000  0.5144950000000  0.4957250000000 1.0
C      1  0.4736140000000  0.4615290000000  0.4967510000000 1.0
C      1  0.5293190000000  0.4670980000000  0.5011810000000 1.0
C      1  0.5477720000000  0.5168180000000  0.4946870000000 1.0
C      1  0.5021680000000  0.5457190000000  0.4925020000000 1.0
C      1  0.4532510000000  0.4842820000000  0.4956260000000 1.0
C      1  0.4736370000000  0.5366750000000  0.4978170000000 1.0
C      1  0.5281780000000  0.5361020000000  0.5053500000000 1.0
C      1  0.5469120000000  0.4872610000000  0.4872180000000 1.0
C      1  0.5029660000000  0.4572110000000  0.4905730000000 1.0
C      1  0.5965510000000  0.5366470000000  0.5448770000000 1.0
C      1  0.4849670000000  0.6073700000000  0.5297480000000 1.0
C      1  0.4177540000000  0.5211290000000  0.5414390000000 1.0
C      1  0.4385260000000  0.4089020000000  0.5323840000000 1.0
C      1  0.5634380000000  0.4250060000000  0.5458620000000 1.0
C      1  0.5915780000000  0.4634910000000  0.5392460000000 1.0
C      1  0.4838740000000  0.3924180000000  0.5264810000000 1.0
C      1  0.4181580000000  0.4772190000000  0.5411790000000 1.0
C      1  0.4404650000000  0.5887290000000  0.5350860000000 1.0
C      1  0.5691250000000  0.5773560000000  0.5456950000000 1.0
C      1  0.4413260000000  0.4993230000000  0.5347220000000 1.0
C      1  0.5809930000000  0.4392240000000  0.5272310000000 1.0
C      1  0.5816220000000  0.5563500000000  0.5277850000000 1.0
C      1  0.4600620000000  0.6006210000000  0.5167450000000 1.0
C      1  0.4584640000000  0.3976500000000  0.5137870000000 1.0
END
