TITL C-3578202-4305-103 -1.18000146593089e-06 125000 -336.757546809194 0 0 55 (C1) n - 1
REM
REM in /home/bkarasulu/work/CARBON/AIRSS/Generating-Clusters/EDIP-Nigel-Params/with-SteepDescent/Higher-Symm/SD-CG/HFTN-CG
REM
REM
REM
REM
REM
REM ./C.cell (12c818d87b63d06a65506943cc24bca4)
REM
REM compiler GCC version 9.2.1 20190827 (Red Hat 9.2.1-1)
REM options -cpp -mtune=generic -march=x86-64 -g -O0 -fpre-include=/usr/include/finclude/math-vector-fortran.h
REM seed -1668734189 -1408760077 -114771526 1747962598 1246905063 -686040983 96543177 -444092719 -290613402 402215249 -1242699326 2114113118 -458211578 -637189570 -1188178780 1214746736 519150891 -1927402613 -1241736746 338694620 817839246 -315122561 -549242439 1788596940 -273711151 700472088 -459454602 875878946 1114679474 -559396158 -524577745 1049291256 868881206
REM
CELL 1.54180   50.00000   50.00000   50.00000   90.00000   90.00000   90.00000
LATT -1
SFAC C  
C      1  0.4755040000000  0.5002240000000  0.5069450000000 1.0
C      1  0.4936000000000  0.5229390000000  0.5040970000000 1.0
C      1  0.5202240000000  0.5136020000000  0.4935470000000 1.0
C      1  0.5187310000000  0.4858680000000  0.5035760000000 1.0
C      1  0.4908130000000  0.4777610000000  0.4954020000000 1.0
C      1  0.4320240000000  0.4836020000000  0.4848500000000 1.0
C      1  0.4627150000000  0.5611330000000  0.4863870000000 1.0
C      1  0.5473710000000  0.5552210000000  0.4844220000000 1.0
C      1  0.5657200000000  0.4727760000000  0.4850750000000 1.0
C      1  0.4937000000000  0.4283720000000  0.4841320000000 1.0
C      1  0.4852650000000  0.5519400000000  0.5039470000000 1.0
C      1  0.5436080000000  0.5319380000000  0.5027860000000 1.0
C      1  0.5417070000000  0.4667150000000  0.5025180000000 1.0
C      1  0.4836230000000  0.4486480000000  0.5038620000000 1.0
C      1  0.4462710000000  0.5034700000000  0.5029220000000 1.0
C      1  0.4705080000000  0.4576970000000  0.5510970000000 1.0
C      1  0.4494880000000  0.5144700000000  0.5509140000000 1.0
C      1  0.4980300000000  0.5522470000000  0.5512000000000 1.0
C      1  0.5475970000000  0.5176010000000  0.5502940000000 1.0
C      1  0.5307470000000  0.4593470000000  0.5496800000000 1.0
C      1  0.4867330000000  0.4789610000000  0.4644610000000 1.0
C      1  0.4769440000000  0.5070000000000  0.4554300000000 1.0
C      1  0.5009020000000  0.5246870000000  0.4555900000000 1.0
C      1  0.5246260000000  0.5057890000000  0.4556200000000 1.0
C      1  0.5148360000000  0.4764310000000  0.4531180000000 1.0
C      1  0.5128400000000  0.5781940000000  0.5101030000000 1.0
C      1  0.5768010000000  0.5132680000000  0.5102370000000 1.0
C      1  0.5354510000000  0.4291690000000  0.5094540000000 1.0
C      1  0.4459200000000  0.4435650000000  0.5101930000000 1.0
C      1  0.4287000000000  0.5371340000000  0.5116670000000 1.0
C      1  0.4743060000000  0.5667330000000  0.4616650000000 1.0
C      1  0.5565350000000  0.5446850000000  0.4601870000000 1.0
C      1  0.5608110000000  0.4603420000000  0.4603070000000 1.0
C      1  0.4801940000000  0.4304530000000  0.4595980000000 1.0
C      1  0.4298070000000  0.4960150000000  0.4597190000000 1.0
C      1  0.5144390000000  0.4806200000000  0.5576750000000 1.0
C      1  0.4854440000000  0.4800080000000  0.5582370000000 1.0
C      1  0.4753800000000  0.5074290000000  0.5590450000000 1.0
C      1  0.4986380000000  0.5252540000000  0.5585730000000 1.0
C      1  0.5224350000000  0.5085360000000  0.5576250000000 1.0
C      1  0.5204780000000  0.5677160000000  0.4832470000000 1.0
C      1  0.5698380000000  0.5020460000000  0.4839170000000 1.0
C      1  0.5230000000000  0.4327260000000  0.4826760000000 1.0
C      1  0.4460740000000  0.4573810000000  0.4838100000000 1.0
C      1  0.4408930000000  0.5421620000000  0.4856550000000 1.0
C      1  0.5605340000000  0.5290360000000  0.5285680000000 1.0
C      1  0.5455120000000  0.4498670000000  0.5279190000000 1.0
C      1  0.4678100000000  0.4405560000000  0.5293940000000 1.0
C      1  0.4325610000000  0.5136170000000  0.5286380000000 1.0
C      1  0.4923450000000  0.5682690000000  0.5290050000000 1.0
C      1  0.5328680000000  0.4543890000000  0.4620300000000 1.0
C      1  0.4673420000000  0.4555200000000  0.4611750000000 1.0
C      1  0.4494310000000  0.5160880000000  0.4608150000000 1.0
C      1  0.4998430000000  0.5540940000000  0.4634960000000 1.0
C      1  0.5524820000000  0.5166880000000  0.4635000000000 1.0
END
