TITL C-3578209-2550-305 -4.46730546222895e-06 125000 -878.529589061972 0 0 143 (C1) n - 1
REM
REM in /home/bkarasulu/work/CARBON/AIRSS/Generating-Clusters/EDIP-Nigel-Params/with-SteepDescent/Higher-Symm/SD-CG/HFTN-CG
REM
REM
REM
REM
REM
REM ./C.cell (12c818d87b63d06a65506943cc24bca4)
REM
REM compiler GCC version 9.2.1 20190827 (Red Hat 9.2.1-1)
REM options -cpp -mtune=generic -march=x86-64 -g -O0 -fpre-include=/usr/include/finclude/math-vector-fortran.h
REM seed -1966580716 552116319 -1927804061 1320202544 -1299610880 1784191196 -1632410987 1071027963 -2017377944 870339537 844395794 1897563318 1934432982 -2073753729 905598640 2067801326 557859876 1911907497 -1222685346 282108699 1643975580 1482177344 943431788 -1896055614 1344579872 -281990332 -914806135 -1398440087 1654363443 -222588684 2057980579 -1791280654 -1577364394
REM
CELL 1.54180   50.00000   50.00000   50.00000   90.00000   90.00000   90.00000
LATT -1
SFAC C  
C      1  0.4709450000000  0.5239520000000  0.4435580000000 1.0
C      1  0.4979750000000  0.5397090000000  0.4448890000000 1.0
C      1  0.5263790000000  0.5252130000000  0.4441410000000 1.0
C      1  0.5354120000000  0.4935390000000  0.4488750000000 1.0
C      1  0.5157120000000  0.4674650000000  0.4487840000000 1.0
C      1  0.4835230000000  0.4674230000000  0.4440790000000 1.0
C      1  0.4635200000000  0.4927700000000  0.4407340000000 1.0
C      1  0.4499710000000  0.5361540000000  0.4131110000000 1.0
C      1  0.4967620000000  0.5607860000000  0.4122300000000 1.0
C      1  0.5449610000000  0.5396340000000  0.4131160000000 1.0
C      1  0.5573650000000  0.4891630000000  0.4166260000000 1.0
C      1  0.5268020000000  0.4483730000000  0.4163430000000 1.0
C      1  0.4751780000000  0.4456410000000  0.4130510000000 1.0
C      1  0.4404440000000  0.4851150000000  0.4103150000000 1.0
C      1  0.4502270000000  0.4537410000000  0.5633070000000 1.0
C      1  0.4442000000000  0.5001370000000  0.5600780000000 1.0
C      1  0.4894700000000  0.5543000000000  0.5471460000000 1.0
C      1  0.5401210000000  0.5528850000000  0.5531170000000 1.0
C      1  0.5677990000000  0.5135080000000  0.5717560000000 1.0
C      1  0.5495160000000  0.4640310000000  0.5580650000000 1.0
C      1  0.4992690000000  0.4416430000000  0.5504520000000 1.0
C      1  0.5817060000000  0.5581310000000  0.4876380000000 1.0
C      1  0.5942640000000  0.4724470000000  0.4925030000000 1.0
C      1  0.5350310000000  0.4066890000000  0.4917010000000 1.0
C      1  0.4453790000000  0.4179250000000  0.4874040000000 1.0
C      1  0.3967330000000  0.4866700000000  0.4879860000000 1.0
C      1  0.4287300000000  0.5628970000000  0.4913130000000 1.0
C      1  0.5103650000000  0.6030370000000  0.4862550000000 1.0
C      1  0.4618820000000  0.4598740000000  0.5133200000000 1.0
C      1  0.4559230000000  0.5248130000000  0.5120360000000 1.0
C      1  0.4777970000000  0.5625800000000  0.5206310000000 1.0
C      1  0.5382700000000  0.5373030000000  0.5112790000000 1.0
C      1  0.5573910000000  0.5027320000000  0.5183010000000 1.0
C      1  0.5559830000000  0.4601560000000  0.5260370000000 1.0
C      1  0.5013450000000  0.4328420000000  0.5205690000000 1.0
C      1  0.5130640000000  0.5481310000000  0.6062220000000 1.0
C      1  0.5399160000000  0.5077900000000  0.6130440000000 1.0
C      1  0.5448580000000  0.4804510000000  0.6120810000000 1.0
C      1  0.5052980000000  0.4547710000000  0.6109590000000 1.0
C      1  0.4653340000000  0.4848170000000  0.6266910000000 1.0
C      1  0.4527010000000  0.5019750000000  0.6053440000000 1.0
C      1  0.4844670000000  0.5455290000000  0.6099700000000 1.0
C      1  0.4577940000000  0.5297530000000  0.5932300000000 1.0
C      1  0.4894450000000  0.5285970000000  0.5825420000000 1.0
C      1  0.5315730000000  0.5287220000000  0.5962980000000 1.0
C      1  0.5239770000000  0.4884520000000  0.5799010000000 1.0
C      1  0.5281200000000  0.4623360000000  0.5967420000000 1.0
C      1  0.4785060000000  0.4620200000000  0.6122630000000 1.0
C      1  0.4715090000000  0.4818460000000  0.5891710000000 1.0
C      1  0.4707230000000  0.5119590000000  0.5340670000000 1.0
C      1  0.4969040000000  0.5276240000000  0.5398520000000 1.0
C      1  0.5271230000000  0.5289440000000  0.5378030000000 1.0
C      1  0.5383230000000  0.5010750000000  0.5428690000000 1.0
C      1  0.5178540000000  0.4812700000000  0.5333650000000 1.0
C      1  0.4972130000000  0.4705890000000  0.5500710000000 1.0
C      1  0.4716840000000  0.4788240000000  0.5361680000000 1.0
C      1  0.4976020000000  0.5436940000000  0.4927710000000 1.0
C      1  0.5241380000000  0.5277960000000  0.4883910000000 1.0
C      1  0.5455410000000  0.4836760000000  0.4965320000000 1.0
C      1  0.5061180000000  0.4570300000000  0.4984920000000 1.0
C      1  0.4771200000000  0.4648650000000  0.4898130000000 1.0
C      1  0.4697010000000  0.4935200000000  0.4838120000000 1.0
C      1  0.4725640000000  0.5241610000000  0.4887700000000 1.0
C      1  0.4814010000000  0.4075970000000  0.5178710000000 1.0
C      1  0.4151500000000  0.4486710000000  0.5156180000000 1.0
C      1  0.4122620000000  0.5252970000000  0.5191490000000 1.0
C      1  0.4806570000000  0.5923800000000  0.5207170000000 1.0
C      1  0.5537450000000  0.5871320000000  0.5145010000000 1.0
C      1  0.5879210000000  0.5097310000000  0.5212040000000 1.0
C      1  0.5631630000000  0.4304310000000  0.5233730000000 1.0
C      1  0.4288460000000  0.5129360000000  0.4226040000000 1.0
C      1  0.4662600000000  0.5626820000000  0.4246060000000 1.0
C      1  0.5267020000000  0.5641170000000  0.4228970000000 1.0
C      1  0.5654630000000  0.5177390000000  0.4265970000000 1.0
C      1  0.5535920000000  0.4597510000000  0.4290310000000 1.0
C      1  0.5020450000000  0.4322850000000  0.4260510000000 1.0
C      1  0.4464110000000  0.4566630000000  0.4227210000000 1.0
C      1  0.4566920000000  0.5774830000000  0.4498730000000 1.0
C      1  0.5321070000000  0.5819050000000  0.4462650000000 1.0
C      1  0.5831620000000  0.5240830000000  0.4500260000000 1.0
C      1  0.5687490000000  0.4482080000000  0.4529720000000 1.0
C      1  0.5033500000000  0.4147210000000  0.4502710000000 1.0
C      1  0.4312130000000  0.4459900000000  0.4460550000000 1.0
C      1  0.4120430000000  0.5154510000000  0.4479340000000 1.0
C      1  0.4126810000000  0.5383100000000  0.4930390000000 1.0
C      1  0.4812630000000  0.6005500000000  0.4916130000000 1.0
C      1  0.5640380000000  0.5814510000000  0.4870590000000 1.0
C      1  0.5974820000000  0.5017530000000  0.4941290000000 1.0
C      1  0.5595280000000  0.4220910000000  0.4950780000000 1.0
C      1  0.4719870000000  0.4051620000000  0.4897230000000 1.0
C      1  0.4062910000000  0.4584990000000  0.4877280000000 1.0
C      1  0.5244890000000  0.5220070000000  0.4000100000000 1.0
C      1  0.5328920000000  0.4939080000000  0.3997670000000 1.0
C      1  0.5154420000000  0.4705070000000  0.3995500000000 1.0
C      1  0.4861520000000  0.4703170000000  0.3999030000000 1.0
C      1  0.4664920000000  0.4920650000000  0.3966680000000 1.0
C      1  0.4718970000000  0.5206340000000  0.3993630000000 1.0
C      1  0.4977350000000  0.5342820000000  0.3978620000000 1.0
C      1  0.5702870000000  0.5433690000000  0.5127730000000 1.0
C      1  0.5868190000000  0.4621230000000  0.5215770000000 1.0
C      1  0.5207120000000  0.4088820000000  0.5189990000000 1.0
C      1  0.4435660000000  0.4356430000000  0.5136000000000 1.0
C      1  0.4078180000000  0.4966010000000  0.5139990000000 1.0
C      1  0.4477100000000  0.5525080000000  0.5174160000000 1.0
C      1  0.5246360000000  0.5906280000000  0.5099170000000 1.0
C      1  0.5813500000000  0.5508760000000  0.4590300000000 1.0
C      1  0.5899290000000  0.4643440000000  0.4639130000000 1.0
C      1  0.5282070000000  0.4105070000000  0.4631230000000 1.0
C      1  0.4417230000000  0.4225210000000  0.4583380000000 1.0
C      1  0.3940640000000  0.4969500000000  0.4608450000000 1.0
C      1  0.4325070000000  0.5678420000000  0.4623420000000 1.0
C      1  0.5106560000000  0.5967970000000  0.4574420000000 1.0
C      1  0.5524430000000  0.4449700000000  0.4775040000000 1.0
C      1  0.4863910000000  0.4233860000000  0.4716180000000 1.0
C      1  0.4299370000000  0.4639020000000  0.4692460000000 1.0
C      1  0.4286390000000  0.5225180000000  0.4715570000000 1.0
C      1  0.4744110000000  0.5763330000000  0.4736250000000 1.0
C      1  0.5422500000000  0.5684690000000  0.4699540000000 1.0
C      1  0.5768370000000  0.5098670000000  0.4746550000000 1.0
C      1  0.4579610000000  0.4175100000000  0.5348730000000 1.0
C      1  0.4167290000000  0.4739320000000  0.5304950000000 1.0
C      1  0.4313900000000  0.5450750000000  0.5429380000000 1.0
C      1  0.5083610000000  0.5931470000000  0.5335500000000 1.0
C      1  0.5630590000000  0.5651590000000  0.5344850000000 1.0
C      1  0.5918490000000  0.4857790000000  0.5401720000000 1.0
C      1  0.5408380000000  0.4179990000000  0.5399350000000 1.0
C      1  0.4327980000000  0.4745850000000  0.5551700000000 1.0
C      1  0.4435400000000  0.5285520000000  0.5648070000000 1.0
C      1  0.5130320000000  0.5711180000000  0.5541840000000 1.0
C      1  0.5507520000000  0.5358590000000  0.5763250000000 1.0
C      1  0.5737810000000  0.4865380000000  0.5637210000000 1.0
C      1  0.5297080000000  0.4374400000000  0.5599890000000 1.0
C      1  0.4689330000000  0.4329170000000  0.5576520000000 1.0
C      1  0.5225090000000  0.4478660000000  0.4722910000000 1.0
C      1  0.4704160000000  0.4477020000000  0.4652750000000 1.0
C      1  0.4449710000000  0.4915760000000  0.4663970000000 1.0
C      1  0.4554200000000  0.5369250000000  0.4666990000000 1.0
C      1  0.4992650000000  0.5611940000000  0.4674900000000 1.0
C      1  0.5450090000000  0.5384330000000  0.4658250000000 1.0
C      1  0.5592740000000  0.4874150000000  0.4696550000000 1.0
C      1  0.5201130000000  0.4981150000000  0.4903980000000 1.0
C      1  0.5025530000000  0.4931500000000  0.5126850000000 1.0
C      1  0.4956220000000  0.4990020000000  0.5837110000000 1.0
END
