TITL C-3578202-4305-196 -1.74669780033056e-06 125000 -522.969871888736 0 0 85 (C1) n - 1
REM
REM in /home/bkarasulu/work/CARBON/AIRSS/Generating-Clusters/EDIP-Nigel-Params/with-SteepDescent/Higher-Symm/SD-CG/HFTN-CG
REM
REM
REM
REM
REM
REM ./C.cell (12c818d87b63d06a65506943cc24bca4)
REM
REM compiler GCC version 9.2.1 20190827 (Red Hat 9.2.1-1)
REM options -cpp -mtune=generic -march=x86-64 -g -O0 -fpre-include=/usr/include/finclude/math-vector-fortran.h
REM seed 919884861 201409075 -838216855 -1131640433 317093050 -2020162985 -1628786090 1079732767 -650986770 -1664263167 2110919593 -1511565168 1693058063 -460438641 235736884 -492155659 -1062994319 -1205249653 233188062 1829701312 2139671996 -661209982 -1416639914 -1180613145 -1005015056 -1047199667 1169797538 1860307331 148419480 233205844 -397045242 952447582 -359217806
REM
CELL 1.54180   50.00000   50.00000   50.00000   90.00000   90.00000   90.00000
LATT -1
SFAC C  
C      1  0.5280800000000  0.4261270000000  0.4753480000000 1.0
C      1  0.4750770000000  0.4339020000000  0.5222800000000 1.0
C      1  0.5125620000000  0.4076460000000  0.4933670000000 1.0
C      1  0.4876230000000  0.4101930000000  0.5084420000000 1.0
C      1  0.4395290000000  0.4797180000000  0.4754310000000 1.0
C      1  0.5567010000000  0.4755760000000  0.5240000000000 1.0
C      1  0.5333370000000  0.4589890000000  0.4401600000000 1.0
C      1  0.4685130000000  0.4607880000000  0.5613460000000 1.0
C      1  0.5154400000000  0.4587350000000  0.5078830000000 1.0
C      1  0.4917750000000  0.4574120000000  0.4885760000000 1.0
C      1  0.4627350000000  0.4938180000000  0.4633150000000 1.0
C      1  0.5360200000000  0.4916780000000  0.5384350000000 1.0
C      1  0.4318780000000  0.4865640000000  0.5478150000000 1.0
C      1  0.5677500000000  0.4874260000000  0.4561830000000 1.0
C      1  0.4860380000000  0.5698770000000  0.5248960000000 1.0
C      1  0.5132330000000  0.5710320000000  0.4760150000000 1.0
C      1  0.5009820000000  0.5345490000000  0.4475190000000 1.0
C      1  0.4990400000000  0.5331310000000  0.5539030000000 1.0
C      1  0.5417660000000  0.4701900000000  0.4973170000000 1.0
C      1  0.4428760000000  0.4773480000000  0.5059260000000 1.0
C      1  0.4971520000000  0.4931790000000  0.5853680000000 1.0
C      1  0.5041260000000  0.4946120000000  0.4171880000000 1.0
C      1  0.5258380000000  0.4873310000000  0.4350530000000 1.0
C      1  0.4748180000000  0.4888290000000  0.5672770000000 1.0
C      1  0.5197410000000  0.5222140000000  0.5746890000000 1.0
C      1  0.4805200000000  0.5236440000000  0.4265800000000 1.0
C      1  0.4631210000000  0.5007250000000  0.5179620000000 1.0
C      1  0.5341870000000  0.4987940000000  0.4834610000000 1.0
C      1  0.4425200000000  0.4538900000000  0.4610640000000 1.0
C      1  0.5591170000000  0.4510730000000  0.5399800000000 1.0
C      1  0.4892130000000  0.4482530000000  0.5439040000000 1.0
C      1  0.5144550000000  0.4407900000000  0.4539630000000 1.0
C      1  0.4337430000000  0.5631720000000  0.4606790000000 1.0
C      1  0.5668860000000  0.5603500000000  0.5402840000000 1.0
C      1  0.5212370000000  0.4766900000000  0.5821380000000 1.0
C      1  0.4795150000000  0.4796240000000  0.4179710000000 1.0
C      1  0.5308830000000  0.5692820000000  0.5535480000000 1.0
C      1  0.4695220000000  0.5715510000000  0.4469900000000 1.0
C      1  0.5516970000000  0.5336830000000  0.4554810000000 1.0
C      1  0.4442310000000  0.5342950000000  0.5442110000000 1.0
C      1  0.4189670000000  0.5258240000000  0.5285980000000 1.0
C      1  0.5802820000000  0.5288920000000  0.4657120000000 1.0
C      1  0.4651090000000  0.4535060000000  0.4403050000000 1.0
C      1  0.5367570000000  0.4499910000000  0.5604710000000 1.0
C      1  0.5512050000000  0.5724120000000  0.5207470000000 1.0
C      1  0.4495530000000  0.5757750000000  0.4799420000000 1.0
C      1  0.5748630000000  0.5362930000000  0.4939930000000 1.0
C      1  0.4242860000000  0.5390010000000  0.5026190000000 1.0
C      1  0.4631810000000  0.4975050000000  0.4334780000000 1.0
C      1  0.5370730000000  0.4959510000000  0.5678430000000 1.0
C      1  0.4600580000000  0.5466950000000  0.4292110000000 1.0
C      1  0.5401780000000  0.5449420000000  0.5718610000000 1.0
C      1  0.5376670000000  0.5525650000000  0.4769500000000 1.0
C      1  0.4587050000000  0.5555280000000  0.5250500000000 1.0
C      1  0.4480700000000  0.4457550000000  0.5120040000000 1.0
C      1  0.5526400000000  0.4430690000000  0.4836810000000 1.0
C      1  0.5594350000000  0.4586240000000  0.4558940000000 1.0
C      1  0.4428500000000  0.4600000000000  0.5472750000000 1.0
C      1  0.5571400000000  0.5348230000000  0.5494370000000 1.0
C      1  0.4430130000000  0.5373400000000  0.4517530000000 1.0
C      1  0.4854360000000  0.4335470000000  0.4484090000000 1.0
C      1  0.5154110000000  0.4339140000000  0.5493830000000 1.0
C      1  0.5086760000000  0.4788490000000  0.5294960000000 1.0
C      1  0.4884070000000  0.4817860000000  0.4735310000000 1.0
C      1  0.5546410000000  0.4314890000000  0.5181330000000 1.0
C      1  0.4489570000000  0.4345090000000  0.4827440000000 1.0
C      1  0.5435170000000  0.5035030000000  0.4545680000000 1.0
C      1  0.4553100000000  0.5052390000000  0.5479250000000 1.0
C      1  0.5907070000000  0.5024060000000  0.4623160000000 1.0
C      1  0.4165800000000  0.4963070000000  0.5256970000000 1.0
C      1  0.5081080000000  0.5254420000000  0.5273430000000 1.0
C      1  0.4916260000000  0.5277390000000  0.4743730000000 1.0
C      1  0.4386610000000  0.5659930000000  0.5048790000000 1.0
C      1  0.5594670000000  0.5629370000000  0.4948460000000 1.0
C      1  0.4787970000000  0.4312870000000  0.4784650000000 1.0
C      1  0.5242810000000  0.4316600000000  0.5200760000000 1.0
C      1  0.4533930000000  0.5248430000000  0.5008760000000 1.0
C      1  0.5473050000000  0.5211240000000  0.5002560000000 1.0
C      1  0.4620840000000  0.5227230000000  0.4722830000000 1.0
C      1  0.5378560000000  0.5203560000000  0.5288240000000 1.0
C      1  0.5014140000000  0.5629260000000  0.5497900000000 1.0
C      1  0.4986600000000  0.5644520000000  0.4507220000000 1.0
C      1  0.5032690000000  0.5028430000000  0.4861590000000 1.0
C      1  0.4947570000000  0.5015660000000  0.5155690000000 1.0
C      1  0.4990730000000  0.5768100000000  0.5003060000000 1.0
END
