TITL C-3577084-3642-436 -4.6570260089885e-08 125000 -650.850296543274 0 0 105 (C1) n - 1
REM
REM in /home/bkarasulu/work/CARBON/AIRSS/Generating-Clusters/EDIP-Nigel-Params/with-SteepDescent/Higher-Symm/SD-CG/HFTN-CG
REM
REM
REM
REM
REM
REM ./C.cell (12c818d87b63d06a65506943cc24bca4)
REM
REM compiler GCC version 9.2.1 20190827 (Red Hat 9.2.1-1)
REM options -cpp -mtune=generic -march=x86-64 -g -O0 -fpre-include=/usr/include/finclude/math-vector-fortran.h
REM seed -1086193774 1168723505 -357486608 1903038767 1243133868 870955337 -998976726 -1314000645 723498920 868460496 -547916665 507944618 -1648784417 227142636 1710267642 1516219687 -1421635434 1628016984 -578467948 1856340653 -755482478 1313351055 -1369947718 113464038 2014462804 1079002172 -1649283060 -156674420 -559786273 1592260358 -1142900265 321855265 1030223830
REM
CELL 1.54180   50.00000   50.00000   50.00000   90.00000   90.00000   90.00000
LATT -1
SFAC C  
C      1  0.5597190000000  0.4619360000000  0.4618460000000 1.0
C      1  0.4961210000000  0.5074750000000  0.4019510000000 1.0
C      1  0.5058220000000  0.5863040000000  0.4601620000000 1.0
C      1  0.5238220000000  0.5084500000000  0.4061450000000 1.0
C      1  0.5243460000000  0.5008720000000  0.5829130000000 1.0
C      1  0.4395080000000  0.5438090000000  0.5116990000000 1.0
C      1  0.5212970000000  0.4673210000000  0.4688980000000 1.0
C      1  0.5002950000000  0.4813200000000  0.5400880000000 1.0
C      1  0.4526180000000  0.4369120000000  0.5234650000000 1.0
C      1  0.5694260000000  0.5432850000000  0.5356200000000 1.0
C      1  0.4790650000000  0.5784470000000  0.5452430000000 1.0
C      1  0.4930100000000  0.4274740000000  0.5510630000000 1.0
C      1  0.5037120000000  0.5198740000000  0.5371850000000 1.0
C      1  0.4638010000000  0.4358240000000  0.5507770000000 1.0
C      1  0.5701850000000  0.4837110000000  0.5708150000000 1.0
C      1  0.4955880000000  0.4540110000000  0.4807190000000 1.0
C      1  0.4568970000000  0.5341280000000  0.5580010000000 1.0
C      1  0.4810180000000  0.5264320000000  0.4212700000000 1.0
C      1  0.5739960000000  0.5496700000000  0.4720770000000 1.0
C      1  0.5557150000000  0.4015740000000  0.4833690000000 1.0
C      1  0.5283390000000  0.5319400000000  0.4765130000000 1.0
C      1  0.5422610000000  0.5240240000000  0.5747880000000 1.0
C      1  0.5176360000000  0.5893420000000  0.5104180000000 1.0
C      1  0.4611390000000  0.4602960000000  0.5677810000000 1.0
C      1  0.5722900000000  0.5009650000000  0.4787000000000 1.0
C      1  0.5729650000000  0.4767280000000  0.5233050000000 1.0
C      1  0.4970670000000  0.4646250000000  0.4278270000000 1.0
C      1  0.4742300000000  0.5001160000000  0.4394490000000 1.0
C      1  0.5336930000000  0.5739840000000  0.4545590000000 1.0
C      1  0.4216990000000  0.5405780000000  0.4830150000000 1.0
C      1  0.4599500000000  0.5186950000000  0.4792750000000 1.0
C      1  0.5062650000000  0.4477180000000  0.5681750000000 1.0
C      1  0.5503520000000  0.5642350000000  0.5316620000000 1.0
C      1  0.4097330000000  0.5126980000000  0.4828240000000 1.0
C      1  0.4493450000000  0.4848660000000  0.4275450000000 1.0
C      1  0.5520030000000  0.4357570000000  0.5577710000000 1.0
C      1  0.5311210000000  0.5710720000000  0.5532600000000 1.0
C      1  0.5422410000000  0.5249310000000  0.4471020000000 1.0
C      1  0.4887490000000  0.4609210000000  0.5159670000000 1.0
C      1  0.5141030000000  0.4815100000000  0.4442020000000 1.0
C      1  0.5268750000000  0.5488800000000  0.5767310000000 1.0
C      1  0.5319250000000  0.5100420000000  0.5281030000000 1.0
C      1  0.4557890000000  0.5871610000000  0.5317940000000 1.0
C      1  0.5931440000000  0.5490620000000  0.4921580000000 1.0
C      1  0.4882810000000  0.4103070000000  0.5039960000000 1.0
C      1  0.4045240000000  0.5000730000000  0.5084860000000 1.0
C      1  0.4321140000000  0.4993650000000  0.4677310000000 1.0
C      1  0.4134310000000  0.5153390000000  0.5427750000000 1.0
C      1  0.4971770000000  0.4109000000000  0.4752150000000 1.0
C      1  0.4997220000000  0.5472350000000  0.4363420000000 1.0
C      1  0.5410710000000  0.4792330000000  0.5698550000000 1.0
C      1  0.4299730000000  0.4449640000000  0.4839000000000 1.0
C      1  0.4287600000000  0.4507210000000  0.5128910000000 1.0
C      1  0.4606500000000  0.5213790000000  0.5086080000000 1.0
C      1  0.5477520000000  0.4355210000000  0.4544800000000 1.0
C      1  0.4873500000000  0.4666390000000  0.5793150000000 1.0
C      1  0.5410350000000  0.4090020000000  0.5060020000000 1.0
C      1  0.5348220000000  0.4502360000000  0.5748720000000 1.0
C      1  0.4882840000000  0.5297150000000  0.5143160000000 1.0
C      1  0.5011790000000  0.5358410000000  0.4633230000000 1.0
C      1  0.4491720000000  0.4601880000000  0.4427470000000 1.0
C      1  0.5693050000000  0.4201690000000  0.4670400000000 1.0
C      1  0.4303350000000  0.5040710000000  0.4383510000000 1.0
C      1  0.5038490000000  0.5439670000000  0.5575310000000 1.0
C      1  0.5393660000000  0.4826090000000  0.4882750000000 1.0
C      1  0.4713440000000  0.4737910000000  0.4834460000000 1.0
C      1  0.5557840000000  0.5191530000000  0.5462360000000 1.0
C      1  0.5456310000000  0.5594090000000  0.4787530000000 1.0
C      1  0.5826810000000  0.4789810000000  0.4955990000000 1.0
C      1  0.4213940000000  0.4785100000000  0.5193710000000 1.0
C      1  0.4501760000000  0.4855510000000  0.5582200000000 1.0
C      1  0.4312710000000  0.5383110000000  0.5417250000000 1.0
C      1  0.4238460000000  0.4881580000000  0.5465180000000 1.0
C      1  0.4431950000000  0.4684300000000  0.4705040000000 1.0
C      1  0.5300200000000  0.4333110000000  0.5158360000000 1.0
C      1  0.5321070000000  0.5008160000000  0.4317750000000 1.0
C      1  0.5472030000000  0.4504160000000  0.5326900000000 1.0
C      1  0.4735640000000  0.4221620000000  0.4602760000000 1.0
C      1  0.4638180000000  0.5081330000000  0.5698980000000 1.0
C      1  0.4805220000000  0.5618290000000  0.4995830000000 1.0
C      1  0.4370090000000  0.5485670000000  0.4557560000000 1.0
C      1  0.4486200000000  0.4204510000000  0.4790030000000 1.0
C      1  0.4759940000000  0.5452440000000  0.4746380000000 1.0
C      1  0.4450270000000  0.5285570000000  0.4351000000000 1.0
C      1  0.5306840000000  0.5516550000000  0.4340350000000 1.0
C      1  0.4788230000000  0.4985470000000  0.4702200000000 1.0
C      1  0.5077270000000  0.5829150000000  0.5379130000000 1.0
C      1  0.4568690000000  0.5711170000000  0.4546320000000 1.0
C      1  0.5903760000000  0.5418590000000  0.5176440000000 1.0
C      1  0.5257490000000  0.4241890000000  0.4734160000000 1.0
C      1  0.4768560000000  0.5554100000000  0.5628540000000 1.0
C      1  0.4971940000000  0.5856990000000  0.4898920000000 1.0
C      1  0.4843130000000  0.5735700000000  0.4418900000000 1.0
C      1  0.4935010000000  0.4954820000000  0.5723740000000 1.0
C      1  0.5425870000000  0.5744290000000  0.5053180000000 1.0
C      1  0.5316150000000  0.4794580000000  0.5398740000000 1.0
C      1  0.5812300000000  0.4542130000000  0.4803790000000 1.0
C      1  0.4539840000000  0.5701990000000  0.5096960000000 1.0
C      1  0.4768550000000  0.4498980000000  0.4467070000000 1.0
C      1  0.4875610000000  0.4801570000000  0.4057540000000 1.0
C      1  0.5703220000000  0.5232350000000  0.4592980000000 1.0
C      1  0.4593040000000  0.4145120000000  0.5059520000000 1.0
C      1  0.5329630000000  0.5097140000000  0.4976080000000 1.0
C      1  0.5006100000000  0.4320170000000  0.5215880000000 1.0
C      1  0.5746490000000  0.4954960000000  0.5457440000000 1.0
END
