TITL C-3578203-1966-652 6.5312168354669e-06 125000 -81.8063683798783 0 0 15 (C3v) n - 1
REM
REM in /home/bkarasulu/work/CARBON/AIRSS/Generating-Clusters/EDIP-Nigel-Params/with-SteepDescent/Higher-Symm/SD-CG/HFTN-CG
REM
REM
REM
REM
REM
REM ./C.cell (12c818d87b63d06a65506943cc24bca4)
REM
REM compiler GCC version 9.2.1 20190827 (Red Hat 9.2.1-1)
REM options -cpp -mtune=generic -march=x86-64 -g -O0 -fpre-include=/usr/include/finclude/math-vector-fortran.h
REM seed -597931002 -1645902574 -1212713193 -1722651343 831621378 -2040950209 -945466592 1972856749 -491528944 -1876278873 -1799602885 1939404298 -1496190929 442273065 1403949428 1502055908 2130065719 1760610673 750363842 40646774 464367945 -1847038649 -701736003 175109194 1300458968 212571174 1102922377 2067587352 1156335830 1482592181 -1789683986 1655438481 -1764864416
REM
CELL 1.54180   50.00000   50.00000   50.00000   90.00000   90.00000   90.00000
LATT -1
SFAC C  
C      1  0.5650190000000  0.4858740000000  0.4937440000000 1.0
C      1  0.4729070000000  0.4858680000000  0.5594340000000 1.0
C      1  0.4620730000000  0.4858810000000  0.4468180000000 1.0
C      1  0.4523710000000  0.5018760000000  0.4913070000000 1.0
C      1  0.5162860000000  0.5018690000000  0.5455950000000 1.0
C      1  0.5313430000000  0.5018780000000  0.4630990000000 1.0
C      1  0.4588460000000  0.5045520000000  0.5444820000000 1.0
C      1  0.4820550000000  0.5045640000000  0.4421200000000 1.0
C      1  0.5590990000000  0.5045550000000  0.5134000000000 1.0
C      1  0.5378030000000  0.5018710000000  0.5302500000000 1.0
C      1  0.5072950000000  0.5018800000000  0.4521370000000 1.0
C      1  0.4549010000000  0.5018730000000  0.5176140000000 1.0
C      1  0.4511210000000  0.5045620000000  0.4641800000000 1.0
C      1  0.5554610000000  0.5045590000000  0.4755800000000 1.0
C      1  0.4934180000000  0.5045500000000  0.5602410000000 1.0
END
