TITL C-3577079-311-769 -1.61266348369958e-07 125000 -249.652667293686 0 0 41 (Cs) n - 1
REM
REM in /home/bkarasulu/work/CARBON/AIRSS/Generating-Clusters/EDIP-Nigel-Params/with-SteepDescent/Higher-Symm/SD-CG/HFTN-CG
REM
REM
REM
REM
REM
REM ./C.cell (12c818d87b63d06a65506943cc24bca4)
REM
REM compiler GCC version 9.2.1 20190827 (Red Hat 9.2.1-1)
REM options -cpp -mtune=generic -march=x86-64 -g -O0 -fpre-include=/usr/include/finclude/math-vector-fortran.h
REM seed 1538341916 656238399 659317430 750285639 -382002323 822196251 -1323082349 -1734782140 -1303091331 -19239275 -60434905 1482888945 731745459 -397790276 -388842804 547626202 -204553665 2117734164 22856035 -926055205 590534530 -1052240004 236589561 567446497 -1420875289 75441904 -658833527 -541355777 624165183 -1473463458 -575153111 1509396183 -1891126243
REM
CELL 1.54180   50.00000   50.00000   50.00000   90.00000   90.00000   90.00000
LATT -1
SFAC C  
C      1  0.4438420000000  0.4929160000000  0.5502690000000 1.0
C      1  0.4441940000000  0.4520190000000  0.5109200000000 1.0
C      1  0.4417000000000  0.4725540000000  0.4601310000000 1.0
C      1  0.4387520000000  0.5333880000000  0.4638580000000 1.0
C      1  0.4434000000000  0.5438190000000  0.5215180000000 1.0
C      1  0.5550700000000  0.4938310000000  0.5512740000000 1.0
C      1  0.5561010000000  0.4529390000000  0.5119310000000 1.0
C      1  0.5591750000000  0.4735200000000  0.4611920000000 1.0
C      1  0.5610540000000  0.5343940000000  0.4649630000000 1.0
C      1  0.5551940000000  0.5447380000000  0.5225270000000 1.0
C      1  0.4852830000000  0.4649180000000  0.4873450000000 1.0
C      1  0.4807850000000  0.5052410000000  0.4584930000000 1.0
C      1  0.4819630000000  0.5454740000000  0.4893470000000 1.0
C      1  0.4849530000000  0.5153200000000  0.5295500000000 1.0
C      1  0.4842410000000  0.4651830000000  0.5371910000000 1.0
C      1  0.5152380000000  0.4651640000000  0.4876150000000 1.0
C      1  0.5195930000000  0.5055610000000  0.4588430000000 1.0
C      1  0.5171960000000  0.5457630000000  0.4896650000000 1.0
C      1  0.5139780000000  0.5155590000000  0.5298120000000 1.0
C      1  0.5153750000000  0.4654390000000  0.5374720000000 1.0
C      1  0.4302390000000  0.5214440000000  0.5115640000000 1.0
C      1  0.4304710000000  0.4962470000000  0.5260540000000 1.0
C      1  0.4275180000000  0.4741790000000  0.5070120000000 1.0
C      1  0.4277010000000  0.4862470000000  0.4801410000000 1.0
C      1  0.4297300000000  0.5153850000000  0.4832700000000 1.0
C      1  0.5688990000000  0.5225840000000  0.5128170000000 1.0
C      1  0.5688190000000  0.4973840000000  0.5273040000000 1.0
C      1  0.5724790000000  0.4753700000000  0.5083210000000 1.0
C      1  0.5725820000000  0.4874380000000  0.4814500000000 1.0
C      1  0.5700180000000  0.5165380000000  0.4845380000000 1.0
C      1  0.4714130000000  0.4926400000000  0.5436010000000 1.0
C      1  0.4724470000000  0.4527480000000  0.5113760000000 1.0
C      1  0.4688470000000  0.4780990000000  0.4655410000000 1.0
C      1  0.4669620000000  0.5319350000000  0.4656090000000 1.0
C      1  0.4709410000000  0.5385960000000  0.5168670000000 1.0
C      1  0.5276320000000  0.4931020000000  0.5441090000000 1.0
C      1  0.5278370000000  0.4532030000000  0.5118760000000 1.0
C      1  0.5318470000000  0.4786170000000  0.4661100000000 1.0
C      1  0.5328440000000  0.5324770000000  0.4662040000000 1.0
C      1  0.5278320000000  0.5390630000000  0.5173810000000 1.0
C      1  0.4999880000000  0.5061640000000  0.4802300000000 1.0
END
