TITL C-3577079-311-502 -1.51652799710612e-06 125000 -1241.41575474156 0 0 196 (C1) n - 1
REM
REM in /home/bkarasulu/work/CARBON/AIRSS/Generating-Clusters/EDIP-Nigel-Params/with-SteepDescent/Higher-Symm/SD-CG/HFTN-CG
REM
REM
REM
REM
REM
REM ./C.cell (12c818d87b63d06a65506943cc24bca4)
REM
REM compiler GCC version 9.2.1 20190827 (Red Hat 9.2.1-1)
REM options -cpp -mtune=generic -march=x86-64 -g -O0 -fpre-include=/usr/include/finclude/math-vector-fortran.h
REM seed 1991160554 -1958835134 845072686 1385453229 -1388741990 -275079125 -929642359 606199987 1916907528 -496965632 -351212042 -508324496 -177205763 -1102185936 -1223859484 -184960326 -1355775145 -224004034 1503258579 517622630 1834450351 999014306 -1503066629 1687713455 1354792785 550883751 1711699510 -1069896069 181885815 -1990164606 -1729650328 1126569114 -1043722147
REM
CELL 1.54180   50.00000   50.00000   50.00000   90.00000   90.00000   90.00000
LATT -1
SFAC C  
C      1  0.5688290000000  0.5367870000000  0.5832670000000 1.0
C      1  0.5721470000000  0.5365330000000  0.4127070000000 1.0
C      1  0.5311830000000  0.4120640000000  0.5762400000000 1.0
C      1  0.5447980000000  0.4230700000000  0.4251470000000 1.0
C      1  0.4955700000000  0.5126920000000  0.6167320000000 1.0
C      1  0.4988980000000  0.5148120000000  0.3778690000000 1.0
C      1  0.5554490000000  0.6098610000000  0.4867670000000 1.0
C      1  0.5566450000000  0.6155520000000  0.5154050000000 1.0
C      1  0.5379920000000  0.4400490000000  0.4013540000000 1.0
C      1  0.5318560000000  0.4369380000000  0.5930290000000 1.0
C      1  0.4087710000000  0.4449600000000  0.4745760000000 1.0
C      1  0.3985480000000  0.4430170000000  0.5347730000000 1.0
C      1  0.4394180000000  0.4092090000000  0.4846940000000 1.0
C      1  0.4378500000000  0.4145250000000  0.5147110000000 1.0
C      1  0.5763240000000  0.5736660000000  0.4552480000000 1.0
C      1  0.5766590000000  0.5773900000000  0.5447640000000 1.0
C      1  0.5751080000000  0.4219660000000  0.5221520000000 1.0
C      1  0.5729770000000  0.4214020000000  0.4753710000000 1.0
C      1  0.5155700000000  0.4037380000000  0.4424710000000 1.0
C      1  0.5077780000000  0.4029270000000  0.5619220000000 1.0
C      1  0.5009090000000  0.5905520000000  0.5664500000000 1.0
C      1  0.5048820000000  0.5915260000000  0.4284170000000 1.0
C      1  0.3839740000000  0.5297880000000  0.5154390000000 1.0
C      1  0.3822010000000  0.5284680000000  0.4837150000000 1.0
C      1  0.4079160000000  0.4852740000000  0.5583830000000 1.0
C      1  0.4119020000000  0.4915790000000  0.4443010000000 1.0
C      1  0.6037970000000  0.4597520000000  0.5230020000000 1.0
C      1  0.6033600000000  0.4587030000000  0.4716410000000 1.0
C      1  0.5049620000000  0.5651280000000  0.5823320000000 1.0
C      1  0.5075370000000  0.5687020000000  0.4089710000000 1.0
C      1  0.5098210000000  0.4937970000000  0.5117320000000 1.0
C      1  0.5043610000000  0.4984090000000  0.4803310000000 1.0
C      1  0.4656140000000  0.4116350000000  0.5268580000000 1.0
C      1  0.4682780000000  0.4116880000000  0.4755640000000 1.0
C      1  0.5364050000000  0.3856220000000  0.4876020000000 1.0
C      1  0.5351410000000  0.3858930000000  0.5196750000000 1.0
C      1  0.4776300000000  0.5061650000000  0.4311650000000 1.0
C      1  0.4719510000000  0.4979680000000  0.5741580000000 1.0
C      1  0.5112620000000  0.3859360000000  0.4707190000000 1.0
C      1  0.5086740000000  0.3894720000000  0.5339430000000 1.0
C      1  0.5221650000000  0.5715500000000  0.4705280000000 1.0
C      1  0.5217400000000  0.5708750000000  0.5295680000000 1.0
C      1  0.4067880000000  0.5138710000000  0.5556740000000 1.0
C      1  0.4078800000000  0.5197570000000  0.4439660000000 1.0
C      1  0.5104740000000  0.4484060000000  0.5314000000000 1.0
C      1  0.5079600000000  0.4472560000000  0.4663890000000 1.0
C      1  0.4846640000000  0.4810830000000  0.4453960000000 1.0
C      1  0.4832490000000  0.4661680000000  0.5720270000000 1.0
C      1  0.4953360000000  0.5182170000000  0.4083650000000 1.0
C      1  0.4917290000000  0.5162890000000  0.5872200000000 1.0
C      1  0.5765800000000  0.4508690000000  0.4811420000000 1.0
C      1  0.5769080000000  0.4516380000000  0.5134860000000 1.0
C      1  0.4570650000000  0.5362880000000  0.5124360000000 1.0
C      1  0.4612160000000  0.5326900000000  0.4833190000000 1.0
C      1  0.5450150000000  0.4149860000000  0.4823370000000 1.0
C      1  0.5465130000000  0.4148140000000  0.5194560000000 1.0
C      1  0.4566920000000  0.6056360000000  0.4714770000000 1.0
C      1  0.4576210000000  0.6045060000000  0.5307450000000 1.0
C      1  0.4491040000000  0.5744240000000  0.5708840000000 1.0
C      1  0.4537800000000  0.5761230000000  0.4291280000000 1.0
C      1  0.5275050000000  0.4255890000000  0.4598970000000 1.0
C      1  0.5345490000000  0.4303430000000  0.5424560000000 1.0
C      1  0.5762850000000  0.6000940000000  0.5284310000000 1.0
C      1  0.5758060000000  0.5912860000000  0.4781310000000 1.0
C      1  0.3910850000000  0.4701030000000  0.5408360000000 1.0
C      1  0.4074390000000  0.4828620000000  0.4720190000000 1.0
C      1  0.5366960000000  0.5090020000000  0.4403310000000 1.0
C      1  0.5346210000000  0.5102030000000  0.5537360000000 1.0
C      1  0.4934820000000  0.5367260000000  0.4493150000000 1.0
C      1  0.4879250000000  0.5306760000000  0.5440090000000 1.0
C      1  0.5076910000000  0.4411000000000  0.6080750000000 1.0
C      1  0.5107980000000  0.4421180000000  0.3925460000000 1.0
C      1  0.5734770000000  0.4264980000000  0.4312520000000 1.0
C      1  0.5629630000000  0.4383420000000  0.5615150000000 1.0
C      1  0.4322490000000  0.5254440000000  0.4738770000000 1.0
C      1  0.4317560000000  0.5238330000000  0.5274970000000 1.0
C      1  0.4788600000000  0.4393170000000  0.5186830000000 1.0
C      1  0.4790710000000  0.4397480000000  0.4860460000000 1.0
C      1  0.4384710000000  0.5307500000000  0.5900930000000 1.0
C      1  0.4422360000000  0.5304330000000  0.4111120000000 1.0
C      1  0.4589070000000  0.4676740000000  0.4504720000000 1.0
C      1  0.4560620000000  0.4597790000000  0.5582970000000 1.0
C      1  0.5317470000000  0.6149230000000  0.4695240000000 1.0
C      1  0.5311830000000  0.6174510000000  0.5307450000000 1.0
C      1  0.4297590000000  0.4979220000000  0.4878070000000 1.0
C      1  0.4201010000000  0.4964500000000  0.5160380000000 1.0
C      1  0.5555450000000  0.4870450000000  0.5875960000000 1.0
C      1  0.5575360000000  0.4873410000000  0.4073060000000 1.0
C      1  0.5335680000000  0.5281200000000  0.3885070000000 1.0
C      1  0.5300860000000  0.5266910000000  0.6063050000000 1.0
C      1  0.5482220000000  0.4654930000000  0.3898060000000 1.0
C      1  0.5459140000000  0.4627800000000  0.6033510000000 1.0
C      1  0.4112020000000  0.5445880000000  0.5162350000000 1.0
C      1  0.4119970000000  0.5451500000000  0.4845290000000 1.0
C      1  0.4183220000000  0.5711220000000  0.5298210000000 1.0
C      1  0.4207240000000  0.5713750000000  0.4709590000000 1.0
C      1  0.4311600000000  0.4520540000000  0.4921950000000 1.0
C      1  0.4277140000000  0.4636250000000  0.5194750000000 1.0
C      1  0.5832500000000  0.4107980000000  0.4518060000000 1.0
C      1  0.5825490000000  0.4204410000000  0.5497370000000 1.0
C      1  0.4650050000000  0.4528010000000  0.4036010000000 1.0
C      1  0.4586280000000  0.4457200000000  0.6060250000000 1.0
C      1  0.4575910000000  0.4610310000000  0.5297570000000 1.0
C      1  0.4572440000000  0.4606580000000  0.4795190000000 1.0
C      1  0.4905810000000  0.4157720000000  0.4298370000000 1.0
C      1  0.4834800000000  0.4145850000000  0.5731600000000 1.0
C      1  0.4782230000000  0.5524010000000  0.4693080000000 1.0
C      1  0.4773370000000  0.5507870000000  0.5265390000000 1.0
C      1  0.4353580000000  0.4212990000000  0.5647340000000 1.0
C      1  0.4422670000000  0.4278470000000  0.4400380000000 1.0
C      1  0.5253930000000  0.4660730000000  0.4811580000000 1.0
C      1  0.5252490000000  0.4677710000000  0.5121810000000 1.0
C      1  0.4607610000000  0.4095370000000  0.5564460000000 1.0
C      1  0.4666130000000  0.4125530000000  0.4458090000000 1.0
C      1  0.4609950000000  0.5539840000000  0.4106990000000 1.0
C      1  0.4589410000000  0.5525620000000  0.5877580000000 1.0
C      1  0.4877630000000  0.5995030000000  0.5266100000000 1.0
C      1  0.4855530000000  0.6004700000000  0.4752520000000 1.0
C      1  0.5737080000000  0.5446610000000  0.4623310000000 1.0
C      1  0.5696820000000  0.5502700000000  0.5320250000000 1.0
C      1  0.5284090000000  0.5914210000000  0.4487450000000 1.0
C      1  0.5275520000000  0.5922810000000  0.5491860000000 1.0
C      1  0.4202690000000  0.5360760000000  0.5679290000000 1.0
C      1  0.4249560000000  0.5388680000000  0.4325140000000 1.0
C      1  0.5182340000000  0.5194650000000  0.4627970000000 1.0
C      1  0.5157770000000  0.5172300000000  0.5301120000000 1.0
C      1  0.5122390000000  0.4668820000000  0.6196170000000 1.0
C      1  0.5122970000000  0.4667660000000  0.3769500000000 1.0
C      1  0.4851240000000  0.5438700000000  0.5770610000000 1.0
C      1  0.4889330000000  0.5469970000000  0.4165700000000 1.0
C      1  0.4219860000000  0.4216670000000  0.4617240000000 1.0
C      1  0.4208400000000  0.4245210000000  0.5382770000000 1.0
C      1  0.5526540000000  0.4701660000000  0.5249340000000 1.0
C      1  0.5522630000000  0.4680820000000  0.4682090000000 1.0
C      1  0.5058570000000  0.6215910000000  0.5149490000000 1.0
C      1  0.5059350000000  0.6213000000000  0.4842300000000 1.0
C      1  0.5857800000000  0.5021550000000  0.4435060000000 1.0
C      1  0.5833150000000  0.5059620000000  0.5510470000000 1.0
C      1  0.5384850000000  0.4795790000000  0.5531090000000 1.0
C      1  0.5385560000000  0.4777200000000  0.4406640000000 1.0
C      1  0.3833460000000  0.4970230000000  0.4851290000000 1.0
C      1  0.3893270000000  0.4990380000000  0.5154310000000 1.0
C      1  0.5892510000000  0.5337010000000  0.5122740000000 1.0
C      1  0.5910470000000  0.5316330000000  0.4824900000000 1.0
C      1  0.4303240000000  0.5652710000000  0.4435960000000 1.0
C      1  0.4256810000000  0.5631960000000  0.5572260000000 1.0
C      1  0.4590150000000  0.4877810000000  0.4932590000000 1.0
C      1  0.4677180000000  0.4872960000000  0.5229750000000 1.0
C      1  0.5468990000000  0.5667680000000  0.4869530000000 1.0
C      1  0.5435720000000  0.5570780000000  0.5167800000000 1.0
C      1  0.4837430000000  0.4400360000000  0.5909060000000 1.0
C      1  0.4925040000000  0.4429110000000  0.4157720000000 1.0
C      1  0.5949930000000  0.5079940000000  0.5248750000000 1.0
C      1  0.5951010000000  0.5053820000000  0.4705410000000 1.0
C      1  0.4756390000000  0.5958600000000  0.4388050000000 1.0
C      1  0.4685610000000  0.5958470000000  0.5603650000000 1.0
C      1  0.5672850000000  0.5245840000000  0.4396820000000 1.0
C      1  0.5637080000000  0.5273940000000  0.5551200000000 1.0
C      1  0.4370490000000  0.4355320000000  0.5900450000000 1.0
C      1  0.4397590000000  0.4462120000000  0.4173480000000 1.0
C      1  0.5364430000000  0.5313220000000  0.4814060000000 1.0
C      1  0.5315650000000  0.5323040000000  0.5100050000000 1.0
C      1  0.5570980000000  0.5628460000000  0.4115150000000 1.0
C      1  0.5546520000000  0.5630270000000  0.5867070000000 1.0
C      1  0.4754460000000  0.5067860000000  0.4798670000000 1.0
C      1  0.4679110000000  0.5079460000000  0.5449350000000 1.0
C      1  0.4951340000000  0.5728360000000  0.4833600000000 1.0
C      1  0.4953380000000  0.5718580000000  0.5153540000000 1.0
C      1  0.5616080000000  0.5156340000000  0.3935080000000 1.0
C      1  0.5579170000000  0.5150930000000  0.6015930000000 1.0
C      1  0.5197910000000  0.5119700000000  0.5796710000000 1.0
C      1  0.5231280000000  0.5142710000000  0.4148340000000 1.0
C      1  0.4484290000000  0.5028560000000  0.5923590000000 1.0
C      1  0.4533010000000  0.5007030000000  0.4139490000000 1.0
C      1  0.5852370000000  0.4568830000000  0.5628430000000 1.0
C      1  0.5843740000000  0.4522730000000  0.4291880000000 1.0
C      1  0.4314810000000  0.4721990000000  0.5664370000000 1.0
C      1  0.4374030000000  0.4809980000000  0.4318800000000 1.0
C      1  0.6076930000000  0.4838000000000  0.4833300000000 1.0
C      1  0.6066590000000  0.4849160000000  0.5118260000000 1.0
C      1  0.4889890000000  0.4845170000000  0.6216480000000 1.0
C      1  0.4908530000000  0.4866900000000  0.3774060000000 1.0
C      1  0.5791680000000  0.4836200000000  0.5697830000000 1.0
C      1  0.5798250000000  0.4797220000000  0.4252920000000 1.0
C      1  0.5287130000000  0.5563460000000  0.5981180000000 1.0
C      1  0.5328250000000  0.5582170000000  0.3961630000000 1.0
C      1  0.5545700000000  0.5825750000000  0.5637180000000 1.0
C      1  0.5555840000000  0.5811440000000  0.4356080000000 1.0
C      1  0.5088180000000  0.4666300000000  0.5545570000000 1.0
C      1  0.5065940000000  0.4628080000000  0.4389180000000 1.0
C      1  0.4849780000000  0.3911270000000  0.5163340000000 1.0
C      1  0.4868300000000  0.3914160000000  0.4867510000000 1.0
C      1  0.4384280000000  0.5878220000000  0.5155870000000 1.0
C      1  0.4370600000000  0.5903780000000  0.4862170000000 1.0
C      1  0.4658010000000  0.4806460000000  0.3926090000000 1.0
C      1  0.4620620000000  0.4744490000000  0.6133180000000 1.0
END
