TITL C-3578204-4308-313 -2.83172122126667e-06 125000 -804.711928839274 0 0 130 (C1) n - 1
REM
REM in /home/bkarasulu/work/CARBON/AIRSS/Generating-Clusters/EDIP-Nigel-Params/with-SteepDescent/Higher-Symm/SD-CG/HFTN-CG
REM
REM
REM
REM
REM
REM ./C.cell (12c818d87b63d06a65506943cc24bca4)
REM
REM compiler GCC version 9.2.1 20190827 (Red Hat 9.2.1-1)
REM options -cpp -mtune=generic -march=x86-64 -g -O0 -fpre-include=/usr/include/finclude/math-vector-fortran.h
REM seed 1977409579 -263466931 -562175820 1115988226 1405504547 1985257889 -1060312633 1780808662 46942203 281301434 -1429419975 6087217 761956745 -2018978780 -243103949 1808354015 -506844709 1780641905 409118746 916719046 1410924960 706774131 1163937088 2086487125 -229657414 1354294187 -2024995845 1899823906 467334578 -617610148 722162043 -2126165473 -290766048
REM
CELL 1.54180   50.00000   50.00000   50.00000   90.00000   90.00000   90.00000
LATT -1
SFAC C  
C      1  0.4912390000000  0.4297120000000  0.4427360000000 1.0
C      1  0.5160840000000  0.4404230000000  0.5415160000000 1.0
C      1  0.4484760000000  0.4246940000000  0.4642340000000 1.0
C      1  0.5545480000000  0.4936000000000  0.5734950000000 1.0
C      1  0.5506590000000  0.5002110000000  0.4200550000000 1.0
C      1  0.4666390000000  0.5297200000000  0.5205910000000 1.0
C      1  0.5302330000000  0.4771120000000  0.5078680000000 1.0
C      1  0.4596960000000  0.5792790000000  0.5267660000000 1.0
C      1  0.5312780000000  0.4134770000000  0.5104120000000 1.0
C      1  0.4199550000000  0.5343630000000  0.5178060000000 1.0
C      1  0.5878230000000  0.5105870000000  0.4941160000000 1.0
C      1  0.5474140000000  0.4409680000000  0.4795160000000 1.0
C      1  0.4466490000000  0.5659840000000  0.4826280000000 1.0
C      1  0.5157570000000  0.5449640000000  0.4072300000000 1.0
C      1  0.5218480000000  0.4031020000000  0.4652490000000 1.0
C      1  0.4643050000000  0.4221510000000  0.5202360000000 1.0
C      1  0.5418290000000  0.4125760000000  0.4833220000000 1.0
C      1  0.5534680000000  0.4738320000000  0.4339380000000 1.0
C      1  0.4866790000000  0.5408660000000  0.4117940000000 1.0
C      1  0.4185980000000  0.4875910000000  0.5003160000000 1.0
C      1  0.4810390000000  0.4834550000000  0.5724320000000 1.0
C      1  0.4824120000000  0.5173490000000  0.4483410000000 1.0
C      1  0.5118980000000  0.5878940000000  0.5247950000000 1.0
C      1  0.4807110000000  0.4849680000000  0.4442610000000 1.0
C      1  0.4860470000000  0.3991240000000  0.4794440000000 1.0
C      1  0.5115860000000  0.5134650000000  0.5447700000000 1.0
C      1  0.5615920000000  0.5563910000000  0.5646310000000 1.0
C      1  0.4448390000000  0.5501100000000  0.5288380000000 1.0
C      1  0.5330410000000  0.5511090000000  0.4305670000000 1.0
C      1  0.4245990000000  0.4583100000000  0.5104470000000 1.0
C      1  0.4253310000000  0.5046910000000  0.5238130000000 1.0
C      1  0.4141560000000  0.5030330000000  0.4521290000000 1.0
C      1  0.4284250000000  0.4773540000000  0.4453530000000 1.0
C      1  0.4924230000000  0.4476790000000  0.4668010000000 1.0
C      1  0.5128530000000  0.5992720000000  0.4766260000000 1.0
C      1  0.5517540000000  0.5802870000000  0.5497420000000 1.0
C      1  0.5329980000000  0.5012550000000  0.3965350000000 1.0
C      1  0.4737590000000  0.5560010000000  0.5616560000000 1.0
C      1  0.5811740000000  0.4831890000000  0.5736850000000 1.0
C      1  0.4706330000000  0.5173290000000  0.4054380000000 1.0
C      1  0.4347150000000  0.4938860000000  0.5710250000000 1.0
C      1  0.5357030000000  0.5665300000000  0.4792980000000 1.0
C      1  0.4778710000000  0.5104670000000  0.5845590000000 1.0
C      1  0.5335720000000  0.4731130000000  0.5666070000000 1.0
C      1  0.4854730000000  0.5829690000000  0.5124050000000 1.0
C      1  0.5891140000000  0.5402710000000  0.4986500000000 1.0
C      1  0.5483440000000  0.5248330000000  0.4391220000000 1.0
C      1  0.4561210000000  0.4796080000000  0.5546690000000 1.0
C      1  0.4108240000000  0.5347670000000  0.4890260000000 1.0
C      1  0.4624140000000  0.4009630000000  0.4992290000000 1.0
C      1  0.4439330000000  0.5128890000000  0.4184990000000 1.0
C      1  0.5257780000000  0.4669030000000  0.5939100000000 1.0
C      1  0.4850110000000  0.4457040000000  0.4165800000000 1.0
C      1  0.4550630000000  0.4752440000000  0.4611450000000 1.0
C      1  0.4466950000000  0.5437090000000  0.5653350000000 1.0
C      1  0.5273790000000  0.5275170000000  0.3885830000000 1.0
C      1  0.4571310000000  0.4962380000000  0.4807850000000 1.0
C      1  0.5039620000000  0.5255450000000  0.4696650000000 1.0
C      1  0.4398630000000  0.4829280000000  0.4186980000000 1.0
C      1  0.5472250000000  0.5392450000000  0.4839000000000 1.0
C      1  0.4795990000000  0.4637450000000  0.5940630000000 1.0
C      1  0.5423670000000  0.5017310000000  0.5991190000000 1.0
C      1  0.5276380000000  0.5261190000000  0.5949630000000 1.0
C      1  0.4385380000000  0.4226820000000  0.5357930000000 1.0
C      1  0.5698150000000  0.4497660000000  0.5375110000000 1.0
C      1  0.5073670000000  0.4850840000000  0.5535950000000 1.0
C      1  0.5107620000000  0.5469770000000  0.5105180000000 1.0
C      1  0.5343300000000  0.5895060000000  0.5036620000000 1.0
C      1  0.5027680000000  0.4490850000000  0.5903430000000 1.0
C      1  0.5727660000000  0.4555290000000  0.4764530000000 1.0
C      1  0.4842000000000  0.5727090000000  0.4491520000000 1.0
C      1  0.5357800000000  0.5407230000000  0.5693790000000 1.0
C      1  0.4730990000000  0.5516530000000  0.4337740000000 1.0
C      1  0.4338010000000  0.5253670000000  0.4462780000000 1.0
C      1  0.4213100000000  0.4253640000000  0.5091440000000 1.0
C      1  0.5058960000000  0.4677380000000  0.5287020000000 1.0
C      1  0.4551100000000  0.5013130000000  0.5291530000000 1.0
C      1  0.4495950000000  0.5189490000000  0.5803260000000 1.0
C      1  0.4067480000000  0.5062060000000  0.4804380000000 1.0
C      1  0.4138660000000  0.4922480000000  0.5489960000000 1.0
C      1  0.4581700000000  0.5214780000000  0.4663070000000 1.0
C      1  0.4168580000000  0.4630050000000  0.5399190000000 1.0
C      1  0.5230050000000  0.5786620000000  0.5505030000000 1.0
C      1  0.4822610000000  0.4917000000000  0.3961380000000 1.0
C      1  0.5963710000000  0.4910930000000  0.5389960000000 1.0
C      1  0.4875080000000  0.5676720000000  0.5838510000000 1.0
C      1  0.5605960000000  0.5812820000000  0.5209780000000 1.0
C      1  0.5120740000000  0.4571570000000  0.4100650000000 1.0
C      1  0.5708160000000  0.5515980000000  0.5213700000000 1.0
C      1  0.4775500000000  0.4724070000000  0.5168730000000 1.0
C      1  0.4996310000000  0.5127300000000  0.4960340000000 1.0
C      1  0.5197740000000  0.4199420000000  0.4417790000000 1.0
C      1  0.4633300000000  0.4491020000000  0.4750760000000 1.0
C      1  0.5761760000000  0.5283410000000  0.4510480000000 1.0
C      1  0.4687660000000  0.5834810000000  0.5535990000000 1.0
C      1  0.4851850000000  0.5962380000000  0.4867440000000 1.0
C      1  0.4648770000000  0.5854550000000  0.4682500000000 1.0
C      1  0.5098550000000  0.4701980000000  0.4560830000000 1.0
C      1  0.4935720000000  0.5362860000000  0.5345240000000 1.0
C      1  0.4813100000000  0.4914560000000  0.4952400000000 1.0
C      1  0.4362940000000  0.4093610000000  0.4871620000000 1.0
C      1  0.5281240000000  0.4550940000000  0.4348110000000 1.0
C      1  0.4995870000000  0.5235130000000  0.5972600000000 1.0
C      1  0.5006250000000  0.4333700000000  0.5656140000000 1.0
C      1  0.5753350000000  0.5478360000000  0.4733660000000 1.0
C      1  0.5618980000000  0.4799620000000  0.4624500000000 1.0
C      1  0.5501540000000  0.4938550000000  0.5225410000000 1.0
C      1  0.4939860000000  0.5532410000000  0.4810870000000 1.0
C      1  0.4651610000000  0.5431610000000  0.4877830000000 1.0
C      1  0.5144370000000  0.5712220000000  0.5771170000000 1.0
C      1  0.5908390000000  0.4657600000000  0.5523090000000 1.0
C      1  0.5221970000000  0.5706280000000  0.4519900000000 1.0
C      1  0.4720900000000  0.4093780000000  0.4538160000000 1.0
C      1  0.5051930000000  0.4026680000000  0.5123040000000 1.0
C      1  0.4241610000000  0.5527130000000  0.4690180000000 1.0
C      1  0.5403790000000  0.5170220000000  0.5389850000000 1.0
C      1  0.4693570000000  0.4732320000000  0.4168480000000 1.0
C      1  0.5793900000000  0.4902360000000  0.5148020000000 1.0
C      1  0.5829320000000  0.4625760000000  0.5032590000000 1.0
C      1  0.5098870000000  0.4848320000000  0.4020670000000 1.0
C      1  0.5431290000000  0.4490760000000  0.5083360000000 1.0
C      1  0.4371180000000  0.4468130000000  0.5525080000000 1.0
C      1  0.5433600000000  0.5372040000000  0.5158100000000 1.0
C      1  0.5810160000000  0.5037340000000  0.4664160000000 1.0
C      1  0.5438620000000  0.4481580000000  0.5525300000000 1.0
C      1  0.5329470000000  0.4866320000000  0.4746880000000 1.0
C      1  0.5332780000000  0.5179570000000  0.4659850000000 1.0
C      1  0.4593980000000  0.4504850000000  0.5060620000000 1.0
C      1  0.5808320000000  0.5443920000000  0.5479670000000 1.0
C      1  0.4893600000000  0.4133030000000  0.5345540000000 1.0
END
