TITL C-3577082-504-103 3.61373230923341e-06 125000 -763.641436245218 0 0 122 (C1) n - 1
REM
REM in /home/bkarasulu/work/CARBON/AIRSS/Generating-Clusters/EDIP-Nigel-Params/with-SteepDescent/Higher-Symm/SD-CG/HFTN-CG
REM
REM
REM
REM
REM
REM ./C.cell (12c818d87b63d06a65506943cc24bca4)
REM
REM compiler GCC version 9.2.1 20190827 (Red Hat 9.2.1-1)
REM options -cpp -mtune=generic -march=x86-64 -g -O0 -fpre-include=/usr/include/finclude/math-vector-fortran.h
REM seed 725455960 -193497027 -22384801 -2061021680 -1256907030 -1187199473 -30291087 46870493 1290376985 626744659 2136739576 -785104743 1587111042 -1943028696 -1939177840 -707558814 -1314818667 1466932561 -611167686 1810727477 641891472 -1387985608 429277685 252977547 -1204287818 -1489139145 -285115706 910652636 1155809023 -1365380306 -1546403332 339070716 -1732637020
REM
CELL 1.54180   50.00000   50.00000   50.00000   90.00000   90.00000   90.00000
LATT -1
SFAC C  
C      1  0.5850700000000  0.4525000000000  0.4822950000000 1.0
C      1  0.5192890000000  0.5396300000000  0.5854360000000 1.0
C      1  0.5480630000000  0.4884660000000  0.4224360000000 1.0
C      1  0.4285130000000  0.5701280000000  0.4927300000000 1.0
C      1  0.5335870000000  0.4963080000000  0.5005400000000 1.0
C      1  0.5040620000000  0.3947530000000  0.5221880000000 1.0
C      1  0.5017180000000  0.5206240000000  0.4516600000000 1.0
C      1  0.4563710000000  0.5316620000000  0.4750350000000 1.0
C      1  0.5157480000000  0.5492480000000  0.5060640000000 1.0
C      1  0.4306380000000  0.5616650000000  0.5219210000000 1.0
C      1  0.4597710000000  0.4899560000000  0.4280070000000 1.0
C      1  0.4663220000000  0.4100560000000  0.4915730000000 1.0
C      1  0.4593620000000  0.5005230000000  0.5246000000000 1.0
C      1  0.4618530000000  0.5856500000000  0.4599310000000 1.0
C      1  0.4257150000000  0.5300070000000  0.4435030000000 1.0
C      1  0.5329600000000  0.4672610000000  0.5108710000000 1.0
C      1  0.4522890000000  0.4214230000000  0.4672190000000 1.0
C      1  0.5044770000000  0.4387560000000  0.5379330000000 1.0
C      1  0.5483140000000  0.5198500000000  0.5176150000000 1.0
C      1  0.4721140000000  0.5778540000000  0.5074710000000 1.0
C      1  0.4724330000000  0.5676110000000  0.5551090000000 1.0
C      1  0.4375770000000  0.5008860000000  0.4470240000000 1.0
C      1  0.5825530000000  0.5518610000000  0.5022610000000 1.0
C      1  0.5688970000000  0.4549770000000  0.4597440000000 1.0
C      1  0.5825450000000  0.5275230000000  0.4456680000000 1.0
C      1  0.4929480000000  0.4963250000000  0.4687860000000 1.0
C      1  0.4360600000000  0.4996580000000  0.4986920000000 1.0
C      1  0.5038510000000  0.4605930000000  0.4292310000000 1.0
C      1  0.4624870000000  0.5011380000000  0.6010230000000 1.0
C      1  0.5395140000000  0.4931990000000  0.4699970000000 1.0
C      1  0.4738920000000  0.4627390000000  0.4337830000000 1.0
C      1  0.4527100000000  0.5860710000000  0.4876720000000 1.0
C      1  0.4923300000000  0.5605810000000  0.4315200000000 1.0
C      1  0.4736330000000  0.4353830000000  0.4499680000000 1.0
C      1  0.6032930000000  0.5045660000000  0.5060100000000 1.0
C      1  0.4884400000000  0.5036620000000  0.5914150000000 1.0
C      1  0.5243580000000  0.4275150000000  0.4742180000000 1.0
C      1  0.5719560000000  0.5194020000000  0.5375230000000 1.0
C      1  0.4992060000000  0.4801060000000  0.5775380000000 1.0
C      1  0.4611230000000  0.5594880000000  0.5283520000000 1.0
C      1  0.4758150000000  0.5124430000000  0.4163250000000 1.0
C      1  0.5463250000000  0.4210480000000  0.5247250000000 1.0
C      1  0.5180540000000  0.4556760000000  0.4856160000000 1.0
C      1  0.5579640000000  0.4757530000000  0.5575520000000 1.0
C      1  0.4705930000000  0.5400870000000  0.4266200000000 1.0
C      1  0.5020210000000  0.5212010000000  0.5457400000000 1.0
C      1  0.5116850000000  0.5877900000000  0.4766820000000 1.0
C      1  0.5191640000000  0.5535910000000  0.4248790000000 1.0
C      1  0.5424810000000  0.5211650000000  0.5780110000000 1.0
C      1  0.5361990000000  0.4913460000000  0.5715930000000 1.0
C      1  0.4424640000000  0.5268530000000  0.5657270000000 1.0
C      1  0.5613480000000  0.5356220000000  0.5603970000000 1.0
C      1  0.4931710000000  0.5319240000000  0.5000100000000 1.0
C      1  0.5410040000000  0.5783280000000  0.4776670000000 1.0
C      1  0.4766300000000  0.4645080000000  0.5653150000000 1.0
C      1  0.5859900000000  0.5020250000000  0.4554420000000 1.0
C      1  0.4886260000000  0.5719630000000  0.4597230000000 1.0
C      1  0.4013750000000  0.4672020000000  0.4310070000000 1.0
C      1  0.5178500000000  0.4292810000000  0.5633210000000 1.0
C      1  0.4429710000000  0.5752590000000  0.4417220000000 1.0
C      1  0.4234210000000  0.5176890000000  0.5439180000000 1.0
C      1  0.5227430000000  0.5299920000000  0.4086780000000 1.0
C      1  0.5150150000000  0.5860990000000  0.5298890000000 1.0
C      1  0.4543010000000  0.4827010000000  0.5549710000000 1.0
C      1  0.4294430000000  0.4555590000000  0.4978560000000 1.0
C      1  0.5456360000000  0.4240250000000  0.5552260000000 1.0
C      1  0.4155130000000  0.4791810000000  0.4963190000000 1.0
C      1  0.4876490000000  0.4321100000000  0.4913870000000 1.0
C      1  0.5120950000000  0.4905320000000  0.5519860000000 1.0
C      1  0.4295660000000  0.4394340000000  0.4731140000000 1.0
C      1  0.5585630000000  0.5368410000000  0.4956720000000 1.0
C      1  0.4180690000000  0.5237860000000  0.4965880000000 1.0
C      1  0.5011070000000  0.5029670000000  0.4966260000000 1.0
C      1  0.4143770000000  0.4818060000000  0.4518980000000 1.0
C      1  0.4198560000000  0.4521730000000  0.4481480000000 1.0
C      1  0.4672960000000  0.5446400000000  0.5727440000000 1.0
C      1  0.5154060000000  0.4764670000000  0.4630290000000 1.0
C      1  0.4159500000000  0.5361490000000  0.5230440000000 1.0
C      1  0.4798970000000  0.4003240000000  0.5365320000000 1.0
C      1  0.4283880000000  0.5432520000000  0.4763830000000 1.0
C      1  0.5173740000000  0.4196200000000  0.5154220000000 1.0
C      1  0.5186150000000  0.4839720000000  0.4194140000000 1.0
C      1  0.5949300000000  0.5308810000000  0.5201660000000 1.0
C      1  0.5783990000000  0.4915070000000  0.5448170000000 1.0
C      1  0.5496500000000  0.4324210000000  0.4553100000000 1.0
C      1  0.5616440000000  0.4841150000000  0.4516570000000 1.0
C      1  0.6017930000000  0.5012840000000  0.4782260000000 1.0
C      1  0.5002730000000  0.5847640000000  0.5046070000000 1.0
C      1  0.5315040000000  0.5337100000000  0.4555440000000 1.0
C      1  0.4750760000000  0.5290570000000  0.5255390000000 1.0
C      1  0.4547780000000  0.5023080000000  0.4728050000000 1.0
C      1  0.5570510000000  0.5341080000000  0.4366310000000 1.0
C      1  0.4294110000000  0.4683500000000  0.5463540000000 1.0
C      1  0.5499120000000  0.5178100000000  0.4133010000000 1.0
C      1  0.5430430000000  0.5784270000000  0.5285750000000 1.0
C      1  0.5138590000000  0.4669090000000  0.5326270000000 1.0
C      1  0.4935740000000  0.5282640000000  0.5753020000000 1.0
C      1  0.4837530000000  0.5418870000000  0.4719060000000 1.0
C      1  0.5927350000000  0.4816620000000  0.5214730000000 1.0
C      1  0.4463490000000  0.5008430000000  0.5780110000000 1.0
C      1  0.5150630000000  0.4329880000000  0.4274690000000 1.0
C      1  0.5011430000000  0.4218000000000  0.4508330000000 1.0
C      1  0.5020510000000  0.5729860000000  0.5528020000000 1.0
C      1  0.4431050000000  0.5495830000000  0.4300490000000 1.0
C      1  0.5272110000000  0.5375110000000  0.5324640000000 1.0
C      1  0.5048010000000  0.5101180000000  0.4213330000000 1.0
C      1  0.5570330000000  0.4501730000000  0.5223840000000 1.0
C      1  0.4576300000000  0.4134990000000  0.5203210000000 1.0
C      1  0.5625720000000  0.4474580000000  0.5606830000000 1.0
C      1  0.4748570000000  0.4367640000000  0.5699160000000 1.0
C      1  0.5427300000000  0.4296550000000  0.4282370000000 1.0
C      1  0.5830620000000  0.4565180000000  0.5095710000000 1.0
C      1  0.4354920000000  0.4463880000000  0.5256460000000 1.0
C      1  0.5231960000000  0.5654160000000  0.5721080000000 1.0
C      1  0.5357570000000  0.5488990000000  0.4823220000000 1.0
C      1  0.4125390000000  0.4910900000000  0.5418910000000 1.0
C      1  0.4791800000000  0.4568930000000  0.5068030000000 1.0
C      1  0.4656500000000  0.4418530000000  0.5291110000000 1.0
C      1  0.5583640000000  0.5807870000000  0.5032950000000 1.0
C      1  0.5474400000000  0.5622050000000  0.5545770000000 1.0
C      1  0.4810710000000  0.4860600000000  0.5104840000000 1.0
C      1  0.4842680000000  0.4110640000000  0.5633670000000 1.0
END
