TITL C-3578200-9634-528 2.1036202839118e-07 125000 -1037.15222550624 0 0 162 (C1) n - 1
REM
REM in /home/bkarasulu/work/CARBON/AIRSS/Generating-Clusters/EDIP-Nigel-Params/with-SteepDescent/Higher-Symm/SD-CG/HFTN-CG
REM
REM
REM
REM
REM
REM ./C.cell (12c818d87b63d06a65506943cc24bca4)
REM
REM compiler GCC version 9.2.1 20190827 (Red Hat 9.2.1-1)
REM options -cpp -mtune=generic -march=x86-64 -g -O0 -fpre-include=/usr/include/finclude/math-vector-fortran.h
REM seed -76064645 -956815356 -1207827617 1072015523 102213009 -1206342863 -807579825 305001340 -569747072 -1981403044 1401160245 1875702605 -1754070594 -1310397098 -486482223 -1406245549 1374425195 -1767678060 -129750805 -2084001582 -23893732 -1209727514 1281904603 2011059092 1413812766 1205011118 -726965823 -1431253569 -1261115077 -355053814 -178919882 -820024467 -1184970482
REM
CELL 1.54180   50.00000   50.00000   50.00000   90.00000   90.00000   90.00000
LATT -1
SFAC C  
C      1  0.5670680000000  0.5467720000000  0.4231360000000 1.0
C      1  0.5804250000000  0.5508700000000  0.5283220000000 1.0
C      1  0.4924090000000  0.5447940000000  0.5858480000000 1.0
C      1  0.4239050000000  0.5439990000000  0.5183390000000 1.0
C      1  0.4602330000000  0.5496040000000  0.4339250000000 1.0
C      1  0.5111300000000  0.5101900000000  0.5646560000000 1.0
C      1  0.4553470000000  0.5172390000000  0.5425790000000 1.0
C      1  0.4503760000000  0.5187720000000  0.4670350000000 1.0
C      1  0.5319300000000  0.5167930000000  0.4395840000000 1.0
C      1  0.5585990000000  0.5145410000000  0.5063890000000 1.0
C      1  0.5810920000000  0.4589690000000  0.5577090000000 1.0
C      1  0.4695440000000  0.4561680000000  0.5981210000000 1.0
C      1  0.4017400000000  0.4575800000000  0.5013690000000 1.0
C      1  0.4694310000000  0.4617600000000  0.4069480000000 1.0
C      1  0.5809150000000  0.4541340000000  0.4388960000000 1.0
C      1  0.4686420000000  0.5311760000000  0.6002040000000 1.0
C      1  0.4010380000000  0.5321750000000  0.5028420000000 1.0
C      1  0.4707100000000  0.5371590000000  0.4052950000000 1.0
C      1  0.5895900000000  0.5274700000000  0.4290610000000 1.0
C      1  0.5775920000000  0.5330380000000  0.5536180000000 1.0
C      1  0.5991880000000  0.5212340000000  0.4576960000000 1.0
C      1  0.5680110000000  0.5258730000000  0.5819600000000 1.0
C      1  0.4398040000000  0.5257140000000  0.5919460000000 1.0
C      1  0.4043180000000  0.5231200000000  0.4747020000000 1.0
C      1  0.4984390000000  0.5264470000000  0.3973710000000 1.0
C      1  0.4122440000000  0.5692260000000  0.4591540000000 1.0
C      1  0.5166930000000  0.5688450000000  0.4089490000000 1.0
C      1  0.5795730000000  0.5643480000000  0.4703290000000 1.0
C      1  0.5412300000000  0.5622610000000  0.5725150000000 1.0
C      1  0.4323860000000  0.5692810000000  0.5679470000000 1.0
C      1  0.4475530000000  0.5731330000000  0.4917350000000 1.0
C      1  0.4889740000000  0.5799830000000  0.4498500000000 1.0
C      1  0.5427820000000  0.5950040000000  0.4752200000000 1.0
C      1  0.5362430000000  0.5798970000000  0.5335290000000 1.0
C      1  0.4744240000000  0.5695800000000  0.5434880000000 1.0
C      1  0.4353910000000  0.5304600000000  0.4434460000000 1.0
C      1  0.5439770000000  0.5283210000000  0.4121580000000 1.0
C      1  0.5865400000000  0.5295800000000  0.5070850000000 1.0
C      1  0.5190910000000  0.5245520000000  0.5914560000000 1.0
C      1  0.4277030000000  0.5268790000000  0.5451590000000 1.0
C      1  0.5654950000000  0.5816630000000  0.4901020000000 1.0
C      1  0.5191940000000  0.5799820000000  0.5677200000000 1.0
C      1  0.4453560000000  0.5782270000000  0.5447680000000 1.0
C      1  0.4364720000000  0.5820340000000  0.4643510000000 1.0
C      1  0.5147190000000  0.5839950000000  0.4324240000000 1.0
C      1  0.4304630000000  0.5737480000000  0.5187940000000 1.0
C      1  0.4560100000000  0.5800300000000  0.4411650000000 1.0
C      1  0.5416260000000  0.5858390000000  0.4464510000000 1.0
C      1  0.5637200000000  0.5746130000000  0.5192090000000 1.0
C      1  0.4913890000000  0.5711590000000  0.5700830000000 1.0
C      1  0.5083350000000  0.4405840000000  0.4320540000000 1.0
C      1  0.5702650000000  0.4308690000000  0.4867510000000 1.0
C      1  0.5301880000000  0.4388920000000  0.5609460000000 1.0
C      1  0.4505630000000  0.4311470000000  0.5528170000000 1.0
C      1  0.4385200000000  0.4380630000000  0.4726930000000 1.0
C      1  0.5309530000000  0.4700010000000  0.5091110000000 1.0
C      1  0.4920640000000  0.4655580000000  0.5303420000000 1.0
C      1  0.4424240000000  0.4674080000000  0.5164860000000 1.0
C      1  0.4827130000000  0.4635010000000  0.4792930000000 1.0
C      1  0.5252350000000  0.4527430000000  0.4748470000000 1.0
C      1  0.4732560000000  0.5869440000000  0.4968040000000 1.0
C      1  0.4916190000000  0.5939550000000  0.4758820000000 1.0
C      1  0.5172760000000  0.5954900000000  0.4889380000000 1.0
C      1  0.5147900000000  0.5920890000000  0.5172440000000 1.0
C      1  0.4869620000000  0.5855780000000  0.5218430000000 1.0
C      1  0.5040200000000  0.5350880000000  0.5488310000000 1.0
C      1  0.4770480000000  0.5341020000000  0.5029010000000 1.0
C      1  0.4968330000000  0.5364960000000  0.4790400000000 1.0
C      1  0.5389330000000  0.5389760000000  0.4604580000000 1.0
C      1  0.5342300000000  0.5331740000000  0.5104320000000 1.0
C      1  0.5218120000000  0.5435150000000  0.3985570000000 1.0
C      1  0.5939940000000  0.5402480000000  0.4796170000000 1.0
C      1  0.5442490000000  0.5404540000000  0.5903710000000 1.0
C      1  0.4264000000000  0.5421880000000  0.5708410000000 1.0
C      1  0.4092810000000  0.5423170000000  0.4528280000000 1.0
C      1  0.4766720000000  0.5386650000000  0.5344100000000 1.0
C      1  0.4513920000000  0.5412840000000  0.4907100000000 1.0
C      1  0.4854120000000  0.5491560000000  0.4536020000000 1.0
C      1  0.5579160000000  0.5595830000000  0.4490470000000 1.0
C      1  0.5296970000000  0.5481730000000  0.5377780000000 1.0
C      1  0.5454910000000  0.4786950000000  0.5826520000000 1.0
C      1  0.4269860000000  0.4687190000000  0.5761170000000 1.0
C      1  0.4088400000000  0.4738840000000  0.4572230000000 1.0
C      1  0.5150180000000  0.4735150000000  0.3961890000000 1.0
C      1  0.5985490000000  0.4724970000000  0.4809260000000 1.0
C      1  0.5152700000000  0.5027920000000  0.4819070000000 1.0
C      1  0.5178470000000  0.4977280000000  0.5116070000000 1.0
C      1  0.4918200000000  0.4944880000000  0.5237580000000 1.0
C      1  0.4728560000000  0.5044320000000  0.5036360000000 1.0
C      1  0.4851450000000  0.4937130000000  0.4777230000000 1.0
C      1  0.5965160000000  0.4788150000000  0.4334790000000 1.0
C      1  0.5892120000000  0.4859360000000  0.5678320000000 1.0
C      1  0.4602290000000  0.4821730000000  0.6087490000000 1.0
C      1  0.3888920000000  0.4837820000000  0.4986220000000 1.0
C      1  0.4702770000000  0.4882680000000  0.3944390000000 1.0
C      1  0.5159080000000  0.4127190000000  0.5192170000000 1.0
C      1  0.4872050000000  0.4139230000000  0.5228540000000 1.0
C      1  0.4753640000000  0.4143050000000  0.4960410000000 1.0
C      1  0.4965600000000  0.4143100000000  0.4757370000000 1.0
C      1  0.5218940000000  0.4128630000000  0.4904420000000 1.0
C      1  0.5557680000000  0.4968540000000  0.5335130000000 1.0
C      1  0.4862820000000  0.4960910000000  0.5735410000000 1.0
C      1  0.4358170000000  0.4962930000000  0.5087370000000 1.0
C      1  0.4783410000000  0.5072840000000  0.4425900000000 1.0
C      1  0.5541190000000  0.4994480000000  0.4475070000000 1.0
C      1  0.5003080000000  0.4543890000000  0.5954440000000 1.0
C      1  0.4101770000000  0.4506920000000  0.5306200000000 1.0
C      1  0.4499030000000  0.4595540000000  0.4294410000000 1.0
C      1  0.5545800000000  0.4538980000000  0.4234170000000 1.0
C      1  0.5850700000000  0.4563690000000  0.5276860000000 1.0
C      1  0.5763870000000  0.4999750000000  0.4257980000000 1.0
C      1  0.5828910000000  0.5045170000000  0.5449320000000 1.0
C      1  0.4813420000000  0.5028310000000  0.6026100000000 1.0
C      1  0.4048930000000  0.5033830000000  0.5146530000000 1.0
C      1  0.4617150000000  0.5084120000000  0.4147910000000 1.0
C      1  0.4149960000000  0.4738210000000  0.5503650000000 1.0
C      1  0.4297440000000  0.4797740000000  0.4357090000000 1.0
C      1  0.5442030000000  0.4737820000000  0.4032720000000 1.0
C      1  0.5986590000000  0.4766570000000  0.5102170000000 1.0
C      1  0.5218450000000  0.4754440000000  0.6034220000000 1.0
C      1  0.4364150000000  0.4929600000000  0.4772440000000 1.0
C      1  0.5069440000000  0.4962070000000  0.4396750000000 1.0
C      1  0.5494880000000  0.4976620000000  0.4776820000000 1.0
C      1  0.5324960000000  0.4887470000000  0.5555300000000 1.0
C      1  0.4604180000000  0.4925910000000  0.5590970000000 1.0
C      1  0.4745020000000  0.4140240000000  0.5491430000000 1.0
C      1  0.4466510000000  0.4152320000000  0.4906250000000 1.0
C      1  0.4925400000000  0.4187830000000  0.4467460000000 1.0
C      1  0.5477390000000  0.4150140000000  0.4761850000000 1.0
C      1  0.5355450000000  0.4175090000000  0.5400420000000 1.0
C      1  0.5162050000000  0.4633990000000  0.5495370000000 1.0
C      1  0.4623810000000  0.4659740000000  0.5406780000000 1.0
C      1  0.4525220000000  0.4622720000000  0.4853830000000 1.0
C      1  0.5087940000000  0.4656630000000  0.4508160000000 1.0
C      1  0.5488370000000  0.4695530000000  0.4848720000000 1.0
C      1  0.5106880000000  0.4303150000000  0.5819020000000 1.0
C      1  0.4263710000000  0.4261110000000  0.5358520000000 1.0
C      1  0.4473330000000  0.4351560000000  0.4442040000000 1.0
C      1  0.5367420000000  0.4320470000000  0.4289440000000 1.0
C      1  0.5761200000000  0.4317540000000  0.5153940000000 1.0
C      1  0.4105760000000  0.4485680000000  0.4742660000000 1.0
C      1  0.4975370000000  0.4513540000000  0.4061030000000 1.0
C      1  0.5849010000000  0.4494840000000  0.4687940000000 1.0
C      1  0.5556080000000  0.4514950000000  0.5734090000000 1.0
C      1  0.4477570000000  0.4477950000000  0.5780570000000 1.0
C      1  0.4330310000000  0.5066290000000  0.4241610000000 1.0
C      1  0.5588550000000  0.4992000000000  0.4002810000000 1.0
C      1  0.6020130000000  0.5043080000000  0.5208010000000 1.0
C      1  0.5111940000000  0.5019540000000  0.6123050000000 1.0
C      1  0.4073090000000  0.5017890000000  0.5444640000000 1.0
C      1  0.4309590000000  0.4112370000000  0.5130920000000 1.0
C      1  0.4662380000000  0.4158760000000  0.4387150000000 1.0
C      1  0.5457730000000  0.4147670000000  0.4485010000000 1.0
C      1  0.5617260000000  0.4146630000000  0.5315910000000 1.0
C      1  0.4912940000000  0.4135400000000  0.5712380000000 1.0
C      1  0.4400410000000  0.4931250000000  0.5876700000000 1.0
C      1  0.3932770000000  0.4954430000000  0.4712450000000 1.0
C      1  0.4980470000000  0.4971480000000  0.3880480000000 1.0
C      1  0.6063890000000  0.4914520000000  0.4595780000000 1.0
C      1  0.5700660000000  0.4962720000000  0.5886570000000 1.0
C      1  0.5240730000000  0.5456110000000  0.4850720000000 1.0
C      1  0.5007560000000  0.4499320000000  0.5015880000000 1.0
END
