TITL C-3578209-2550-689 -5.09800751451134e-06 125000 -745.753951107867 0 0 118 (C1) n - 1
REM
REM in /home/bkarasulu/work/CARBON/AIRSS/Generating-Clusters/EDIP-Nigel-Params/with-SteepDescent/Higher-Symm/SD-CG/HFTN-CG
REM
REM
REM
REM
REM
REM ./C.cell (12c818d87b63d06a65506943cc24bca4)
REM
REM compiler GCC version 9.2.1 20190827 (Red Hat 9.2.1-1)
REM options -cpp -mtune=generic -march=x86-64 -g -O0 -fpre-include=/usr/include/finclude/math-vector-fortran.h
REM seed 231615120 183193802 -902603990 -1626413822 276631127 -649209672 -1426078504 2142843363 -1550845378 381253628 1787972802 -1263508192 507580426 -292027418 366694546 -45506904 1163276643 -88183697 305410380 -1243297284 548405610 1775072503 951463385 -1511767681 327847967 -1286899630 2012798110 -804372965 -42572793 2058035267 -399045875 1850581009 -499209593
REM
CELL 1.54180   50.00000   50.00000   50.00000   90.00000   90.00000   90.00000
LATT -1
SFAC C  
C      1  0.4436710000000  0.4759190000000  0.5557280000000 1.0
C      1  0.4462390000000  0.4641910000000  0.4568320000000 1.0
C      1  0.4537950000000  0.5581310000000  0.4902960000000 1.0
C      1  0.5498320000000  0.4859240000000  0.5468460000000 1.0
C      1  0.5595170000000  0.4623700000000  0.4621310000000 1.0
C      1  0.5478030000000  0.5525200000000  0.4832430000000 1.0
C      1  0.5271920000000  0.5026820000000  0.4069110000000 1.0
C      1  0.5257480000000  0.5758470000000  0.5434480000000 1.0
C      1  0.5259870000000  0.4203180000000  0.5468520000000 1.0
C      1  0.4744370000000  0.5056060000000  0.4070280000000 1.0
C      1  0.4710830000000  0.5759060000000  0.5506930000000 1.0
C      1  0.4712970000000  0.4101970000000  0.5446680000000 1.0
C      1  0.4771440000000  0.4187140000000  0.4700810000000 1.0
C      1  0.4818330000000  0.5702400000000  0.4489350000000 1.0
C      1  0.4780800000000  0.5035950000000  0.5848950000000 1.0
C      1  0.5260120000000  0.4198240000000  0.4710920000000 1.0
C      1  0.5305490000000  0.5746840000000  0.4400390000000 1.0
C      1  0.5247390000000  0.5093390000000  0.5841730000000 1.0
C      1  0.5532690000000  0.5779840000000  0.5405700000000 1.0
C      1  0.5532310000000  0.4258770000000  0.5476490000000 1.0
C      1  0.5546930000000  0.4981440000000  0.4081990000000 1.0
C      1  0.4431580000000  0.5770450000000  0.5534940000000 1.0
C      1  0.4433530000000  0.4116460000000  0.5425120000000 1.0
C      1  0.4463630000000  0.5061760000000  0.4064990000000 1.0
C      1  0.5022940000000  0.5430010000000  0.5156340000000 1.0
C      1  0.5014260000000  0.4602370000000  0.5281460000000 1.0
C      1  0.5123390000000  0.5142990000000  0.4528370000000 1.0
C      1  0.4771220000000  0.5316750000000  0.5315330000000 1.0
C      1  0.4724810000000  0.4555800000000  0.5117850000000 1.0
C      1  0.4790200000000  0.5155670000000  0.4561700000000 1.0
C      1  0.4799220000000  0.4581680000000  0.4252320000000 1.0
C      1  0.4683730000000  0.6002430000000  0.5078050000000 1.0
C      1  0.4656830000000  0.4420500000000  0.5815000000000 1.0
C      1  0.5209750000000  0.4624160000000  0.4404440000000 1.0
C      1  0.5184150000000  0.5869120000000  0.4916420000000 1.0
C      1  0.5157840000000  0.4615810000000  0.5757860000000 1.0
C      1  0.5462930000000  0.5824630000000  0.4827380000000 1.0
C      1  0.5438460000000  0.4712300000000  0.5733800000000 1.0
C      1  0.5459630000000  0.4473220000000  0.4424860000000 1.0
C      1  0.4559020000000  0.5872330000000  0.4868540000000 1.0
C      1  0.4533790000000  0.4668010000000  0.5809120000000 1.0
C      1  0.4594050000000  0.4460140000000  0.4396960000000 1.0
C      1  0.4423580000000  0.5395950000000  0.4407090000000 1.0
C      1  0.4399730000000  0.5297210000000  0.5634140000000 1.0
C      1  0.4385140000000  0.4283510000000  0.4984700000000 1.0
C      1  0.5606700000000  0.5349250000000  0.4379400000000 1.0
C      1  0.5611380000000  0.5335050000000  0.5578580000000 1.0
C      1  0.5647970000000  0.4294470000000  0.5017440000000 1.0
C      1  0.4305280000000  0.4312430000000  0.5272930000000 1.0
C      1  0.4349290000000  0.5118940000000  0.4314140000000 1.0
C      1  0.4342420000000  0.5521410000000  0.5440090000000 1.0
C      1  0.5680130000000  0.4404350000000  0.5293040000000 1.0
C      1  0.5623460000000  0.5060490000000  0.4340020000000 1.0
C      1  0.5625520000000  0.5524000000000  0.5350620000000 1.0
C      1  0.5560900000000  0.4674300000000  0.5230190000000 1.0
C      1  0.5590070000000  0.4925150000000  0.4613430000000 1.0
C      1  0.5534360000000  0.5380620000000  0.5099870000000 1.0
C      1  0.4415390000000  0.4599580000000  0.5295400000000 1.0
C      1  0.4472680000000  0.4959860000000  0.4542030000000 1.0
C      1  0.4495210000000  0.5421910000000  0.5192970000000 1.0
C      1  0.4335140000000  0.5475330000000  0.4691770000000 1.0
C      1  0.4301940000000  0.5025500000000  0.5540980000000 1.0
C      1  0.4300860000000  0.4516970000000  0.4788760000000 1.0
C      1  0.5703300000000  0.5436970000000  0.4645010000000 1.0
C      1  0.5725520000000  0.5061810000000  0.5517840000000 1.0
C      1  0.5783470000000  0.4477620000000  0.4798650000000 1.0
C      1  0.4172600000000  0.5036930000000  0.5280970000000 1.0
C      1  0.4159300000000  0.4747880000000  0.4894810000000 1.0
C      1  0.4171850000000  0.5277870000000  0.4834280000000 1.0
C      1  0.5904140000000  0.5056940000000  0.5284760000000 1.0
C      1  0.5953860000000  0.4703510000000  0.4895010000000 1.0
C      1  0.5903930000000  0.5265240000000  0.4782620000000 1.0
C      1  0.5298360000000  0.5025050000000  0.4772240000000 1.0
C      1  0.5276200000000  0.5206470000000  0.5106880000000 1.0
C      1  0.5261370000000  0.4586280000000  0.5058120000000 1.0
C      1  0.4764510000000  0.5208400000000  0.4839520000000 1.0
C      1  0.4794670000000  0.5030960000000  0.5272720000000 1.0
C      1  0.4743050000000  0.4744320000000  0.4893710000000 1.0
C      1  0.4694510000000  0.5289700000000  0.5701190000000 1.0
C      1  0.4693220000000  0.4260680000000  0.4983450000000 1.0
C      1  0.4726810000000  0.5419790000000  0.4393390000000 1.0
C      1  0.5319990000000  0.5304200000000  0.5645410000000 1.0
C      1  0.5333330000000  0.4285980000000  0.4989500000000 1.0
C      1  0.5343990000000  0.5461730000000  0.4315520000000 1.0
C      1  0.5068900000000  0.4423590000000  0.5540750000000 1.0
C      1  0.5136550000000  0.4908910000000  0.4308250000000 1.0
C      1  0.5086560000000  0.5745810000000  0.5189240000000 1.0
C      1  0.4822310000000  0.4293310000000  0.5632600000000 1.0
C      1  0.4861630000000  0.4854770000000  0.4246810000000 1.0
C      1  0.4835710000000  0.5877010000000  0.5272900000000 1.0
C      1  0.5166840000000  0.4125610000000  0.5201100000000 1.0
C      1  0.5172630000000  0.5311650000000  0.4120910000000 1.0
C      1  0.5154360000000  0.5553630000000  0.5621360000000 1.0
C      1  0.4859320000000  0.4097470000000  0.5188030000000 1.0
C      1  0.4865560000000  0.5325470000000  0.4127680000000 1.0
C      1  0.4859680000000  0.5552300000000  0.5659130000000 1.0
C      1  0.4591910000000  0.4192760000000  0.4485060000000 1.0
C      1  0.4650650000000  0.5893890000000  0.4606010000000 1.0
C      1  0.4602140000000  0.4869680000000  0.5987180000000 1.0
C      1  0.5447580000000  0.4202400000000  0.4500330000000 1.0
C      1  0.5508880000000  0.5883710000000  0.4550350000000 1.0
C      1  0.5460130000000  0.4923830000000  0.5924540000000 1.0
C      1  0.5009590000000  0.4893200000000  0.5414130000000 1.0
C      1  0.4897320000000  0.4665200000000  0.4645940000000 1.0
C      1  0.4904770000000  0.5449820000000  0.4894600000000 1.0
C      1  0.5266280000000  0.5036190000000  0.5365330000000 1.0
C      1  0.5199180000000  0.4732630000000  0.4779840000000 1.0
C      1  0.5165270000000  0.5445530000000  0.4719900000000 1.0
C      1  0.4183490000000  0.4763030000000  0.5181570000000 1.0
C      1  0.4243180000000  0.4997630000000  0.4747640000000 1.0
C      1  0.4326170000000  0.5188280000000  0.5081060000000 1.0
C      1  0.5803790000000  0.4823790000000  0.5121340000000 1.0
C      1  0.5857410000000  0.4971890000000  0.4741240000000 1.0
C      1  0.5797260000000  0.5234320000000  0.5059430000000 1.0
C      1  0.5013200000000  0.4300500000000  0.4625920000000 1.0
C      1  0.5029040000000  0.4907360000000  0.5737770000000 1.0
C      1  0.5091870000000  0.5723730000000  0.4602950000000 1.0
C      1  0.4831740000000  0.4989760000000  0.4996540000000 1.0
END
