TITL C-3577080-309-294 4.580463244189e-06 125000 -282.739705535934 0 0 48 (Cs) n - 1
REM
REM in /home/bkarasulu/work/CARBON/AIRSS/Generating-Clusters/EDIP-Nigel-Params/with-SteepDescent/Higher-Symm/SD-CG/HFTN-CG
REM
REM
REM
REM
REM
REM ./C.cell (12c818d87b63d06a65506943cc24bca4)
REM
REM compiler GCC version 9.2.1 20190827 (Red Hat 9.2.1-1)
REM options -cpp -mtune=generic -march=x86-64 -g -O0 -fpre-include=/usr/include/finclude/math-vector-fortran.h
REM seed 1713784772 -1427450493 1214929628 444053264 -1504469991 -348742869 469054755 -141964624 1994193576 1071440608 1041641505 -762078681 1291894788 1697030237 -61122966 -2111934166 -721140755 -201472033 1884977846 -173395104 -806948907 1593554071 402725386 1926442957 1871256867 1710034187 485182340 -563207438 -501541879 -1927467908 -548015307 2101769686 2081051754
REM
CELL 1.54180   50.00000   50.00000   50.00000   90.00000   90.00000   90.00000
LATT -1
SFAC C  
C      1  0.5057790000000  0.4651020000000  0.5482090000000 1.0
C      1  0.4639650000000  0.4921250000000  0.5448350000000 1.0
C      1  0.4730910000000  0.5302480000000  0.5458170000000 1.0
C      1  0.5233420000000  0.5297570000000  0.5459900000000 1.0
C      1  0.5372510000000  0.4887420000000  0.5455940000000 1.0
C      1  0.5058490000000  0.4648760000000  0.4542760000000 1.0
C      1  0.4640300000000  0.4919140000000  0.4574570000000 1.0
C      1  0.4731570000000  0.5300330000000  0.4563050000000 1.0
C      1  0.5234080000000  0.5295410000000  0.4562090000000 1.0
C      1  0.5373170000000  0.4885290000000  0.4568230000000 1.0
C      1  0.4398780000000  0.5467270000000  0.4872070000000 1.0
C      1  0.5270090000000  0.5668200000000  0.4873830000000 1.0
C      1  0.5754780000000  0.4967930000000  0.4876010000000 1.0
C      1  0.5213460000000  0.4292650000000  0.4878000000000 1.0
C      1  0.4417300000000  0.4602450000000  0.4877490000000 1.0
C      1  0.4398570000000  0.5467940000000  0.5147860000000 1.0
C      1  0.5269890000000  0.5668860000000  0.5146420000000 1.0
C      1  0.5754580000000  0.4968580000000  0.5148330000000 1.0
C      1  0.5213260000000  0.4293300000000  0.5148780000000 1.0
C      1  0.4417100000000  0.4603100000000  0.5146630000000 1.0
C      1  0.5281500000000  0.4461910000000  0.4663650000000 1.0
C      1  0.4603180000000  0.4641150000000  0.4671820000000 1.0
C      1  0.4440170000000  0.5311610000000  0.4637250000000 1.0
C      1  0.5122220000000  0.5558860000000  0.4658910000000 1.0
C      1  0.5609120000000  0.5067510000000  0.4656260000000 1.0
C      1  0.5280980000000  0.4463590000000  0.5362430000000 1.0
C      1  0.4602680000000  0.4642790000000  0.5352380000000 1.0
C      1  0.4439620000000  0.5313400000000  0.5383480000000 1.0
C      1  0.5121700000000  0.5560550000000  0.5361650000000 1.0
C      1  0.5608590000000  0.5069220000000  0.5367390000000 1.0
C      1  0.5440860000000  0.5273120000000  0.5256410000000 1.0
C      1  0.5422710000000  0.4688590000000  0.5245910000000 1.0
C      1  0.4871650000000  0.4596170000000  0.5260370000000 1.0
C      1  0.4415590000000  0.5040570000000  0.5293190000000 1.0
C      1  0.4880180000000  0.5447740000000  0.5249030000000 1.0
C      1  0.5441220000000  0.5271940000000  0.4766000000000 1.0
C      1  0.5423050000000  0.4687470000000  0.4779290000000 1.0
C      1  0.4872020000000  0.4594980000000  0.4764460000000 1.0
C      1  0.4416010000000  0.5039210000000  0.4728820000000 1.0
C      1  0.4880530000000  0.5446590000000  0.4771710000000 1.0
C      1  0.4980320000000  0.5281940000000  0.5010840000000 1.0
C      1  0.5276940000000  0.4815130000000  0.5012190000000 1.0
C      1  0.4953630000000  0.4755140000000  0.5012090000000 1.0
C      1  0.4528500000000  0.5100810000000  0.5010940000000 1.0
C      1  0.5296220000000  0.5164350000000  0.5011360000000 1.0
C      1  0.5011930000000  0.5032310000000  0.5412260000000 1.0
C      1  0.5012520000000  0.5030380000000  0.4610680000000 1.0
C      1  0.4825080000000  0.5034310000000  0.5011320000000 1.0
END
