TITL C-3578204-4308-286 1.35771276973645e-06 125000 -326.474535856842 0 0 55 (C1) n - 1
REM
REM in /home/bkarasulu/work/CARBON/AIRSS/Generating-Clusters/EDIP-Nigel-Params/with-SteepDescent/Higher-Symm/SD-CG/HFTN-CG
REM
REM
REM
REM
REM
REM ./C.cell (12c818d87b63d06a65506943cc24bca4)
REM
REM compiler GCC version 9.2.1 20190827 (Red Hat 9.2.1-1)
REM options -cpp -mtune=generic -march=x86-64 -g -O0 -fpre-include=/usr/include/finclude/math-vector-fortran.h
REM seed -1496125916 -1097676540 -1969063608 -486825294 1734422989 1084270325 -168347734 618836843 1957415071 928373818 -1456157887 727120873 574963696 1906272779 -1604103900 710768413 -1365074050 1853877489 -1784888920 -1674284733 311965663 1986752478 -1240355153 626726568 -1517585149 1966917469 1495746267 -380804038 352324129 -1784599282 1276909385 824220569 411155329
REM
CELL 1.54180   50.00000   50.00000   50.00000   90.00000   90.00000   90.00000
LATT -1
SFAC C  
C      1  0.4691520000000  0.4836470000000  0.4406960000000 1.0
C      1  0.5286090000000  0.5426810000000  0.4571560000000 1.0
C      1  0.4662400000000  0.5512130000000  0.5215480000000 1.0
C      1  0.5162630000000  0.5063430000000  0.5479900000000 1.0
C      1  0.4859960000000  0.4576910000000  0.5274310000000 1.0
C      1  0.5254140000000  0.4399210000000  0.4875860000000 1.0
C      1  0.4994620000000  0.5322990000000  0.4339610000000 1.0
C      1  0.5093340000000  0.5701530000000  0.5007150000000 1.0
C      1  0.5023170000000  0.5319770000000  0.5600230000000 1.0
C      1  0.4928210000000  0.4608150000000  0.5571020000000 1.0
C      1  0.5140680000000  0.4273060000000  0.5125090000000 1.0
C      1  0.4959390000000  0.4556390000000  0.4407340000000 1.0
C      1  0.5380870000000  0.4569220000000  0.5435590000000 1.0
C      1  0.4604010000000  0.4420150000000  0.4674740000000 1.0
C      1  0.5375270000000  0.5075070000000  0.4266120000000 1.0
C      1  0.4731980000000  0.5568930000000  0.4738200000000 1.0
C      1  0.5375420000000  0.5612150000000  0.5497450000000 1.0
C      1  0.4644740000000  0.4994540000000  0.5615760000000 1.0
C      1  0.5495030000000  0.4551870000000  0.4943240000000 1.0
C      1  0.4563930000000  0.4896120000000  0.4685300000000 1.0
C      1  0.5416410000000  0.5184330000000  0.4727250000000 1.0
C      1  0.4527310000000  0.5296770000000  0.5056350000000 1.0
C      1  0.5437610000000  0.5155310000000  0.5366020000000 1.0
C      1  0.4537100000000  0.4774280000000  0.5208840000000 1.0
C      1  0.4283760000000  0.5157860000000  0.5126590000000 1.0
C      1  0.5540120000000  0.4957940000000  0.5172950000000 1.0
C      1  0.4283670000000  0.4867730000000  0.5090910000000 1.0
C      1  0.5608630000000  0.4739000000000  0.4761160000000 1.0
C      1  0.4302290000000  0.4940300000000  0.4804650000000 1.0
C      1  0.5597810000000  0.5001930000000  0.4880670000000 1.0
C      1  0.5064250000000  0.4753860000000  0.5110230000000 1.0
C      1  0.4976030000000  0.4731700000000  0.4806650000000 1.0
C      1  0.5029840000000  0.4991500000000  0.4628680000000 1.0
C      1  0.4953250000000  0.5260720000000  0.4783600000000 1.0
C      1  0.5144090000000  0.5486880000000  0.5206380000000 1.0
C      1  0.4981900000000  0.5015610000000  0.5239730000000 1.0
C      1  0.4695130000000  0.4458380000000  0.4415560000000 1.0
C      1  0.5245760000000  0.5313890000000  0.4210700000000 1.0
C      1  0.4796490000000  0.5688270000000  0.4998480000000 1.0
C      1  0.5206960000000  0.5509680000000  0.5689550000000 1.0
C      1  0.4735990000000  0.4757610000000  0.5709230000000 1.0
C      1  0.5289850000000  0.4308760000000  0.5365480000000 1.0
C      1  0.4803930000000  0.5442270000000  0.5459380000000 1.0
C      1  0.5190860000000  0.4742420000000  0.5593200000000 1.0
C      1  0.4865110000000  0.4301570000000  0.5173070000000 1.0
C      1  0.5139580000000  0.4442950000000  0.4605560000000 1.0
C      1  0.4839380000000  0.5078560000000  0.4306520000000 1.0
C      1  0.5183800000000  0.5627340000000  0.4750450000000 1.0
C      1  0.4687280000000  0.4991980000000  0.5334610000000 1.0
C      1  0.5380010000000  0.4706890000000  0.5172450000000 1.0
C      1  0.4683480000000  0.4659110000000  0.4811380000000 1.0
C      1  0.5323760000000  0.4986360000000  0.4531100000000 1.0
C      1  0.4580980000000  0.5330560000000  0.4775240000000 1.0
C      1  0.5448470000000  0.5438200000000  0.5279140000000 1.0
C      1  0.5049620000000  0.5238780000000  0.5063160000000 1.0
END
