TITL C-3578208-4450-721 1.06058055024728e-06 125000 -1280.99870153295 0 0 200 (C1) n - 1
REM
REM in /home/bkarasulu/work/CARBON/AIRSS/Generating-Clusters/EDIP-Nigel-Params/with-SteepDescent/Higher-Symm/SD-CG/HFTN-CG
REM
REM
REM
REM
REM
REM ./C.cell (12c818d87b63d06a65506943cc24bca4)
REM
REM compiler GCC version 9.2.1 20190827 (Red Hat 9.2.1-1)
REM options -cpp -mtune=generic -march=x86-64 -g -O0 -fpre-include=/usr/include/finclude/math-vector-fortran.h
REM seed 652094067 -1779419659 978981395 1598441165 -599999762 -877397437 1143616663 1232615967 -800727139 -99415625 516775495 -1568568890 1115059092 -532487870 -1175640964 679289552 1242950491 -981526774 1628978676 245615876 -1917070324 -162041660 -1963207105 -460849589 -897427483 1599986036 -1189128387 -2031982513 1740694049 -1075003642 350685337 588849188 -1412123075
REM
CELL 1.54180   50.00000   50.00000   50.00000   90.00000   90.00000   90.00000
LATT -1
SFAC C  
C      1  0.4978820000000  0.4244540000000  0.4389010000000 1.0
C      1  0.5606440000000  0.4100110000000  0.4560380000000 1.0
C      1  0.5617580000000  0.4141830000000  0.5137820000000 1.0
C      1  0.5306420000000  0.4116120000000  0.5644310000000 1.0
C      1  0.4716300000000  0.4190530000000  0.5590230000000 1.0
C      1  0.4238880000000  0.4093780000000  0.5131830000000 1.0
C      1  0.4510840000000  0.4176370000000  0.4649420000000 1.0
C      1  0.5699250000000  0.4984500000000  0.5135750000000 1.0
C      1  0.5406340000000  0.4965740000000  0.5595920000000 1.0
C      1  0.4831310000000  0.4997330000000  0.5704280000000 1.0
C      1  0.4239930000000  0.4954330000000  0.5215170000000 1.0
C      1  0.4365500000000  0.4980140000000  0.4556430000000 1.0
C      1  0.4860080000000  0.5075380000000  0.4333690000000 1.0
C      1  0.5597920000000  0.5047870000000  0.4541850000000 1.0
C      1  0.5767740000000  0.4454030000000  0.5518290000000 1.0
C      1  0.5162430000000  0.4433670000000  0.5973980000000 1.0
C      1  0.4253240000000  0.4401370000000  0.5612510000000 1.0
C      1  0.3974340000000  0.4437980000000  0.4905930000000 1.0
C      1  0.4506380000000  0.4449080000000  0.4245070000000 1.0
C      1  0.5387000000000  0.4447070000000  0.4162520000000 1.0
C      1  0.5897170000000  0.4466620000000  0.4670900000000 1.0
C      1  0.4427170000000  0.4675610000000  0.4619770000000 1.0
C      1  0.4917620000000  0.4767220000000  0.4366480000000 1.0
C      1  0.5532300000000  0.4738720000000  0.4520140000000 1.0
C      1  0.5659580000000  0.4681940000000  0.5116660000000 1.0
C      1  0.5373060000000  0.4652220000000  0.5575530000000 1.0
C      1  0.4777050000000  0.4689970000000  0.5653960000000 1.0
C      1  0.4307910000000  0.4658270000000  0.5174570000000 1.0
C      1  0.6032660000000  0.4862130000000  0.5457220000000 1.0
C      1  0.5309370000000  0.4867230000000  0.6099290000000 1.0
C      1  0.4361410000000  0.4801340000000  0.5862150000000 1.0
C      1  0.3793020000000  0.4860760000000  0.5047430000000 1.0
C      1  0.4260410000000  0.4840180000000  0.4150310000000 1.0
C      1  0.5220880000000  0.4831850000000  0.3945730000000 1.0
C      1  0.6038220000000  0.4877500000000  0.4448150000000 1.0
C      1  0.4779920000000  0.5570360000000  0.5882530000000 1.0
C      1  0.4314690000000  0.5404900000000  0.5245870000000 1.0
C      1  0.4303510000000  0.5519920000000  0.4605390000000 1.0
C      1  0.4896730000000  0.5499890000000  0.4180820000000 1.0
C      1  0.5637190000000  0.5607340000000  0.4242780000000 1.0
C      1  0.5803240000000  0.5539170000000  0.5039370000000 1.0
C      1  0.5453950000000  0.5541770000000  0.5698890000000 1.0
C      1  0.5034520000000  0.4525580000000  0.5557550000000 1.0
C      1  0.4559490000000  0.4603460000000  0.5369590000000 1.0
C      1  0.4401240000000  0.4544640000000  0.4900300000000 1.0
C      1  0.4742280000000  0.4686350000000  0.4632120000000 1.0
C      1  0.5195580000000  0.4676720000000  0.4486230000000 1.0
C      1  0.5513300000000  0.4643550000000  0.4816480000000 1.0
C      1  0.5397610000000  0.4602540000000  0.5264030000000 1.0
C      1  0.4501750000000  0.4325100000000  0.5763630000000 1.0
C      1  0.4041290000000  0.4498350000000  0.5200210000000 1.0
C      1  0.4274580000000  0.4477440000000  0.4425610000000 1.0
C      1  0.5100960000000  0.4375660000000  0.4136840000000 1.0
C      1  0.5745110000000  0.4532860000000  0.4419140000000 1.0
C      1  0.5874820000000  0.4486470000000  0.5237170000000 1.0
C      1  0.5437490000000  0.4483500000000  0.5853280000000 1.0
C      1  0.4637240000000  0.5132290000000  0.4564400000000 1.0
C      1  0.5388370000000  0.5211890000000  0.4381230000000 1.0
C      1  0.5647060000000  0.5144260000000  0.4847610000000 1.0
C      1  0.5500750000000  0.5099530000000  0.5325620000000 1.0
C      1  0.5114390000000  0.5072850000000  0.5571310000000 1.0
C      1  0.4353960000000  0.5032790000000  0.5485560000000 1.0
C      1  0.4235490000000  0.5099560000000  0.4795040000000 1.0
C      1  0.4029820000000  0.5605700000000  0.5104150000000 1.0
C      1  0.4324230000000  0.5590720000000  0.4314980000000 1.0
C      1  0.5112930000000  0.5603530000000  0.4001450000000 1.0
C      1  0.5843190000000  0.5622850000000  0.4456040000000 1.0
C      1  0.5899460000000  0.5621550000000  0.5306630000000 1.0
C      1  0.5326950000000  0.5649360000000  0.5950850000000 1.0
C      1  0.4506730000000  0.5576880000000  0.5786740000000 1.0
C      1  0.4203760000000  0.5118920000000  0.4232810000000 1.0
C      1  0.5121630000000  0.5108210000000  0.3941940000000 1.0
C      1  0.5866830000000  0.5119970000000  0.4409130000000 1.0
C      1  0.6001400000000  0.5132390000000  0.5331010000000 1.0
C      1  0.5360770000000  0.5135960000000  0.5997930000000 1.0
C      1  0.4450920000000  0.5085400000000  0.5916100000000 1.0
C      1  0.3898070000000  0.5124710000000  0.5148000000000 1.0
C      1  0.5207770000000  0.5844550000000  0.4170150000000 1.0
C      1  0.5779900000000  0.5861670000000  0.4637690000000 1.0
C      1  0.5725940000000  0.5861700000000  0.5365480000000 1.0
C      1  0.5159800000000  0.5882380000000  0.5822270000000 1.0
C      1  0.4506590000000  0.5758680000000  0.5548390000000 1.0
C      1  0.4249750000000  0.5774200000000  0.5007670000000 1.0
C      1  0.4521350000000  0.5821460000000  0.4331220000000 1.0
C      1  0.4987390000000  0.5947320000000  0.4348030000000 1.0
C      1  0.5525840000000  0.5999290000000  0.4530610000000 1.0
C      1  0.5634910000000  0.5988830000000  0.5105200000000 1.0
C      1  0.5303790000000  0.6011840000000  0.5580180000000 1.0
C      1  0.4749990000000  0.5934360000000  0.5554450000000 1.0
C      1  0.4423630000000  0.5948380000000  0.5157830000000 1.0
C      1  0.4492920000000  0.5955670000000  0.4605440000000 1.0
C      1  0.5628720000000  0.5134560000000  0.5867920000000 1.0
C      1  0.4715530000000  0.5086370000000  0.6066410000000 1.0
C      1  0.3926360000000  0.5140090000000  0.5459880000000 1.0
C      1  0.3972700000000  0.5134520000000  0.4444520000000 1.0
C      1  0.4816480000000  0.5092060000000  0.3944730000000 1.0
C      1  0.5771890000000  0.5145620000000  0.4114690000000 1.0
C      1  0.6094130000000  0.5140740000000  0.5035220000000 1.0
C      1  0.4679800000000  0.4297430000000  0.4421560000000 1.0
C      1  0.5579760000000  0.4296440000000  0.4334060000000 1.0
C      1  0.5751370000000  0.4228230000000  0.4785930000000 1.0
C      1  0.5536380000000  0.4250270000000  0.5493260000000 1.0
C      1  0.5062130000000  0.4277310000000  0.5735750000000 1.0
C      1  0.4145900000000  0.4266350000000  0.5361240000000 1.0
C      1  0.4191490000000  0.4223830000000  0.4865900000000 1.0
C      1  0.4168360000000  0.4682170000000  0.5671320000000 1.0
C      1  0.3921850000000  0.4722300000000  0.4811860000000 1.0
C      1  0.4528150000000  0.4725590000000  0.4156900000000 1.0
C      1  0.5451180000000  0.4726100000000  0.4082120000000 1.0
C      1  0.6012530000000  0.4738910000000  0.4713320000000 1.0
C      1  0.5808960000000  0.4738210000000  0.5599470000000 1.0
C      1  0.5076360000000  0.4711890000000  0.6017720000000 1.0
C      1  0.4079040000000  0.4670990000000  0.4313960000000 1.0
C      1  0.4994900000000  0.4644010000000  0.4005560000000 1.0
C      1  0.5918490000000  0.4696280000000  0.4234020000000 1.0
C      1  0.6092540000000  0.4687580000000  0.5226320000000 1.0
C      1  0.5548710000000  0.4698500000000  0.6022040000000 1.0
C      1  0.4596220000000  0.4609010000000  0.5900120000000 1.0
C      1  0.3831790000000  0.4689720000000  0.5295640000000 1.0
C      1  0.4874130000000  0.6008670000000  0.5298310000000 1.0
C      1  0.4682080000000  0.6056270000000  0.5077400000000 1.0
C      1  0.4746570000000  0.6016960000000  0.4775780000000 1.0
C      1  0.5019970000000  0.6061190000000  0.4620660000000 1.0
C      1  0.5299140000000  0.6096070000000  0.4726060000000 1.0
C      1  0.5334240000000  0.6056350000000  0.5056350000000 1.0
C      1  0.5155800000000  0.6102150000000  0.5322920000000 1.0
C      1  0.3936570000000  0.4836290000000  0.4524210000000 1.0
C      1  0.4731970000000  0.4798320000000  0.3969780000000 1.0
C      1  0.5724530000000  0.4847220000000  0.4061280000000 1.0
C      1  0.6093100000000  0.4851110000000  0.4975250000000 1.0
C      1  0.5742140000000  0.4855230000000  0.5859700000000 1.0
C      1  0.4801650000000  0.4783340000000  0.6084500000000 1.0
C      1  0.3944530000000  0.4839340000000  0.5526240000000 1.0
C      1  0.5300990000000  0.5636030000000  0.5285790000000 1.0
C      1  0.5043580000000  0.5565880000000  0.5446450000000 1.0
C      1  0.4847290000000  0.5514010000000  0.5203980000000 1.0
C      1  0.4918030000000  0.5713740000000  0.4971550000000 1.0
C      1  0.4814970000000  0.5591600000000  0.4670580000000 1.0
C      1  0.5044800000000  0.5420930000000  0.4640050000000 1.0
C      1  0.5419660000000  0.5634500000000  0.4834760000000 1.0
C      1  0.5181520000000  0.4773160000000  0.5132950000000 1.0
C      1  0.5033600000000  0.5012690000000  0.5271630000000 1.0
C      1  0.4744120000000  0.4905010000000  0.5268840000000 1.0
C      1  0.4640400000000  0.4996420000000  0.5018220000000 1.0
C      1  0.4790220000000  0.4956100000000  0.4764530000000 1.0
C      1  0.5108660000000  0.4982300000000  0.4710780000000 1.0
C      1  0.5291080000000  0.4836020000000  0.4883880000000 1.0
C      1  0.5292830000000  0.5359680000000  0.3948640000000 1.0
C      1  0.5960050000000  0.5367330000000  0.4564720000000 1.0
C      1  0.5903650000000  0.5385190000000  0.5488870000000 1.0
C      1  0.5188550000000  0.5374610000000  0.6050340000000 1.0
C      1  0.4327210000000  0.5338770000000  0.5801310000000 1.0
C      1  0.3925640000000  0.5372250000000  0.4961020000000 1.0
C      1  0.4400120000000  0.5348710000000  0.4165340000000 1.0
C      1  0.5468900000000  0.5779910000000  0.5491610000000 1.0
C      1  0.4933680000000  0.5744650000000  0.5688170000000 1.0
C      1  0.4540020000000  0.5604240000000  0.5288330000000 1.0
C      1  0.4280780000000  0.5785730000000  0.4725870000000 1.0
C      1  0.4798320000000  0.5722540000000  0.4374140000000 1.0
C      1  0.5448470000000  0.5809870000000  0.4319370000000 1.0
C      1  0.5675780000000  0.5767420000000  0.4900190000000 1.0
C      1  0.4640250000000  0.5076540000000  0.5482230000000 1.0
C      1  0.4387240000000  0.5140090000000  0.5038510000000 1.0
C      1  0.4579830000000  0.5406880000000  0.4681280000000 1.0
C      1  0.5082600000000  0.5289430000000  0.4384720000000 1.0
C      1  0.5421070000000  0.5346420000000  0.4911090000000 1.0
C      1  0.5474200000000  0.5384220000000  0.5204740000000 1.0
C      1  0.5177910000000  0.5357470000000  0.5608550000000 1.0
C      1  0.5016590000000  0.3957370000000  0.4415180000000 1.0
C      1  0.5455710000000  0.3871500000000  0.4616100000000 1.0
C      1  0.5577910000000  0.3857300000000  0.5139600000000 1.0
C      1  0.5244910000000  0.3862600000000  0.5548580000000 1.0
C      1  0.4711740000000  0.3902550000000  0.5557010000000 1.0
C      1  0.4398890000000  0.3866610000000  0.5148810000000 1.0
C      1  0.4527190000000  0.3887230000000  0.4638240000000 1.0
C      1  0.4740880000000  0.3835010000000  0.4807410000000 1.0
C      1  0.4997990000000  0.3873430000000  0.4682560000000 1.0
C      1  0.5249950000000  0.3816770000000  0.4796440000000 1.0
C      1  0.5307240000000  0.3830840000000  0.5078100000000 1.0
C      1  0.5125140000000  0.3811110000000  0.5304080000000 1.0
C      1  0.4838980000000  0.3842040000000  0.5312460000000 1.0
C      1  0.4666420000000  0.3821640000000  0.5087150000000 1.0
C      1  0.4673790000000  0.5343460000000  0.4045230000000 1.0
C      1  0.5529420000000  0.5336260000000  0.4150360000000 1.0
C      1  0.5907290000000  0.5309040000000  0.4863230000000 1.0
C      1  0.5710510000000  0.5383470000000  0.5720570000000 1.0
C      1  0.4898140000000  0.5327870000000  0.5989950000000 1.0
C      1  0.4194110000000  0.5283210000000  0.5525430000000 1.0
C      1  0.4070170000000  0.5314870000000  0.4692420000000 1.0
C      1  0.5354110000000  0.4311840000000  0.5143000000000 1.0
C      1  0.4956190000000  0.4413630000000  0.5293150000000 1.0
C      1  0.4683020000000  0.4328650000000  0.5300500000000 1.0
C      1  0.4620290000000  0.4317780000000  0.4920840000000 1.0
C      1  0.4874350000000  0.4477380000000  0.4818170000000 1.0
C      1  0.5120270000000  0.4402680000000  0.4636840000000 1.0
C      1  0.5388120000000  0.4361820000000  0.4832890000000 1.0
C      1  0.4977480000000  0.4583210000000  0.5073470000000 1.0
C      1  0.4985500000000  0.5258750000000  0.5101320000000 1.0
C      1  0.5140760000000  0.5254270000000  0.4851230000000 1.0
C      1  0.5227120000000  0.5767720000000  0.5018390000000 1.0
END
