TITL C-3577085-527-147 -3.13043915689824e-06 125000 -1262.56133613149 0 0 199 (C1) n - 1
REM
REM in /home/bkarasulu/work/CARBON/AIRSS/Generating-Clusters/EDIP-Nigel-Params/with-SteepDescent/Higher-Symm/SD-CG/HFTN-CG
REM
REM
REM
REM
REM
REM ./C.cell (12c818d87b63d06a65506943cc24bca4)
REM
REM compiler GCC version 9.2.1 20190827 (Red Hat 9.2.1-1)
REM options -cpp -mtune=generic -march=x86-64 -g -O0 -fpre-include=/usr/include/finclude/math-vector-fortran.h
REM seed -917672170 1356109778 -2123785452 -927153516 1216892833 -925719339 277424640 -1884712761 -178468269 1469131202 1603182431 -1773863474 390417079 -2077647935 -897391645 -755375197 -2104475520 -1923892333 -1371420616 -580805051 -360610515 79565190 -1780308877 879480730 -1570684739 1650557372 -1220869195 2038704305 -195773944 604977580 1385706356 416012920 -1912070120
REM
CELL 1.54180   50.00000   50.00000   50.00000   90.00000   90.00000   90.00000
LATT -1
SFAC C  
C      1  0.4840670000000  0.6139740000000  0.5156410000000 1.0
C      1  0.4843520000000  0.5670920000000  0.4149280000000 1.0
C      1  0.4862050000000  0.4569410000000  0.3978310000000 1.0
C      1  0.4836610000000  0.3850720000000  0.4863240000000 1.0
C      1  0.4855240000000  0.4309510000000  0.5889840000000 1.0
C      1  0.4844260000000  0.5437020000000  0.6041570000000 1.0
C      1  0.5142310000000  0.6100470000000  0.5165360000000 1.0
C      1  0.5144720000000  0.5676420000000  0.4113990000000 1.0
C      1  0.5158280000000  0.4580460000000  0.3966360000000 1.0
C      1  0.5135530000000  0.3851600000000  0.4845570000000 1.0
C      1  0.5155890000000  0.4294430000000  0.5890290000000 1.0
C      1  0.5148860000000  0.5415640000000  0.6054220000000 1.0
C      1  0.4264670000000  0.5917740000000  0.5152700000000 1.0
C      1  0.4262580000000  0.5636970000000  0.4285840000000 1.0
C      1  0.4297630000000  0.4604360000000  0.4152880000000 1.0
C      1  0.4281000000000  0.4097700000000  0.4858570000000 1.0
C      1  0.4292830000000  0.4475130000000  0.5684700000000 1.0
C      1  0.4263610000000  0.5346140000000  0.5825960000000 1.0
C      1  0.5723070000000  0.5932240000000  0.5192030000000 1.0
C      1  0.5720910000000  0.5556550000000  0.4284190000000 1.0
C      1  0.5699430000000  0.4675430000000  0.4179450000000 1.0
C      1  0.5687540000000  0.4054510000000  0.4805500000000 1.0
C      1  0.5729450000000  0.4470490000000  0.5659580000000 1.0
C      1  0.5746590000000  0.5325050000000  0.5872800000000 1.0
C      1  0.5945000000000  0.5728370000000  0.5150040000000 1.0
C      1  0.5855660000000  0.5363250000000  0.4465170000000 1.0
C      1  0.5890560000000  0.4789620000000  0.4391710000000 1.0
C      1  0.5741300000000  0.4357980000000  0.4818440000000 1.0
C      1  0.5948700000000  0.4638880000000  0.5533670000000 1.0
C      1  0.5964150000000  0.5286250000000  0.5654650000000 1.0
C      1  0.4135240000000  0.5647180000000  0.5095580000000 1.0
C      1  0.4040740000000  0.5512370000000  0.4449630000000 1.0
C      1  0.4092140000000  0.4599800000000  0.4366150000000 1.0
C      1  0.4113070000000  0.4351470000000  0.4912360000000 1.0
C      1  0.4103040000000  0.4643290000000  0.5504970000000 1.0
C      1  0.4114500000000  0.5247640000000  0.5577470000000 1.0
C      1  0.4838490000000  0.4611130000000  0.5374380000000 1.0
C      1  0.4878760000000  0.5128920000000  0.5500180000000 1.0
C      1  0.4885290000000  0.5551390000000  0.5091430000000 1.0
C      1  0.4819000000000  0.5363200000000  0.4607320000000 1.0
C      1  0.4857110000000  0.4812020000000  0.4491810000000 1.0
C      1  0.4791820000000  0.4441450000000  0.4866090000000 1.0
C      1  0.5131200000000  0.4626800000000  0.5446580000000 1.0
C      1  0.5154290000000  0.5196850000000  0.5535140000000 1.0
C      1  0.5175360000000  0.5523920000000  0.5123070000000 1.0
C      1  0.5107150000000  0.5339360000000  0.4580240000000 1.0
C      1  0.5137380000000  0.4743300000000  0.4474710000000 1.0
C      1  0.5086830000000  0.4406710000000  0.4917090000000 1.0
C      1  0.6000940000000  0.5094080000000  0.4411460000000 1.0
C      1  0.5925050000000  0.4670890000000  0.4673880000000 1.0
C      1  0.6050880000000  0.4591660000000  0.5265970000000 1.0
C      1  0.6003970000000  0.5005070000000  0.5515710000000 1.0
C      1  0.5990330000000  0.5470000000000  0.5336130000000 1.0
C      1  0.5956160000000  0.5631670000000  0.4865550000000 1.0
C      1  0.4029800000000  0.5216980000000  0.4410700000000 1.0
C      1  0.4035510000000  0.4555550000000  0.4670880000000 1.0
C      1  0.3980460000000  0.4517540000000  0.5234630000000 1.0
C      1  0.4044040000000  0.4951860000000  0.5499770000000 1.0
C      1  0.4019650000000  0.5463950000000  0.5356690000000 1.0
C      1  0.3989180000000  0.5584210000000  0.4744670000000 1.0
C      1  0.5232180000000  0.5962140000000  0.5419530000000 1.0
C      1  0.5273730000000  0.5850600000000  0.4320580000000 1.0
C      1  0.5251820000000  0.4866600000000  0.3985790000000 1.0
C      1  0.5215010000000  0.3996990000000  0.4593970000000 1.0
C      1  0.5214350000000  0.4145370000000  0.5638500000000 1.0
C      1  0.5233000000000  0.5124220000000  0.6048280000000 1.0
C      1  0.4724080000000  0.6032490000000  0.5408090000000 1.0
C      1  0.4749960000000  0.5829460000000  0.4391110000000 1.0
C      1  0.4715210000000  0.4808090000000  0.3894070000000 1.0
C      1  0.4715550000000  0.3912140000000  0.4605470000000 1.0
C      1  0.4708830000000  0.4130360000000  0.5709300000000 1.0
C      1  0.4720190000000  0.5170570000000  0.6068010000000 1.0
C      1  0.4690510000000  0.4713570000000  0.4914280000000 1.0
C      1  0.4716170000000  0.4812350000000  0.5204920000000 1.0
C      1  0.4879720000000  0.5052110000000  0.5211320000000 1.0
C      1  0.4741020000000  0.5264300000000  0.5059250000000 1.0
C      1  0.4697850000000  0.5165820000000  0.4779610000000 1.0
C      1  0.4832750000000  0.4904560000000  0.4756410000000 1.0
C      1  0.5237940000000  0.4691920000000  0.4960370000000 1.0
C      1  0.5297660000000  0.4788200000000  0.5246780000000 1.0
C      1  0.5304050000000  0.5089760000000  0.5281390000000 1.0
C      1  0.5315610000000  0.5274960000000  0.5041310000000 1.0
C      1  0.5216600000000  0.5156590000000  0.4791940000000 1.0
C      1  0.5436900000000  0.4721550000000  0.4726910000000 1.0
C      1  0.4348670000000  0.4175370000000  0.4366580000000 1.0
C      1  0.4281490000000  0.4194710000000  0.5291290000000 1.0
C      1  0.4295980000000  0.4906800000000  0.5855780000000 1.0
C      1  0.4322390000000  0.5655990000000  0.5505520000000 1.0
C      1  0.4292320000000  0.5823000000000  0.4695130000000 1.0
C      1  0.4267200000000  0.5152680000000  0.4215020000000 1.0
C      1  0.5664590000000  0.4194100000000  0.4372520000000 1.0
C      1  0.5647110000000  0.4207210000000  0.5261550000000 1.0
C      1  0.5699940000000  0.4882700000000  0.5862750000000 1.0
C      1  0.5703280000000  0.5702130000000  0.5580900000000 1.0
C      1  0.5707600000000  0.5786240000000  0.4727910000000 1.0
C      1  0.5670110000000  0.5116570000000  0.4178110000000 1.0
C      1  0.4449990000000  0.5071330000000  0.4421840000000 1.0
C      1  0.4415780000000  0.4553170000000  0.4568770000000 1.0
C      1  0.4437630000000  0.4412080000000  0.5126420000000 1.0
C      1  0.4467380000000  0.4874350000000  0.5610590000000 1.0
C      1  0.4514080000000  0.5473960000000  0.5383700000000 1.0
C      1  0.4431150000000  0.5575490000000  0.4773600000000 1.0
C      1  0.5540080000000  0.5053410000000  0.4450970000000 1.0
C      1  0.5515590000000  0.4440810000000  0.4635930000000 1.0
C      1  0.5675050000000  0.4441480000000  0.5093590000000 1.0
C      1  0.5552270000000  0.4949020000000  0.5619940000000 1.0
C      1  0.5555850000000  0.5510200000000  0.5415520000000 1.0
C      1  0.5522070000000  0.5571580000000  0.4780440000000 1.0
C      1  0.4305570000000  0.5343220000000  0.4932400000000 1.0
C      1  0.4398370000000  0.5072550000000  0.4719070000000 1.0
C      1  0.4400310000000  0.4764410000000  0.4812600000000 1.0
C      1  0.4294610000000  0.4701860000000  0.5112930000000 1.0
C      1  0.4439670000000  0.4921730000000  0.5300920000000 1.0
C      1  0.4468860000000  0.5257320000000  0.5184100000000 1.0
C      1  0.5597790000000  0.5331230000000  0.4944930000000 1.0
C      1  0.5702410000000  0.5122910000000  0.4728320000000 1.0
C      1  0.5701530000000  0.4830530000000  0.4835500000000 1.0
C      1  0.5719430000000  0.4749950000000  0.5147100000000 1.0
C      1  0.5728320000000  0.5008180000000  0.5373920000000 1.0
C      1  0.5720770000000  0.5316970000000  0.5254000000000 1.0
C      1  0.4442740000000  0.4354910000000  0.4171820000000 1.0
C      1  0.4388980000000  0.3974020000000  0.5105950000000 1.0
C      1  0.4432440000000  0.4566460000000  0.5928280000000 1.0
C      1  0.4406470000000  0.5603880000000  0.5794690000000 1.0
C      1  0.4400140000000  0.6017570000000  0.4908960000000 1.0
C      1  0.4403560000000  0.5415460000000  0.4144800000000 1.0
C      1  0.5567060000000  0.4406890000000  0.4202070000000 1.0
C      1  0.5564680000000  0.3983660000000  0.5078870000000 1.0
C      1  0.5610340000000  0.4592560000000  0.5902530000000 1.0
C      1  0.5605560000000  0.5591640000000  0.5849210000000 1.0
C      1  0.5583770000000  0.5982960000000  0.4930970000000 1.0
C      1  0.5567450000000  0.5392130000000  0.4092400000000 1.0
C      1  0.4699640000000  0.5420640000000  0.4090670000000 1.0
C      1  0.4730670000000  0.4348650000000  0.4122010000000 1.0
C      1  0.4694670000000  0.3930490000000  0.5112340000000 1.0
C      1  0.4724950000000  0.4557270000000  0.5968060000000 1.0
C      1  0.4712960000000  0.5608000000000  0.5840390000000 1.0
C      1  0.4706440000000  0.6016500000000  0.4925690000000 1.0
C      1  0.5268600000000  0.5411040000000  0.4105520000000 1.0
C      1  0.5276770000000  0.4388340000000  0.4154470000000 1.0
C      1  0.5265420000000  0.3957680000000  0.5084510000000 1.0
C      1  0.5299470000000  0.4559310000000  0.5919590000000 1.0
C      1  0.5293530000000  0.5579000000000  0.5854640000000 1.0
C      1  0.5282950000000  0.6023860000000  0.4917940000000 1.0
C      1  0.4413110000000  0.5934510000000  0.5408090000000 1.0
C      1  0.4414660000000  0.5865300000000  0.4412380000000 1.0
C      1  0.4432740000000  0.4852600000000  0.4041240000000 1.0
C      1  0.4431750000000  0.4035310000000  0.4604440000000 1.0
C      1  0.4414000000000  0.4224310000000  0.5576620000000 1.0
C      1  0.4402370000000  0.5143250000000  0.5994700000000 1.0
C      1  0.5589430000000  0.5952150000000  0.5462570000000 1.0
C      1  0.5590420000000  0.5795640000000  0.4407850000000 1.0
C      1  0.5577730000000  0.4880930000000  0.3995030000000 1.0
C      1  0.5538930000000  0.3993070000000  0.4548970000000 1.0
C      1  0.5586730000000  0.4227650000000  0.5551280000000 1.0
C      1  0.5609560000000  0.5104570000000  0.6031750000000 1.0
C      1  0.5126090000000  0.5222400000000  0.4291210000000 1.0
C      1  0.5121980000000  0.4438380000000  0.4408240000000 1.0
C      1  0.5121440000000  0.4209730000000  0.5161170000000 1.0
C      1  0.5148580000000  0.4744560000000  0.5741010000000 1.0
C      1  0.5151300000000  0.5510750000000  0.5598530000000 1.0
C      1  0.5110830000000  0.5848670000000  0.4733330000000 1.0
C      1  0.4862450000000  0.5167420000000  0.4143500000000 1.0
C      1  0.4858460000000  0.4286450000000  0.4382910000000 1.0
C      1  0.4855650000000  0.4120230000000  0.5284740000000 1.0
C      1  0.4885070000000  0.4801560000000  0.5886120000000 1.0
C      1  0.4892040000000  0.5672200000000  0.5606780000000 1.0
C      1  0.4850380000000  0.5758470000000  0.4861190000000 1.0
C      1  0.3906640000000  0.4996660000000  0.5247980000000 1.0
C      1  0.3925840000000  0.5262830000000  0.5142880000000 1.0
C      1  0.3883430000000  0.5315220000000  0.4856710000000 1.0
C      1  0.3957690000000  0.5090220000000  0.4679990000000 1.0
C      1  0.3932600000000  0.4809800000000  0.4792260000000 1.0
C      1  0.3864550000000  0.4764700000000  0.5078850000000 1.0
C      1  0.6183560000000  0.5043640000000  0.5277060000000 1.0
C      1  0.6154460000000  0.5305780000000  0.5154130000000 1.0
C      1  0.6056400000000  0.5337090000000  0.4879100000000 1.0
C      1  0.6135010000000  0.5109960000000  0.4693570000000 1.0
C      1  0.6146130000000  0.4832980000000  0.4810610000000 1.0
C      1  0.6153040000000  0.4812220000000  0.5107730000000 1.0
C      1  0.4659800000000  0.4353030000000  0.4614970000000 1.0
C      1  0.4684130000000  0.4365000000000  0.5337660000000 1.0
C      1  0.4717230000000  0.5001220000000  0.5719050000000 1.0
C      1  0.4742870000000  0.5648810000000  0.5342690000000 1.0
C      1  0.4702350000000  0.5621200000000  0.4647780000000 1.0
C      1  0.4697470000000  0.4965940000000  0.4298400000000 1.0
C      1  0.5237960000000  0.4303140000000  0.4657530000000 1.0
C      1  0.5251360000000  0.4345330000000  0.5401180000000 1.0
C      1  0.5280950000000  0.5018190000000  0.5742720000000 1.0
C      1  0.5289480000000  0.5637720000000  0.5366390000000 1.0
C      1  0.5267650000000  0.5605780000000  0.4624660000000 1.0
C      1  0.5271700000000  0.4958170000000  0.4304900000000 1.0
C      1  0.4934120000000  0.4016270000000  0.5554710000000 1.0
C      1  0.5024750000000  0.5977030000000  0.4476150000000 1.0
C      1  0.4945220000000  0.5008100000000  0.3903570000000 1.0
C      1  0.4938180000000  0.3999400000000  0.4425010000000 1.0
C      1  0.4963870000000  0.4975170000000  0.6118260000000 1.0
C      1  0.4971330000000  0.5958340000000  0.5592280000000 1.0
C      1  0.5078030000000  0.4931580000000  0.4892110000000 1.0
END
