TITL C-3578195-8548-212 -5.93071461452456e-06 125000 -1241.63770341462 0 0 200 (C1) n - 1
REM
REM in /home/bkarasulu/work/CARBON/AIRSS/Generating-Clusters/EDIP-Nigel-Params/with-SteepDescent/Higher-Symm/SD-CG/HFTN-CG
REM
REM
REM
REM
REM
REM ./C.cell (12c818d87b63d06a65506943cc24bca4)
REM
REM compiler GCC version 9.2.1 20190827 (Red Hat 9.2.1-1)
REM options -cpp -mtune=generic -march=x86-64 -g -O0 -fpre-include=/usr/include/finclude/math-vector-fortran.h
REM seed 436408007 -1661826772 962698320 1725596537 1322083292 251697744 1635737803 -1858666188 1216002597 -1372133363 2133142377 1107616371 -1671715880 -303898205 497774105 -1982586132 -1816137551 -1913093935 -152581166 -893548862 -1347071985 -1214858035 922548077 1823650391 -32746290 1291150164 -2059426617 1330718625 -63965217 1056090131 744429560 715053343 1759948890
REM
CELL 1.54180   50.00000   50.00000   50.00000   90.00000   90.00000   90.00000
LATT -1
SFAC C  
C      1  0.4408130000000  0.5450090000000  0.4125740000000 1.0
C      1  0.5598720000000  0.4565850000000  0.5814700000000 1.0
C      1  0.5060000000000  0.3912230000000  0.4951050000000 1.0
C      1  0.4945670000000  0.6082540000000  0.5044940000000 1.0
C      1  0.4575160000000  0.5765410000000  0.4831290000000 1.0
C      1  0.5442700000000  0.4177930000000  0.5208020000000 1.0
C      1  0.4640520000000  0.3866980000000  0.4521750000000 1.0
C      1  0.5334970000000  0.6125950000000  0.5481600000000 1.0
C      1  0.6004090000000  0.5264280000000  0.4758040000000 1.0
C      1  0.3985210000000  0.4732150000000  0.5263060000000 1.0
C      1  0.5263580000000  0.6025480000000  0.4372840000000 1.0
C      1  0.4743420000000  0.3977690000000  0.5624790000000 1.0
C      1  0.5319580000000  0.5437200000000  0.5574080000000 1.0
C      1  0.4683610000000  0.4557470000000  0.4424280000000 1.0
C      1  0.5221760000000  0.5871230000000  0.5698200000000 1.0
C      1  0.4761540000000  0.4139920000000  0.4296890000000 1.0
C      1  0.5027130000000  0.5589890000000  0.3888470000000 1.0
C      1  0.4996020000000  0.4425720000000  0.6094050000000 1.0
C      1  0.4701770000000  0.5118790000000  0.5390130000000 1.0
C      1  0.5282190000000  0.4887420000000  0.4613040000000 1.0
C      1  0.5743830000000  0.5302340000000  0.4027640000000 1.0
C      1  0.4273130000000  0.4688590000000  0.5984900000000 1.0
C      1  0.5537830000000  0.5648160000000  0.5092470000000 1.0
C      1  0.4458680000000  0.4351630000000  0.4913420000000 1.0
C      1  0.5274390000000  0.5588320000000  0.5835350000000 1.0
C      1  0.4728270000000  0.4425910000000  0.4166490000000 1.0
C      1  0.6124950000000  0.5143200000000  0.5207550000000 1.0
C      1  0.3853170000000  0.4847210000000  0.4799830000000 1.0
C      1  0.5385170000000  0.4389580000000  0.4657170000000 1.0
C      1  0.4606090000000  0.5619210000000  0.5190530000000 1.0
C      1  0.5408370000000  0.5643200000000  0.5369830000000 1.0
C      1  0.4589880000000  0.4367940000000  0.4633420000000 1.0
C      1  0.4357540000000  0.5153630000000  0.5995660000000 1.0
C      1  0.5683780000000  0.4821570000000  0.3984080000000 1.0
C      1  0.5005890000000  0.4633930000000  0.4715910000000 1.0
C      1  0.4986030000000  0.5377180000000  0.5292230000000 1.0
C      1  0.5429140000000  0.4452590000000  0.4359330000000 1.0
C      1  0.4523820000000  0.5572410000000  0.5756040000000 1.0
C      1  0.5881320000000  0.4390290000000  0.4550620000000 1.0
C      1  0.4131690000000  0.5601220000000  0.5448400000000 1.0
C      1  0.5671300000000  0.5128530000000  0.5095190000000 1.0
C      1  0.4280540000000  0.4895170000000  0.4905180000000 1.0
C      1  0.5536570000000  0.4121540000000  0.5679930000000 1.0
C      1  0.4466010000000  0.5834540000000  0.4351680000000 1.0
C      1  0.5090290000000  0.4333360000000  0.4707700000000 1.0
C      1  0.4898460000000  0.5668420000000  0.5274640000000 1.0
C      1  0.5661790000000  0.5131580000000  0.4649680000000 1.0
C      1  0.4334650000000  0.4869690000000  0.5347810000000 1.0
C      1  0.4210980000000  0.5869830000000  0.5440010000000 1.0
C      1  0.5791190000000  0.4121170000000  0.4566090000000 1.0
C      1  0.5458250000000  0.4657790000000  0.3938020000000 1.0
C      1  0.4554580000000  0.5350320000000  0.6065440000000 1.0
C      1  0.5453350000000  0.4733500000000  0.5992880000000 1.0
C      1  0.4562950000000  0.5282700000000  0.3954610000000 1.0
C      1  0.4987240000000  0.4116220000000  0.4499050000000 1.0
C      1  0.4983110000000  0.5889760000000  0.5500310000000 1.0
C      1  0.5715980000000  0.4530340000000  0.4352050000000 1.0
C      1  0.4296030000000  0.5439410000000  0.5624530000000 1.0
C      1  0.5501810000000  0.4768270000000  0.5357570000000 1.0
C      1  0.4523760000000  0.5082400000000  0.4706170000000 1.0
C      1  0.5146560000000  0.5708470000000  0.4799990000000 1.0
C      1  0.4865270000000  0.4284780000000  0.5195290000000 1.0
C      1  0.5890920000000  0.4742770000000  0.5352160000000 1.0
C      1  0.4106380000000  0.5226430000000  0.4670070000000 1.0
C      1  0.5867360000000  0.4337270000000  0.5046740000000 1.0
C      1  0.4124700000000  0.5646910000000  0.4943510000000 1.0
C      1  0.5862890000000  0.5578040000000  0.4405010000000 1.0
C      1  0.4143120000000  0.4421520000000  0.5605170000000 1.0
C      1  0.4436000000000  0.5613990000000  0.4574710000000 1.0
C      1  0.5594670000000  0.4304800000000  0.5435900000000 1.0
C      1  0.4075090000000  0.5070850000000  0.4419910000000 1.0
C      1  0.5924960000000  0.4929960000000  0.5598240000000 1.0
C      1  0.4664080000000  0.4604970000000  0.5582570000000 1.0
C      1  0.5337360000000  0.5403390000000  0.4419320000000 1.0
C      1  0.4741970000000  0.6007870000000  0.4714560000000 1.0
C      1  0.5252890000000  0.3965280000000  0.5298160000000 1.0
C      1  0.5117760000000  0.5009740000000  0.5611690000000 1.0
C      1  0.4872020000000  0.5021140000000  0.4370970000000 1.0
C      1  0.4467940000000  0.4063650000000  0.4993780000000 1.0
C      1  0.5528550000000  0.5934740000000  0.5007210000000 1.0
C      1  0.5371350000000  0.5111150000000  0.3779700000000 1.0
C      1  0.4643210000000  0.4876290000000  0.6229510000000 1.0
C      1  0.4569310000000  0.5107290000000  0.4420600000000 1.0
C      1  0.5430080000000  0.5011880000000  0.5506140000000 1.0
C      1  0.4121650000000  0.4338740000000  0.4597520000000 1.0
C      1  0.5884980000000  0.5672100000000  0.5402940000000 1.0
C      1  0.4607600000000  0.4381340000000  0.5776480000000 1.0
C      1  0.5397580000000  0.5625960000000  0.4227230000000 1.0
C      1  0.5839270000000  0.5575880000000  0.5118570000000 1.0
C      1  0.4154390000000  0.4422420000000  0.4889070000000 1.0
C      1  0.4924770000000  0.3804660000000  0.5194620000000 1.0
C      1  0.5065720000000  0.6189870000000  0.4795200000000 1.0
C      1  0.4168480000000  0.5513830000000  0.4681830000000 1.0
C      1  0.5862950000000  0.4432170000000  0.5329080000000 1.0
C      1  0.5558080000000  0.4144270000000  0.4726890000000 1.0
C      1  0.4419610000000  0.5877830000000  0.5254340000000 1.0
C      1  0.5017070000000  0.4443050000000  0.5383490000000 1.0
C      1  0.4979020000000  0.5556910000000  0.4617610000000 1.0
C      1  0.4978030000000  0.4567400000000  0.4034080000000 1.0
C      1  0.5040700000000  0.5451550000000  0.5988210000000 1.0
C      1  0.4580300000000  0.5283910000000  0.5138340000000 1.0
C      1  0.5414630000000  0.4724600000000  0.4854640000000 1.0
C      1  0.4979400000000  0.5292060000000  0.4781620000000 1.0
C      1  0.5023110000000  0.4708230000000  0.5223090000000 1.0
C      1  0.5078690000000  0.4936890000000  0.6283210000000 1.0
C      1  0.4937490000000  0.5076500000000  0.3704400000000 1.0
C      1  0.5540630000000  0.5474740000000  0.5952920000000 1.0
C      1  0.4468790000000  0.4546660000000  0.4038650000000 1.0
C      1  0.4329510000000  0.4090810000000  0.5264630000000 1.0
C      1  0.5672190000000  0.5910330000000  0.4739710000000 1.0
C      1  0.4386890000000  0.4167160000000  0.4516030000000 1.0
C      1  0.5610400000000  0.5840210000000  0.5486770000000 1.0
C      1  0.4562150000000  0.4819350000000  0.5765110000000 1.0
C      1  0.5441460000000  0.5189010000000  0.4237690000000 1.0
C      1  0.5982070000000  0.5019800000000  0.4367490000000 1.0
C      1  0.4030320000000  0.4971740000000  0.5644900000000 1.0
C      1  0.5647810000000  0.5085270000000  0.3860410000000 1.0
C      1  0.4367710000000  0.4906780000000  0.6148760000000 1.0
C      1  0.6069700000000  0.4854400000000  0.5137420000000 1.0
C      1  0.3910730000000  0.5136860000000  0.4869570000000 1.0
C      1  0.4913320000000  0.5702410000000  0.4351940000000 1.0
C      1  0.5086180000000  0.4296570000000  0.5645950000000 1.0
C      1  0.5646660000000  0.4140930000000  0.5005610000000 1.0
C      1  0.4325400000000  0.5867660000000  0.4974640000000 1.0
C      1  0.6074650000000  0.5174710000000  0.5498970000000 1.0
C      1  0.3931470000000  0.4823180000000  0.4510780000000 1.0
C      1  0.5518870000000  0.4301580000000  0.5909190000000 1.0
C      1  0.4490900000000  0.5719700000000  0.4086110000000 1.0
C      1  0.5469120000000  0.4547940000000  0.5545480000000 1.0
C      1  0.4530590000000  0.5395520000000  0.4384190000000 1.0
C      1  0.5942820000000  0.5439400000000  0.5590110000000 1.0
C      1  0.4076700000000  0.4576140000000  0.4416000000000 1.0
C      1  0.5163860000000  0.5802470000000  0.4191490000000 1.0
C      1  0.4840340000000  0.4203290000000  0.5807320000000 1.0
C      1  0.5657550000000  0.5764310000000  0.4275370000000 1.0
C      1  0.4351070000000  0.4236940000000  0.5729370000000 1.0
C      1  0.5663480000000  0.4929130000000  0.4877920000000 1.0
C      1  0.4308290000000  0.5080530000000  0.5133760000000 1.0
C      1  0.4854450000000  0.4812820000000  0.3865990000000 1.0
C      1  0.5164700000000  0.5197440000000  0.6124930000000 1.0
C      1  0.4144180000000  0.4701680000000  0.5727700000000 1.0
C      1  0.5863970000000  0.5293530000000  0.4289100000000 1.0
C      1  0.4551620000000  0.4787060000000  0.4779830000000 1.0
C      1  0.5448400000000  0.5219870000000  0.5272590000000 1.0
C      1  0.4754420000000  0.4015620000000  0.5318030000000 1.0
C      1  0.5248140000000  0.5984730000000  0.4677390000000 1.0
C      1  0.5585360000000  0.4984230000000  0.5986530000000 1.0
C      1  0.4417100000000  0.5034310000000  0.3969020000000 1.0
C      1  0.5024630000000  0.4655500000000  0.6256420000000 1.0
C      1  0.5004170000000  0.5356370000000  0.3728130000000 1.0
C      1  0.5305600000000  0.4753880000000  0.5133480000000 1.0
C      1  0.4706160000000  0.5228210000000  0.4874940000000 1.0
C      1  0.5044440000000  0.6140660000000  0.5335160000000 1.0
C      1  0.4933930000000  0.3869270000000  0.4664010000000 1.0
C      1  0.6081980000000  0.5003800000000  0.4652550000000 1.0
C      1  0.3912570000000  0.4992530000000  0.5369020000000 1.0
C      1  0.4947860000000  0.5118060000000  0.4088510000000 1.0
C      1  0.5067250000000  0.4896620000000  0.5896640000000 1.0
C      1  0.5524300000000  0.5413970000000  0.4670530000000 1.0
C      1  0.4477530000000  0.4585500000000  0.5332700000000 1.0
C      1  0.4732160000000  0.5940830000000  0.4420740000000 1.0
C      1  0.5258350000000  0.4044840000000  0.5592410000000 1.0
C      1  0.5917170000000  0.5291120000000  0.5046330000000 1.0
C      1  0.4052880000000  0.4697180000000  0.4971940000000 1.0
C      1  0.5923410000000  0.4515530000000  0.4814590000000 1.0
C      1  0.4059430000000  0.5486930000000  0.5188210000000 1.0
C      1  0.5063790000000  0.4207100000000  0.4980130000000 1.0
C      1  0.4972900000000  0.5793630000000  0.5021890000000 1.0
C      1  0.4904140000000  0.4879110000000  0.5441530000000 1.0
C      1  0.5090410000000  0.5133040000000  0.4552540000000 1.0
C      1  0.5181650000000  0.4476470000000  0.5878220000000 1.0
C      1  0.4830070000000  0.5534180000000  0.4093760000000 1.0
C      1  0.4910520000000  0.4725350000000  0.4442490000000 1.0
C      1  0.5057070000000  0.5301900000000  0.5572980000000 1.0
C      1  0.5757650000000  0.5621350000000  0.4683680000000 1.0
C      1  0.4243120000000  0.4379890000000  0.5323220000000 1.0
C      1  0.5197110000000  0.5279220000000  0.5080810000000 1.0
C      1  0.4800310000000  0.4713730000000  0.4940500000000 1.0
C      1  0.5270640000000  0.4556560000000  0.4121510000000 1.0
C      1  0.4763400000000  0.5433640000000  0.5878480000000 1.0
C      1  0.4461210000000  0.5038760000000  0.5579510000000 1.0
C      1  0.5527180000000  0.4972420000000  0.4423580000000 1.0
C      1  0.5756060000000  0.4817380000000  0.4276670000000 1.0
C      1  0.4168940000000  0.5215800000000  0.5775240000000 1.0
C      1  0.4323170000000  0.4978140000000  0.4252530000000 1.0
C      1  0.5670230000000  0.5056090000000  0.5715420000000 1.0
C      1  0.5712770000000  0.5345420000000  0.5744920000000 1.0
C      1  0.4299080000000  0.4679300000000  0.4249560000000 1.0
C      1  0.4650440000000  0.4488460000000  0.5096930000000 1.0
C      1  0.5352060000000  0.5501910000000  0.4909050000000 1.0
C      1  0.5460120000000  0.5225160000000  0.6105630000000 1.0
C      1  0.4555300000000  0.4786200000000  0.3875090000000 1.0
C      1  0.5950380000000  0.4811480000000  0.4861790000000 1.0
C      1  0.4021740000000  0.5190680000000  0.5151800000000 1.0
C      1  0.5575110000000  0.6069720000000  0.5274670000000 1.0
C      1  0.4409920000000  0.3932440000000  0.4727950000000 1.0
C      1  0.5570800000000  0.5995610000000  0.4453850000000 1.0
C      1  0.4436120000000  0.4006310000000  0.5548330000000 1.0
C      1  0.4770690000000  0.4884590000000  0.5968020000000 1.0
C      1  0.5242570000000  0.5111000000000  0.4036340000000 1.0
END
