TITL C-3578207-9274-95 -8.43658347375194e-07 125000 -396.870073028885 0 0 65 (C1) n - 1
REM
REM in /home/bkarasulu/work/CARBON/AIRSS/Generating-Clusters/EDIP-Nigel-Params/with-SteepDescent/Higher-Symm/SD-CG/HFTN-CG
REM
REM
REM
REM
REM
REM ./C.cell (12c818d87b63d06a65506943cc24bca4)
REM
REM compiler GCC version 9.2.1 20190827 (Red Hat 9.2.1-1)
REM options -cpp -mtune=generic -march=x86-64 -g -O0 -fpre-include=/usr/include/finclude/math-vector-fortran.h
REM seed -135381427 -1473835652 -1540558374 -1662468134 -184069669 -522912740 -269652609 1123516393 -2053428672 -930217629 -2039734321 -1184884974 428338674 1952894236 142667985 406543521 -938983868 1262800393 1189019854 1347178456 -1812415392 -1314753014 1342019265 -901442377 312657076 -1120470679 642691283 -1224524122 730532736 149170066 1086986497 -628749339 -1696319832
REM
CELL 1.54180   50.00000   50.00000   50.00000   90.00000   90.00000   90.00000
LATT -1
SFAC C  
C      1  0.4982510000000  0.5576500000000  0.5187780000000 1.0
C      1  0.5514300000000  0.4702090000000  0.5156100000000 1.0
C      1  0.4481940000000  0.4698290000000  0.5198560000000 1.0
C      1  0.4990050000000  0.5582870000000  0.4794820000000 1.0
C      1  0.5509090000000  0.4714060000000  0.4763160000000 1.0
C      1  0.4501380000000  0.4682920000000  0.4801800000000 1.0
C      1  0.5418430000000  0.4902220000000  0.4324210000000 1.0
C      1  0.4692960000000  0.4621280000000  0.4365460000000 1.0
C      1  0.4869820000000  0.5398110000000  0.4361120000000 1.0
C      1  0.5483570000000  0.4894320000000  0.5591080000000 1.0
C      1  0.4705570000000  0.4717380000000  0.5631740000000 1.0
C      1  0.4880220000000  0.5415630000000  0.5623320000000 1.0
C      1  0.5250670000000  0.5668430000000  0.5522990000000 1.0
C      1  0.5322010000000  0.4447900000000  0.5459900000000 1.0
C      1  0.4369060000000  0.5026240000000  0.5467560000000 1.0
C      1  0.5329720000000  0.5523750000000  0.4521520000000 1.0
C      1  0.5363530000000  0.4456290000000  0.4441330000000 1.0
C      1  0.4347480000000  0.4912400000000  0.4464340000000 1.0
C      1  0.5407610000000  0.5656160000000  0.5277370000000 1.0
C      1  0.5289480000000  0.4321280000000  0.5185700000000 1.0
C      1  0.4276940000000  0.5091980000000  0.5190440000000 1.0
C      1  0.5433030000000  0.5564450000000  0.4803840000000 1.0
C      1  0.5303680000000  0.4327290000000  0.4702780000000 1.0
C      1  0.4256950000000  0.5040850000000  0.4713190000000 1.0
C      1  0.5269640000000  0.5154870000000  0.4757670000000 1.0
C      1  0.4994400000000  0.4739000000000  0.4736110000000 1.0
C      1  0.4773480000000  0.5125050000000  0.4751900000000 1.0
C      1  0.5198150000000  0.5100460000000  0.5232870000000 1.0
C      1  0.5004610000000  0.4662890000000  0.5219950000000 1.0
C      1  0.4716370000000  0.5150630000000  0.5219630000000 1.0
C      1  0.5026580000000  0.4304430000000  0.4791810000000 1.0
C      1  0.4374360000000  0.5300370000000  0.4769340000000 1.0
C      1  0.5530140000000  0.5328080000000  0.4953240000000 1.0
C      1  0.5014370000000  0.4368840000000  0.5081810000000 1.0
C      1  0.4442870000000  0.5299160000000  0.5058360000000 1.0
C      1  0.5534040000000  0.5388430000000  0.5250450000000 1.0
C      1  0.5175230000000  0.4740600000000  0.4243400000000 1.0
C      1  0.4688730000000  0.4909160000000  0.4269690000000 1.0
C      1  0.5074260000000  0.5208860000000  0.4268600000000 1.0
C      1  0.5224210000000  0.4810850000000  0.5701240000000 1.0
C      1  0.4790090000000  0.4985200000000  0.5693530000000 1.0
C      1  0.5180940000000  0.5314420000000  0.5669750000000 1.0
C      1  0.5059760000000  0.4609960000000  0.5536250000000 1.0
C      1  0.4670970000000  0.5200290000000  0.5530030000000 1.0
C      1  0.5377090000000  0.5189050000000  0.5440290000000 1.0
C      1  0.4963330000000  0.4555220000000  0.4506810000000 1.0
C      1  0.4637810000000  0.5211090000000  0.4503580000000 1.0
C      1  0.5325960000000  0.5192100000000  0.4441390000000 1.0
C      1  0.4448890000000  0.4739830000000  0.5490010000000 1.0
C      1  0.4969980000000  0.5646590000000  0.5471140000000 1.0
C      1  0.5550220000000  0.4645980000000  0.5442500000000 1.0
C      1  0.4442080000000  0.4640850000000  0.4518000000000 1.0
C      1  0.5038400000000  0.5607000000000  0.4506330000000 1.0
C      1  0.5546520000000  0.4681990000000  0.4474220000000 1.0
C      1  0.4745960000000  0.4840000000000  0.5143600000000 1.0
C      1  0.4979350000000  0.5275270000000  0.5138620000000 1.0
C      1  0.5239620000000  0.4834080000000  0.5120750000000 1.0
C      1  0.4752640000000  0.4848620000000  0.4844900000000 1.0
C      1  0.5002160000000  0.5281100000000  0.4844750000000 1.0
C      1  0.5249420000000  0.4860030000000  0.4826080000000 1.0
C      1  0.5281980000000  0.5732780000000  0.5003780000000 1.0
C      1  0.4222930000000  0.4883500000000  0.4976660000000 1.0
C      1  0.5478340000000  0.4376680000000  0.4950240000000 1.0
C      1  0.4970080000000  0.4951880000000  0.4183170000000 1.0
C      1  0.5064760000000  0.5041720000000  0.5774430000000 1.0
END
