TITL C-3577078-809-15 2.56154495604968e-06 125000 -46.812127839349 0 0 9 (C1) n - 1
REM
REM in /home/bkarasulu/work/CARBON/AIRSS/Generating-Clusters/EDIP-Nigel-Params/with-SteepDescent/Higher-Symm/SD-CG/HFTN-CG
REM
REM
REM
REM
REM
REM ./C.cell (12c818d87b63d06a65506943cc24bca4)
REM
REM compiler GCC version 9.2.1 20190827 (Red Hat 9.2.1-1)
REM options -cpp -mtune=generic -march=x86-64 -g -O0 -fpre-include=/usr/include/finclude/math-vector-fortran.h
REM seed -1299798425 -3340104 -1513151888 73939713 -917084666 121149645 -136674322 -1028178115 -337219722 1953060887 -1505180716 -1861187082 -788112128 -87859992 1503525760 -48182233 -1654767421 -1008424320 70095745 604554085 373476554 784964497 -1141939000 501132978 -727955907 373181964 -1887639228 38993084 484952543 -1985097244 -168692983 1867390184 -1172563894
REM
CELL 1.54180   50.00000   50.00000   50.00000   90.00000   90.00000   90.00000
LATT -1
SFAC C  
C      1  0.4810550000000  0.5157930000000  0.5406540000000 1.0
C      1  0.4772250000000  0.5019810000000  0.5148450000000 1.0
C      1  0.4849590000000  0.4776210000000  0.5326060000000 1.0
C      1  0.5145930000000  0.4817180000000  0.5387360000000 1.0
C      1  0.5232920000000  0.4879240000000  0.5125920000000 1.0
C      1  0.5021940000000  0.5012570000000  0.4990150000000 1.0
C      1  0.4998200000000  0.4990640000000  0.4716490000000 1.0
C      1  0.5040280000000  0.5048100000000  0.5536240000000 1.0
C      1  0.4987440000000  0.5008370000000  0.4461280000000 1.0
END
