TITL C-3577077-324-548 0.000136445886849663 125000 -495.010389833352 0 0 83 (C1) n - 1
REM
REM in /home/bkarasulu/work/CARBON/AIRSS/Generating-Clusters/EDIP-Nigel-Params/with-SteepDescent/Higher-Symm/SD-CG/HFTN-CG
REM
REM
REM
REM
REM
REM ./C.cell (12c818d87b63d06a65506943cc24bca4)
REM
REM compiler GCC version 9.2.1 20190827 (Red Hat 9.2.1-1)
REM options -cpp -mtune=generic -march=x86-64 -g -O0 -fpre-include=/usr/include/finclude/math-vector-fortran.h
REM seed 1358449687 -1225163819 158880269 875155434 1676467756 1468861096 -1373079643 -526970455 1803542875 -1068059502 -1695504304 -1205570279 120681895 -1306705853 -1778511076 -966978734 -30913819 1079803664 1343940883 -1369758524 1944629942 -1427135150 1756782257 -139945410 -1986520425 82634445 -1037470742 -1657148768 -836638167 1444760409 1197818910 1972734332 -1615227447
REM
CELL 1.54180   50.00000   50.00000   50.00000   90.00000   90.00000   90.00000
LATT -1
SFAC C  
C      1  0.5331780000000  0.5304540000000  0.4547720000000 1.0
C      1  0.5408820000000  0.4740560000000  0.5482020000000 1.0
C      1  0.5320260000000  0.4843510000000  0.4573510000000 1.0
C      1  0.5311500000000  0.5222550000000  0.5483190000000 1.0
C      1  0.5115570000000  0.5523490000000  0.4575870000000 1.0
C      1  0.5220660000000  0.4520170000000  0.5415600000000 1.0
C      1  0.5192760000000  0.4566320000000  0.4547370000000 1.0
C      1  0.5223320000000  0.5508730000000  0.5564490000000 1.0
C      1  0.5550750000000  0.5270300000000  0.4784710000000 1.0
C      1  0.5625250000000  0.4775160000000  0.5274570000000 1.0
C      1  0.5596490000000  0.4814230000000  0.4724420000000 1.0
C      1  0.5599080000000  0.5266630000000  0.5339620000000 1.0
C      1  0.5245110000000  0.4374260000000  0.5153120000000 1.0
C      1  0.5072160000000  0.5646190000000  0.4847300000000 1.0
C      1  0.5147030000000  0.5634340000000  0.5304730000000 1.0
C      1  0.5325000000000  0.4379900000000  0.4720300000000 1.0
C      1  0.4723670000000  0.4795450000000  0.5246470000000 1.0
C      1  0.4659950000000  0.5217120000000  0.4785060000000 1.0
C      1  0.4700020000000  0.5347460000000  0.5269650000000 1.0
C      1  0.4756630000000  0.4743220000000  0.4703180000000 1.0
C      1  0.4948910000000  0.5537820000000  0.5686570000000 1.0
C      1  0.4893040000000  0.4542500000000  0.4519660000000 1.0
C      1  0.4946230000000  0.4521980000000  0.5515990000000 1.0
C      1  0.4865070000000  0.5460720000000  0.4439650000000 1.0
C      1  0.5236840000000  0.5889320000000  0.4905640000000 1.0
C      1  0.5231700000000  0.4069510000000  0.5120710000000 1.0
C      1  0.5265620000000  0.4102710000000  0.4800930000000 1.0
C      1  0.5310990000000  0.5861400000000  0.5203570000000 1.0
C      1  0.4855500000000  0.5280830000000  0.5778150000000 1.0
C      1  0.4805800000000  0.4613440000000  0.4243150000000 1.0
C      1  0.4846530000000  0.4735940000000  0.5669630000000 1.0
C      1  0.4821820000000  0.5167960000000  0.4356770000000 1.0
C      1  0.4407230000000  0.5334520000000  0.5226720000000 1.0
C      1  0.4462220000000  0.4655910000000  0.4688570000000 1.0
C      1  0.4450050000000  0.4825550000000  0.5130400000000 1.0
C      1  0.4424760000000  0.5351300000000  0.4510080000000 1.0
C      1  0.5594940000000  0.5750320000000  0.5132550000000 1.0
C      1  0.5575150000000  0.4120270000000  0.4853360000000 1.0
C      1  0.5532800000000  0.4111910000000  0.5146910000000 1.0
C      1  0.5526100000000  0.5870710000000  0.4875550000000 1.0
C      1  0.4983300000000  0.4784440000000  0.4114430000000 1.0
C      1  0.5053170000000  0.5112810000000  0.5903100000000 1.0
C      1  0.5049050000000  0.5045390000000  0.4190520000000 1.0
C      1  0.5032500000000  0.4837840000000  0.5861090000000 1.0
C      1  0.4589440000000  0.5221090000000  0.5682440000000 1.0
C      1  0.4542060000000  0.4701780000000  0.4236110000000 1.0
C      1  0.4568070000000  0.4775410000000  0.5667690000000 1.0
C      1  0.4516830000000  0.5168260000000  0.4306800000000 1.0
C      1  0.4837590000000  0.5621650000000  0.5380660000000 1.0
C      1  0.4775770000000  0.4292630000000  0.4619450000000 1.0
C      1  0.4755030000000  0.4423200000000  0.5335770000000 1.0
C      1  0.4597360000000  0.5575990000000  0.4545690000000 1.0
C      1  0.5771350000000  0.5061350000000  0.4740300000000 1.0
C      1  0.5790540000000  0.5025280000000  0.5281580000000 1.0
C      1  0.4264910000000  0.4868300000000  0.4608880000000 1.0
C      1  0.4294750000000  0.5057810000000  0.5315600000000 1.0
C      1  0.4334500000000  0.5459080000000  0.4969540000000 1.0
C      1  0.4430700000000  0.4499580000000  0.4926420000000 1.0
C      1  0.4874130000000  0.4426860000000  0.5068200000000 1.0
C      1  0.4796050000000  0.5681710000000  0.4994780000000 1.0
C      1  0.4842240000000  0.5358270000000  0.4998020000000 1.0
C      1  0.4877870000000  0.4716090000000  0.4986960000000 1.0
C      1  0.5308450000000  0.5061330000000  0.4337970000000 1.0
C      1  0.5335500000000  0.4972970000000  0.5678070000000 1.0
C      1  0.5551240000000  0.4714750000000  0.4997170000000 1.0
C      1  0.5610730000000  0.5462830000000  0.5111770000000 1.0
C      1  0.4380710000000  0.4911470000000  0.4332960000000 1.0
C      1  0.4422070000000  0.5005120000000  0.5602320000000 1.0
C      1  0.4811960000000  0.5075310000000  0.5395750000000 1.0
C      1  0.4833830000000  0.5031560000000  0.4631190000000 1.0
C      1  0.4539960000000  0.5639970000000  0.4837400000000 1.0
C      1  0.4666330000000  0.4314290000000  0.4884090000000 1.0
C      1  0.5089950000000  0.5136780000000  0.5293340000000 1.0
C      1  0.5114900000000  0.5037270000000  0.4732130000000 1.0
C      1  0.3813140000000  0.5171690000000  0.5226210000000 1.0
C      1  0.5948230000000  0.5049080000000  0.5000940000000 1.0
C      1  0.4154280000000  0.5141150000000  0.4874940000000 1.0
C      1  0.5441030000000  0.5087380000000  0.5027730000000 1.0
C      1  0.6160590000000  0.4869060000000  0.4978280000000 1.0
C      1  0.5157590000000  0.5056380000000  0.5027000000000 1.0
C      1  0.4444400000000  0.5038140000000  0.4898590000000 1.0
C      1  0.4033120000000  0.5052640000000  0.5139160000000 1.0
C      1  0.6378960000000  0.4736390000000  0.4960620000000 1.0
END
