TITL C-3578209-2550-296 3.25700830662059e-07 125000 -862.186172665345 0 0 136 (C1) n - 1
REM
REM in /home/bkarasulu/work/CARBON/AIRSS/Generating-Clusters/EDIP-Nigel-Params/with-SteepDescent/Higher-Symm/SD-CG/HFTN-CG
REM
REM
REM
REM
REM
REM ./C.cell (12c818d87b63d06a65506943cc24bca4)
REM
REM compiler GCC version 9.2.1 20190827 (Red Hat 9.2.1-1)
REM options -cpp -mtune=generic -march=x86-64 -g -O0 -fpre-include=/usr/include/finclude/math-vector-fortran.h
REM seed 1435000669 485420981 -1898651424 1686969116 381614731 1526886561 1379972444 1343813136 -1470649276 -543823168 1743397840 206912418 -995134208 -878834806 2106334059 131550171 1937903893 576533632 1133244434 2079819257 1461839950 1253895384 2107031556 777383030 -365741367 485520826 10068691 1712278048 412109367 1131437097 -1380524555 -969237858 -951365701
REM
CELL 1.54180   50.00000   50.00000   50.00000   90.00000   90.00000   90.00000
LATT -1
SFAC C  
C      1  0.5655480000000  0.4436080000000  0.5309450000000 1.0
C      1  0.5657300000000  0.4533170000000  0.4548280000000 1.0
C      1  0.5653400000000  0.5290950000000  0.4405310000000 1.0
C      1  0.5662840000000  0.5656580000000  0.5081060000000 1.0
C      1  0.5658690000000  0.5121140000000  0.5645860000000 1.0
C      1  0.4392770000000  0.4603970000000  0.5613560000000 1.0
C      1  0.4392850000000  0.4270940000000  0.4799140000000 1.0
C      1  0.4422420000000  0.4909300000000  0.4324280000000 1.0
C      1  0.4424150000000  0.5613340000000  0.4698810000000 1.0
C      1  0.4435250000000  0.5517880000000  0.5510560000000 1.0
C      1  0.4201670000000  0.4677450000000  0.5129820000000 1.0
C      1  0.4175540000000  0.4753330000000  0.4809540000000 1.0
C      1  0.4200590000000  0.5085970000000  0.4752320000000 1.0
C      1  0.4177730000000  0.5298870000000  0.5006850000000 1.0
C      1  0.4194860000000  0.5144590000000  0.5282380000000 1.0
C      1  0.5196380000000  0.5179340000000  0.4825340000000 1.0
C      1  0.5098750000000  0.5225290000000  0.5117430000000 1.0
C      1  0.5188710000000  0.4952980000000  0.5263000000000 1.0
C      1  0.5202060000000  0.4732650000000  0.5034400000000 1.0
C      1  0.5093690000000  0.4880110000000  0.4777070000000 1.0
C      1  0.4817570000000  0.5156120000000  0.4312780000000 1.0
C      1  0.4819080000000  0.5696120000000  0.4932720000000 1.0
C      1  0.4832300000000  0.5299600000000  0.5655210000000 1.0
C      1  0.4820620000000  0.4446680000000  0.5485400000000 1.0
C      1  0.4806690000000  0.4391390000000  0.4621680000000 1.0
C      1  0.5271980000000  0.4243810000000  0.4365590000000 1.0
C      1  0.5270380000000  0.5375130000000  0.4063460000000 1.0
C      1  0.5275830000000  0.5990890000000  0.5057540000000 1.0
C      1  0.5282110000000  0.5255970000000  0.5973220000000 1.0
C      1  0.5283460000000  0.4163240000000  0.5533150000000 1.0
C      1  0.4304310000000  0.4483200000000  0.4350480000000 1.0
C      1  0.4304760000000  0.5411390000000  0.4321610000000 1.0
C      1  0.4312870000000  0.5809350000000  0.5162890000000 1.0
C      1  0.4313170000000  0.5089200000000  0.5795180000000 1.0
C      1  0.4323910000000  0.4206010000000  0.5287890000000 1.0
C      1  0.5802340000000  0.4890370000000  0.5509470000000 1.0
C      1  0.5800200000000  0.4485360000000  0.5046310000000 1.0
C      1  0.5735800000000  0.4825120000000  0.4577860000000 1.0
C      1  0.5714060000000  0.5339750000000  0.4698620000000 1.0
C      1  0.5740940000000  0.5399110000000  0.5228790000000 1.0
C      1  0.4718970000000  0.5551660000000  0.5556310000000 1.0
C      1  0.4674870000000  0.4591990000000  0.5689370000000 1.0
C      1  0.4677110000000  0.4220500000000  0.4816260000000 1.0
C      1  0.4700690000000  0.4897860000000  0.4238690000000 1.0
C      1  0.4699590000000  0.5691090000000  0.4664470000000 1.0
C      1  0.5057770000000  0.5739540000000  0.4290960000000 1.0
C      1  0.5076130000000  0.5902230000000  0.5474760000000 1.0
C      1  0.5070120000000  0.4842050000000  0.5990980000000 1.0
C      1  0.5083190000000  0.4005090000000  0.5139540000000 1.0
C      1  0.5069490000000  0.4571090000000  0.4081440000000 1.0
C      1  0.4903390000000  0.4695400000000  0.4317480000000 1.0
C      1  0.4887110000000  0.5558880000000  0.4481340000000 1.0
C      1  0.4912760000000  0.5660610000000  0.5362260000000 1.0
C      1  0.4812500000000  0.4849950000000  0.5719240000000 1.0
C      1  0.4803610000000  0.4253950000000  0.5077230000000 1.0
C      1  0.5647680000000  0.5623140000000  0.4787600000000 1.0
C      1  0.5662440000000  0.5390190000000  0.5526050000000 1.0
C      1  0.5645780000000  0.4630110000000  0.5526080000000 1.0
C      1  0.5643340000000  0.4385740000000  0.4801710000000 1.0
C      1  0.5657370000000  0.5004960000000  0.4337720000000 1.0
C      1  0.5249670000000  0.4364420000000  0.5730130000000 1.0
C      1  0.5237440000000  0.4128140000000  0.4621590000000 1.0
C      1  0.5246210000000  0.5096280000000  0.4028810000000 1.0
C      1  0.5238070000000  0.5933490000000  0.4786710000000 1.0
C      1  0.5260110000000  0.5504350000000  0.5838080000000 1.0
C      1  0.4235420000000  0.4723070000000  0.4225970000000 1.0
C      1  0.4237030000000  0.5622820000000  0.4489790000000 1.0
C      1  0.4266650000000  0.5724250000000  0.5422960000000 1.0
C      1  0.4263020000000  0.4821090000000  0.5735310000000 1.0
C      1  0.4252380000000  0.4169910000000  0.5020720000000 1.0
C      1  0.5423820000000  0.5785480000000  0.5189680000000 1.0
C      1  0.5419890000000  0.5061740000000  0.5807050000000 1.0
C      1  0.5423540000000  0.4262460000000  0.5303210000000 1.0
C      1  0.5417230000000  0.4490170000000  0.4385250000000 1.0
C      1  0.5417410000000  0.5433600000000  0.4303530000000 1.0
C      1  0.4788120000000  0.4148000000000  0.5510000000000 1.0
C      1  0.4773170000000  0.4273850000000  0.4348650000000 1.0
C      1  0.4769330000000  0.5364590000000  0.4102600000000 1.0
C      1  0.4785320000000  0.5963030000000  0.5062360000000 1.0
C      1  0.4781840000000  0.5256460000000  0.5948090000000 1.0
C      1  0.5513210000000  0.4741680000000  0.5026040000000 1.0
C      1  0.5536630000000  0.4894750000000  0.4779560000000 1.0
C      1  0.5498740000000  0.5173290000000  0.4846110000000 1.0
C      1  0.5539340000000  0.5212410000000  0.5132440000000 1.0
C      1  0.5511870000000  0.4956100000000  0.5263340000000 1.0
C      1  0.5957960000000  0.4754450000000  0.5020390000000 1.0
C      1  0.5979130000000  0.4901910000000  0.4756560000000 1.0
C      1  0.5975970000000  0.5203020000000  0.4820770000000 1.0
C      1  0.5981890000000  0.5229650000000  0.5128040000000 1.0
C      1  0.5956470000000  0.4950060000000  0.5242100000000 1.0
C      1  0.4746310000000  0.5016890000000  0.5256790000000 1.0
C      1  0.4741960000000  0.4763050000000  0.5112240000000 1.0
C      1  0.4674510000000  0.4836070000000  0.4836830000000 1.0
C      1  0.4726370000000  0.5118250000000  0.4799050000000 1.0
C      1  0.4681120000000  0.5222960000000  0.5062400000000 1.0
C      1  0.5348930000000  0.5700540000000  0.4380600000000 1.0
C      1  0.5367800000000  0.5806450000000  0.5470080000000 1.0
C      1  0.5355120000000  0.4803140000000  0.5909840000000 1.0
C      1  0.5360710000000  0.4087210000000  0.5086270000000 1.0
C      1  0.5360310000000  0.4638580000000  0.4145720000000 1.0
C      1  0.4647420000000  0.5513170000000  0.5125610000000 1.0
C      1  0.4671850000000  0.5070640000000  0.5535700000000 1.0
C      1  0.4669830000000  0.4503560000000  0.5232640000000 1.0
C      1  0.4642210000000  0.4654370000000  0.4600130000000 1.0
C      1  0.4651820000000  0.5265560000000  0.4558260000000 1.0
C      1  0.4522950000000  0.4345340000000  0.4236520000000 1.0
C      1  0.4510190000000  0.5472340000000  0.4137660000000 1.0
C      1  0.4521340000000  0.5997780000000  0.5153790000000 1.0
C      1  0.4524660000000  0.5138620000000  0.5976240000000 1.0
C      1  0.4551300000000  0.4066610000000  0.5378570000000 1.0
C      1  0.5014500000000  0.5541690000000  0.4058700000000 1.0
C      1  0.5028990000000  0.6059620000000  0.5215510000000 1.0
C      1  0.5025940000000  0.5126080000000  0.6070770000000 1.0
C      1  0.5042200000000  0.4013990000000  0.5432000000000 1.0
C      1  0.5027500000000  0.4290130000000  0.4189230000000 1.0
C      1  0.4364560000000  0.5562880000000  0.4992300000000 1.0
C      1  0.4360980000000  0.5226590000000  0.5525900000000 1.0
C      1  0.4372020000000  0.4499420000000  0.5318770000000 1.0
C      1  0.4355740000000  0.4535870000000  0.4641470000000 1.0
C      1  0.4366580000000  0.5163660000000  0.4485850000000 1.0
C      1  0.5411680000000  0.5750140000000  0.4658770000000 1.0
C      1  0.5436230000000  0.5563770000000  0.5618610000000 1.0
C      1  0.5415690000000  0.4599550000000  0.5712920000000 1.0
C      1  0.5407760000000  0.4213020000000  0.4834220000000 1.0
C      1  0.5425980000000  0.4920740000000  0.4168380000000 1.0
C      1  0.5140230000000  0.4814030000000  0.4484520000000 1.0
C      1  0.5126990000000  0.5416190000000  0.4632720000000 1.0
C      1  0.5149650000000  0.5461870000000  0.5303040000000 1.0
C      1  0.5105420000000  0.4872990000000  0.5561560000000 1.0
C      1  0.5096120000000  0.4428740000000  0.5061360000000 1.0
C      1  0.5113310000000  0.5599580000000  0.4939310000000 1.0
C      1  0.5124450000000  0.5263710000000  0.5570670000000 1.0
C      1  0.5106500000000  0.4546660000000  0.5424300000000 1.0
C      1  0.5096310000000  0.4481050000000  0.4688610000000 1.0
C      1  0.5116560000000  0.5128540000000  0.4389810000000 1.0
C      1  0.4342180000000  0.4944190000000  0.5107370000000 1.0
END
