TITL C-3578198-8939-205 2.56654949522457e-07 125000 -202.768464939167 0 0 34 (C2) n - 1
REM
REM in /home/bkarasulu/work/CARBON/AIRSS/Generating-Clusters/EDIP-Nigel-Params/with-SteepDescent/Higher-Symm/SD-CG/HFTN-CG
REM
REM
REM
REM
REM
REM ./C.cell (12c818d87b63d06a65506943cc24bca4)
REM
REM compiler GCC version 9.2.1 20190827 (Red Hat 9.2.1-1)
REM options -cpp -mtune=generic -march=x86-64 -g -O0 -fpre-include=/usr/include/finclude/math-vector-fortran.h
REM seed -1414228547 -861191814 -2056790438 -893817872 899245464 421381025 19080204 -644495215 -740075139 1485817694 1103618889 -855594584 1946767512 2073098904 -1295180519 549980237 1478734990 -1806934818 68024189 -298407771 1548515617 -198306274 -1659916061 937174 606777401 -1193819333 2138760035 45382701 -1927713747 -299646797 1466988347 -1366411886 1637313031
REM
CELL 1.54180   50.00000   50.00000   50.00000   90.00000   90.00000   90.00000
LATT -1
SFAC C  
C      1  0.5423360000000  0.5265940000000  0.5199240000000 1.0
C      1  0.4565770000000  0.4716560000000  0.5204540000000 1.0
C      1  0.4586120000000  0.5280470000000  0.4840880000000 1.0
C      1  0.5424140000000  0.4701670000000  0.4835580000000 1.0
C      1  0.4953870000000  0.4655500000000  0.4674370000000 1.0
C      1  0.5038990000000  0.5361920000000  0.4646550000000 1.0
C      1  0.5034150000000  0.4654110000000  0.5365740000000 1.0
C      1  0.4973580000000  0.5363050000000  0.5393560000000 1.0
C      1  0.4739920000000  0.4963600000000  0.5247680000000 1.0
C      1  0.5246850000000  0.5018340000000  0.5229710000000 1.0
C      1  0.5258660000000  0.4954600000000  0.4792430000000 1.0
C      1  0.4753930000000  0.5026890000000  0.4810410000000 1.0
C      1  0.4785360000000  0.4523620000000  0.5282680000000 1.0
C      1  0.5227490000000  0.5484330000000  0.5284700000000 1.0
C      1  0.5197990000000  0.4516460000000  0.4757440000000 1.0
C      1  0.4789440000000  0.5491930000000  0.4755410000000 1.0
C      1  0.5483720000000  0.4653540000000  0.5138390000000 1.0
C      1  0.4516540000000  0.5331390000000  0.5137870000000 1.0
C      1  0.4504550000000  0.4670520000000  0.4901720000000 1.0
C      1  0.5494660000000  0.5314430000000  0.4902250000000 1.0
C      1  0.5137990000000  0.4351550000000  0.5001910000000 1.0
C      1  0.4861360000000  0.5649860000000  0.5004150000000 1.0
C      1  0.4839600000000  0.4356730000000  0.5038200000000 1.0
C      1  0.5161090000000  0.5644660000000  0.5035960000000 1.0
C      1  0.5250440000000  0.4497090000000  0.5239930000000 1.0
C      1  0.4743110000000  0.5503330000000  0.5242660000000 1.0
C      1  0.4732280000000  0.4506080000000  0.4800180000000 1.0
C      1  0.5274190000000  0.5494120000000  0.4797460000000 1.0
C      1  0.4501320000000  0.4912960000000  0.4743360000000 1.0
C      1  0.5511300000000  0.5070940000000  0.4747160000000 1.0
C      1  0.5495370000000  0.4895720000000  0.5296750000000 1.0
C      1  0.4491470000000  0.5088630000000  0.5292960000000 1.0
C      1  0.4993900000000  0.5039840000000  0.5393770000000 1.0
C      1  0.5007480000000  0.5039600000000  0.4646340000000 1.0
END
