TITL C-3578198-8939-571 -7.98781750158388e-07 125000 -993.627792946512 0 0 155 (C1) n - 1
REM
REM in /home/bkarasulu/work/CARBON/AIRSS/Generating-Clusters/EDIP-Nigel-Params/with-SteepDescent/Higher-Symm/SD-CG/HFTN-CG
REM
REM
REM
REM
REM
REM ./C.cell (12c818d87b63d06a65506943cc24bca4)
REM
REM compiler GCC version 9.2.1 20190827 (Red Hat 9.2.1-1)
REM options -cpp -mtune=generic -march=x86-64 -g -O0 -fpre-include=/usr/include/finclude/math-vector-fortran.h
REM seed 1952412870 1039996676 -1769908770 -282856772 1004206114 -2023606358 -957841259 1284258812 297723618 -1579835033 720239426 -1680818095 -2095935896 1398617506 1468491777 241422965 1285624761 -1330857133 -1389304939 -253368701 -1765978079 1122319165 376442062 2014131143 -784190870 1518673110 1200185653 -679864192 -377780814 826757878 1497769412 1371734966 -1056022538
REM
CELL 1.54180   50.00000   50.00000   50.00000   90.00000   90.00000   90.00000
LATT -1
SFAC C  
C      1  0.4338250000000  0.5439260000000  0.4429070000000 1.0
C      1  0.4247170000000  0.5431540000000  0.5455360000000 1.0
C      1  0.5183000000000  0.5448890000000  0.5838580000000 1.0
C      1  0.5856660000000  0.5426560000000  0.5082770000000 1.0
C      1  0.5352140000000  0.5432920000000  0.4191070000000 1.0
C      1  0.5023280000000  0.3933280000000  0.4743720000000 1.0
C      1  0.4759260000000  0.3935000000000  0.4865400000000 1.0
C      1  0.4796590000000  0.3952760000000  0.5153660000000 1.0
C      1  0.5081540000000  0.3936030000000  0.5208320000000 1.0
C      1  0.5218710000000  0.3945630000000  0.4955950000000 1.0
C      1  0.4100140000000  0.4537950000000  0.5001310000000 1.0
C      1  0.4715430000000  0.4531930000000  0.5856310000000 1.0
C      1  0.5718540000000  0.4598850000000  0.5532430000000 1.0
C      1  0.5692540000000  0.4581930000000  0.4469540000000 1.0
C      1  0.4710620000000  0.4543120000000  0.4143050000000 1.0
C      1  0.5655950000000  0.4407060000000  0.4707310000000 1.0
C      1  0.4944270000000  0.4451350000000  0.4300030000000 1.0
C      1  0.4324260000000  0.4458130000000  0.4825450000000 1.0
C      1  0.4622590000000  0.4446820000000  0.5586830000000 1.0
C      1  0.5467180000000  0.4436840000000  0.5556850000000 1.0
C      1  0.5125210000000  0.5094020000000  0.3884540000000 1.0
C      1  0.3983880000000  0.5090620000000  0.4534920000000 1.0
C      1  0.4242600000000  0.5092790000000  0.5829650000000 1.0
C      1  0.5530470000000  0.5128450000000  0.5993630000000 1.0
C      1  0.6100420000000  0.5099160000000  0.4791340000000 1.0
C      1  0.5227720000000  0.4490070000000  0.5154980000000 1.0
C      1  0.5218480000000  0.4494670000000  0.4828610000000 1.0
C      1  0.4911470000000  0.4502070000000  0.4741390000000 1.0
C      1  0.4730680000000  0.4503170000000  0.5002980000000 1.0
C      1  0.4922770000000  0.4495850000000  0.5256950000000 1.0
C      1  0.5220470000000  0.5487380000000  0.4845140000000 1.0
C      1  0.4934700000000  0.5479670000000  0.4792570000000 1.0
C      1  0.4779930000000  0.5522570000000  0.5038940000000 1.0
C      1  0.4977710000000  0.5487240000000  0.5272410000000 1.0
C      1  0.5260490000000  0.5475510000000  0.5143500000000 1.0
C      1  0.4993850000000  0.5400630000000  0.6051360000000 1.0
C      1  0.5990290000000  0.5393840000000  0.5336640000000 1.0
C      1  0.5631020000000  0.5373410000000  0.4145160000000 1.0
C      1  0.4374470000000  0.5384280000000  0.4147870000000 1.0
C      1  0.3990700000000  0.5369230000000  0.5337870000000 1.0
C      1  0.5328980000000  0.5241020000000  0.4709910000000 1.0
C      1  0.4837050000000  0.5253410000000  0.4626020000000 1.0
C      1  0.4591250000000  0.5266190000000  0.5056490000000 1.0
C      1  0.4930490000000  0.5234070000000  0.5420750000000 1.0
C      1  0.5395340000000  0.5220600000000  0.5211770000000 1.0
C      1  0.5772010000000  0.4376340000000  0.4979340000000 1.0
C      1  0.5240920000000  0.4382830000000  0.4249010000000 1.0
C      1  0.4375380000000  0.4425480000000  0.4521230000000 1.0
C      1  0.4350650000000  0.4413750000000  0.5439240000000 1.0
C      1  0.5223890000000  0.4403740000000  0.5752340000000 1.0
C      1  0.4318590000000  0.5716010000000  0.5400080000000 1.0
C      1  0.5143980000000  0.5719130000000  0.5708600000000 1.0
C      1  0.5709020000000  0.5690310000000  0.5069460000000 1.0
C      1  0.5323220000000  0.5715680000000  0.4283980000000 1.0
C      1  0.4419960000000  0.5719870000000  0.4492040000000 1.0
C      1  0.4295010000000  0.5357140000000  0.5757970000000 1.0
C      1  0.5482300000000  0.5391910000000  0.5910130000000 1.0
C      1  0.6020190000000  0.5367200000000  0.4819080000000 1.0
C      1  0.5131300000000  0.5358880000000  0.3973230000000 1.0
C      1  0.4063410000000  0.5356130000000  0.4565510000000 1.0
C      1  0.4760520000000  0.4780180000000  0.3980850000000 1.0
C      1  0.3959350000000  0.4774630000000  0.4907400000000 1.0
C      1  0.4593630000000  0.4776990000000  0.5956240000000 1.0
C      1  0.5785330000000  0.4812170000000  0.5730440000000 1.0
C      1  0.5911580000000  0.4787480000000  0.4467780000000 1.0
C      1  0.5379600000000  0.4751700000000  0.5244470000000 1.0
C      1  0.5353650000000  0.4763250000000  0.4715660000000 1.0
C      1  0.4844270000000  0.4777820000000  0.4585790000000 1.0
C      1  0.4560500000000  0.4780650000000  0.5023630000000 1.0
C      1  0.4889190000000  0.4765200000000  0.5427090000000 1.0
C      1  0.4843110000000  0.5906460000000  0.4740610000000 1.0
C      1  0.4740230000000  0.5846160000000  0.5032820000000 1.0
C      1  0.4952130000000  0.5930900000000  0.5248280000000 1.0
C      1  0.5216910000000  0.5925080000000  0.5100040000000 1.0
C      1  0.5147340000000  0.5869650000000  0.4800690000000 1.0
C      1  0.5140280000000  0.5242970000000  0.5627290000000 1.0
C      1  0.5652650000000  0.5212890000000  0.5064260000000 1.0
C      1  0.5267380000000  0.5258880000000  0.4417950000000 1.0
C      1  0.4537110000000  0.5270490000000  0.4581810000000 1.0
C      1  0.4455900000000  0.5262120000000  0.5318580000000 1.0
C      1  0.5382240000000  0.5854780000000  0.5664600000000 1.0
C      1  0.5759180000000  0.5840870000000  0.4843240000000 1.0
C      1  0.5079430000000  0.5826180000000  0.4219430000000 1.0
C      1  0.4269320000000  0.5825300000000  0.4697860000000 1.0
C      1  0.4475740000000  0.5838160000000  0.5594220000000 1.0
C      1  0.5370530000000  0.4867060000000  0.5588820000000 1.0
C      1  0.5668250000000  0.4834460000000  0.4833210000000 1.0
C      1  0.5039080000000  0.4886790000000  0.4324840000000 1.0
C      1  0.4379450000000  0.4894660000000  0.4759370000000 1.0
C      1  0.4571750000000  0.4883310000000  0.5522830000000 1.0
C      1  0.4874560000000  0.5383670000000  0.4147060000000 1.0
C      1  0.4144090000000  0.5377380000000  0.4862730000000 1.0
C      1  0.4602420000000  0.5379770000000  0.5754150000000 1.0
C      1  0.5596410000000  0.5409130000000  0.5625720000000 1.0
C      1  0.5789900000000  0.5399320000000  0.4615440000000 1.0
C      1  0.5009550000000  0.4633460000000  0.5885360000000 1.0
C      1  0.5846070000000  0.4610650000000  0.5266150000000 1.0
C      1  0.5455660000000  0.4607990000000  0.4270420000000 1.0
C      1  0.4465470000000  0.4649650000000  0.4307630000000 1.0
C      1  0.4175460000000  0.4638460000000  0.5289690000000 1.0
C      1  0.5623800000000  0.4170850000000  0.5131150000000 1.0
C      1  0.5314220000000  0.4163430000000  0.4435890000000 1.0
C      1  0.4565390000000  0.4197450000000  0.4504970000000 1.0
C      1  0.4394640000000  0.4191620000000  0.5246490000000 1.0
C      1  0.5056020000000  0.4186520000000  0.5633650000000 1.0
C      1  0.4849860000000  0.5675260000000  0.4256670000000 1.0
C      1  0.4217690000000  0.5670340000000  0.4921160000000 1.0
C      1  0.4682990000000  0.5661980000000  0.5646330000000 1.0
C      1  0.5530920000000  0.5685880000000  0.5502650000000 1.0
C      1  0.5673050000000  0.5686010000000  0.4628770000000 1.0
C      1  0.5652800000000  0.4774780000000  0.5129280000000 1.0
C      1  0.5320000000000  0.4819370000000  0.4419600000000 1.0
C      1  0.4559520000000  0.4831610000000  0.4522670000000 1.0
C      1  0.4406600000000  0.4823840000000  0.5274150000000 1.0
C      1  0.5077340000000  0.4807320000000  0.5653680000000 1.0
C      1  0.4573100000000  0.4963160000000  0.4100510000000 1.0
C      1  0.4008840000000  0.4952790000000  0.5128170000000 1.0
C      1  0.4815330000000  0.4962000000000  0.5974350000000 1.0
C      1  0.5920410000000  0.5044800000000  0.5648390000000 1.0
C      1  0.5890230000000  0.5022160000000  0.4316050000000 1.0
C      1  0.4520800000000  0.4009860000000  0.4722550000000 1.0
C      1  0.4591980000000  0.4004760000000  0.5347410000000 1.0
C      1  0.5223790000000  0.4062260000000  0.5426350000000 1.0
C      1  0.5502370000000  0.3988850000000  0.4937380000000 1.0
C      1  0.5086790000000  0.3986970000000  0.4470150000000 1.0
C      1  0.4938360000000  0.5717640000000  0.5485820000000 1.0
C      1  0.5443020000000  0.5714210000000  0.5214440000000 1.0
C      1  0.5399300000000  0.5758470000000  0.4558780000000 1.0
C      1  0.4713280000000  0.5740650000000  0.4514040000000 1.0
C      1  0.4405740000000  0.5749080000000  0.5126390000000 1.0
C      1  0.3983750000000  0.5239000000000  0.5090430000000 1.0
C      1  0.4768750000000  0.5251330000000  0.5980870000000 1.0
C      1  0.5878940000000  0.5311420000000  0.5578890000000 1.0
C      1  0.5822770000000  0.5291300000000  0.4331780000000 1.0
C      1  0.4605530000000  0.5249760000000  0.4065790000000 1.0
C      1  0.4826570000000  0.4273400000000  0.5454580000000 1.0
C      1  0.5398820000000  0.4277200000000  0.5312800000000 1.0
C      1  0.5397930000000  0.4264570000000  0.4709400000000 1.0
C      1  0.4856700000000  0.4277750000000  0.4525070000000 1.0
C      1  0.4507950000000  0.4280040000000  0.4977740000000 1.0
C      1  0.4090310000000  0.4862820000000  0.4661480000000 1.0
C      1  0.4386370000000  0.4859520000000  0.5766630000000 1.0
C      1  0.5532500000000  0.4878210000000  0.5863340000000 1.0
C      1  0.5974650000000  0.4850030000000  0.4747020000000 1.0
C      1  0.5038570000000  0.4862230000000  0.4019050000000 1.0
C      1  0.5233010000000  0.4986900000000  0.5127010000000 1.0
C      1  0.5200030000000  0.4995130000000  0.4831190000000 1.0
C      1  0.4906750000000  0.5002750000000  0.4775060000000 1.0
C      1  0.4759450000000  0.5008430000000  0.5031780000000 1.0
C      1  0.4961670000000  0.4994580000000  0.5247210000000 1.0
C      1  0.4989540000000  0.5200360000000  0.4370970000000 1.0
C      1  0.4401150000000  0.5207950000000  0.4828110000000 1.0
C      1  0.4647440000000  0.5190810000000  0.5520400000000 1.0
C      1  0.5404650000000  0.5186550000000  0.5510460000000 1.0
C      1  0.5614400000000  0.5187110000000  0.4770990000000 1.0
END
