TITL C-3577088-510-541 -1.50433837283098e-07 125000 -716.829639151672 0 0 115 (C1) n - 1
REM
REM in /home/bkarasulu/work/CARBON/AIRSS/Generating-Clusters/EDIP-Nigel-Params/with-SteepDescent/Higher-Symm/SD-CG/HFTN-CG
REM
REM
REM
REM
REM
REM ./C.cell (12c818d87b63d06a65506943cc24bca4)
REM
REM compiler GCC version 9.2.1 20190827 (Red Hat 9.2.1-1)
REM options -cpp -mtune=generic -march=x86-64 -g -O0 -fpre-include=/usr/include/finclude/math-vector-fortran.h
REM seed -967780621 -526853465 -1056349941 -930282260 -2093719459 757007753 -1939054926 -2110573854 -1396800402 984598248 333248230 1708082508 2045444243 -822748811 1929081060 -1736831414 1923376623 674297822 1554297699 -69213117 -56589663 -2031371590 690824330 429687417 1569238325 -81655123 1199323422 -2145593969 -831758258 -227702886 -663779244 1311606414 1807534222
REM
CELL 1.54180   50.00000   50.00000   50.00000   90.00000   90.00000   90.00000
LATT -1
SFAC C  
C      1  0.5258160000000  0.5030180000000  0.4949850000000 1.0
C      1  0.4723800000000  0.4958920000000  0.4957060000000 1.0
C      1  0.5081370000000  0.5517730000000  0.4152570000000 1.0
C      1  0.4865770000000  0.4523400000000  0.4224940000000 1.0
C      1  0.5303660000000  0.5793970000000  0.4491840000000 1.0
C      1  0.4708590000000  0.4193170000000  0.4472720000000 1.0
C      1  0.4646090000000  0.5052290000000  0.5672500000000 1.0
C      1  0.5355280000000  0.4946890000000  0.5640210000000 1.0
C      1  0.4875640000000  0.4499580000000  0.5295190000000 1.0
C      1  0.5123050000000  0.5507480000000  0.5291260000000 1.0
C      1  0.4846690000000  0.5791140000000  0.5614610000000 1.0
C      1  0.5149030000000  0.4211710000000  0.5656420000000 1.0
C      1  0.5868630000000  0.5418290000000  0.5074320000000 1.0
C      1  0.4159380000000  0.4540470000000  0.5065720000000 1.0
C      1  0.4723270000000  0.4753690000000  0.4353770000000 1.0
C      1  0.5491340000000  0.5370210000000  0.4319640000000 1.0
C      1  0.5441770000000  0.4869130000000  0.4353480000000 1.0
C      1  0.4555050000000  0.5180200000000  0.4352210000000 1.0
C      1  0.5809450000000  0.5649680000000  0.4920440000000 1.0
C      1  0.4217220000000  0.4302540000000  0.4924670000000 1.0
C      1  0.4893560000000  0.5077040000000  0.4035010000000 1.0
C      1  0.5123270000000  0.5229280000000  0.4078670000000 1.0
C      1  0.5632720000000  0.5311400000000  0.5259530000000 1.0
C      1  0.4396250000000  0.4661620000000  0.5288350000000 1.0
C      1  0.5416310000000  0.5441500000000  0.5468910000000 1.0
C      1  0.4613020000000  0.4544330000000  0.5483270000000 1.0
C      1  0.5612910000000  0.4820880000000  0.4976800000000 1.0
C      1  0.4378270000000  0.5182540000000  0.4988130000000 1.0
C      1  0.4910280000000  0.3993650000000  0.4488510000000 1.0
C      1  0.5082180000000  0.5974790000000  0.4469270000000 1.0
C      1  0.5412100000000  0.5274430000000  0.5056580000000 1.0
C      1  0.4570850000000  0.4703360000000  0.5045870000000 1.0
C      1  0.5552120000000  0.4407070000000  0.4464620000000 1.0
C      1  0.4411050000000  0.5612610000000  0.4464880000000 1.0
C      1  0.5576070000000  0.5747240000000  0.5044160000000 1.0
C      1  0.4457270000000  0.4216890000000  0.5041890000000 1.0
C      1  0.4867120000000  0.5807620000000  0.4577500000000 1.0
C      1  0.5122650000000  0.4145740000000  0.4618960000000 1.0
C      1  0.5323020000000  0.5860010000000  0.5637240000000 1.0
C      1  0.4684220000000  0.4132460000000  0.5703700000000 1.0
C      1  0.5081250000000  0.5387780000000  0.5769350000000 1.0
C      1  0.4926330000000  0.4615310000000  0.5784420000000 1.0
C      1  0.4369600000000  0.5324380000000  0.5352260000000 1.0
C      1  0.5622270000000  0.4650460000000  0.5328010000000 1.0
C      1  0.4773480000000  0.5505520000000  0.4903140000000 1.0
C      1  0.5115530000000  0.4456810000000  0.4933140000000 1.0
C      1  0.4426940000000  0.4150380000000  0.5311720000000 1.0
C      1  0.5628000000000  0.5824600000000  0.5308660000000 1.0
C      1  0.5330130000000  0.5240710000000  0.5691460000000 1.0
C      1  0.4682990000000  0.4778470000000  0.5766910000000 1.0
C      1  0.4966480000000  0.5752890000000  0.4869160000000 1.0
C      1  0.5016930000000  0.4158610000000  0.4916290000000 1.0
C      1  0.4974960000000  0.5948250000000  0.5098740000000 1.0
C      1  0.5013520000000  0.4009920000000  0.5180320000000 1.0
C      1  0.4790280000000  0.5308520000000  0.5738880000000 1.0
C      1  0.5211450000000  0.4698860000000  0.5737550000000 1.0
C      1  0.4158030000000  0.4801050000000  0.4911650000000 1.0
C      1  0.5911280000000  0.5164030000000  0.4914870000000 1.0
C      1  0.5047840000000  0.4749780000000  0.5290730000000 1.0
C      1  0.4956850000000  0.5252060000000  0.5283650000000 1.0
C      1  0.4611840000000  0.5458460000000  0.4312300000000 1.0
C      1  0.5353980000000  0.4583500000000  0.4327130000000 1.0
C      1  0.5268380000000  0.6072400000000  0.5458260000000 1.0
C      1  0.4761150000000  0.3898600000000  0.5561910000000 1.0
C      1  0.5620710000000  0.5373660000000  0.4574520000000 1.0
C      1  0.4509370000000  0.4650990000000  0.4546350000000 1.0
C      1  0.4700690000000  0.4437160000000  0.4669340000000 1.0
C      1  0.5298230000000  0.5538630000000  0.4680610000000 1.0
C      1  0.5098600000000  0.4241920000000  0.5347550000000 1.0
C      1  0.4871510000000  0.5757860000000  0.5304240000000 1.0
C      1  0.4880300000000  0.4892000000000  0.4686390000000 1.0
C      1  0.5106570000000  0.5084000000000  0.4689080000000 1.0
C      1  0.4574650000000  0.5743440000000  0.5216670000000 1.0
C      1  0.5387250000000  0.4245460000000  0.5218250000000 1.0
C      1  0.4503350000000  0.5664300000000  0.4915210000000 1.0
C      1  0.5484560000000  0.4323370000000  0.4926350000000 1.0
C      1  0.5098250000000  0.5679930000000  0.5699720000000 1.0
C      1  0.4909810000000  0.4312450000000  0.5792260000000 1.0
C      1  0.5182750000000  0.6100110000000  0.5202370000000 1.0
C      1  0.4840890000000  0.3833930000000  0.5310570000000 1.0
C      1  0.5608760000000  0.4872140000000  0.5515080000000 1.0
C      1  0.4390480000000  0.5105240000000  0.5540780000000 1.0
C      1  0.4154780000000  0.5017410000000  0.5118050000000 1.0
C      1  0.5859990000000  0.4949120000000  0.5108480000000 1.0
C      1  0.5430890000000  0.4199520000000  0.4650510000000 1.0
C      1  0.4549330000000  0.5815360000000  0.4641950000000 1.0
C      1  0.4471520000000  0.5578240000000  0.5433190000000 1.0
C      1  0.5505370000000  0.4409640000000  0.5424730000000 1.0
C      1  0.5689440000000  0.4539820000000  0.4903010000000 1.0
C      1  0.4286160000000  0.5454920000000  0.4897990000000 1.0
C      1  0.4671760000000  0.4420700000000  0.4981120000000 1.0
C      1  0.5338930000000  0.5562750000000  0.4994150000000 1.0
C      1  0.5286180000000  0.4661120000000  0.5131960000000 1.0
C      1  0.4703490000000  0.5326610000000  0.5151420000000 1.0
C      1  0.4696340000000  0.4298780000000  0.4212100000000 1.0
C      1  0.5344350000000  0.5620390000000  0.4248780000000 1.0
C      1  0.5732940000000  0.4594440000000  0.4617600000000 1.0
C      1  0.4255910000000  0.5397100000000  0.4619010000000 1.0
C      1  0.4892240000000  0.5533250000000  0.4395580000000 1.0
C      1  0.5089900000000  0.4469270000000  0.4415930000000 1.0
C      1  0.5347680000000  0.5129660000000  0.4241380000000 1.0
C      1  0.4680280000000  0.4986750000000  0.4186460000000 1.0
C      1  0.5542230000000  0.5702270000000  0.5544290000000 1.0
C      1  0.4495170000000  0.4283620000000  0.5547200000000 1.0
C      1  0.5664200000000  0.4875610000000  0.4541070000000 1.0
C      1  0.4353380000000  0.5122180000000  0.4549120000000 1.0
C      1  0.5032460000000  0.5377340000000  0.4645000000000 1.0
C      1  0.4979190000000  0.4583890000000  0.4682590000000 1.0
C      1  0.5347170000000  0.4433960000000  0.5674900000000 1.0
C      1  0.4651120000000  0.5571630000000  0.5669090000000 1.0
C      1  0.4247100000000  0.4901580000000  0.5382940000000 1.0
C      1  0.5765580000000  0.5067230000000  0.5366480000000 1.0
C      1  0.4357620000000  0.4859090000000  0.4690670000000 1.0
C      1  0.5728910000000  0.5129310000000  0.4681350000000 1.0
C      1  0.4996590000000  0.4996300000000  0.5128380000000 1.0
END
