TITL C-3578194-7807-617 -8.32103611843626e-06 125000 -316.750336522974 0 0 53 (C1) n - 1
REM
REM in /home/bkarasulu/work/CARBON/AIRSS/Generating-Clusters/EDIP-Nigel-Params/with-SteepDescent/Higher-Symm/SD-CG/HFTN-CG
REM
REM
REM
REM
REM
REM ./C.cell (12c818d87b63d06a65506943cc24bca4)
REM
REM compiler GCC version 9.2.1 20190827 (Red Hat 9.2.1-1)
REM options -cpp -mtune=generic -march=x86-64 -g -O0 -fpre-include=/usr/include/finclude/math-vector-fortran.h
REM seed -1682750190 629357048 573557999 -1698447342 626394518 -930689169 -1702372496 495329978 37715415 -631114910 -2077453001 -132875747 -1996076349 -720895350 1649012988 2143579594 -520323284 -1664235311 330057852 1204679492 572637455 369572326 1116200362 897373577 208617011 -2077634515 -1669519374 -310419279 1983230619 1283408421 -1745742345 294184501 -1896673427
REM
CELL 1.54180   50.00000   50.00000   50.00000   90.00000   90.00000   90.00000
LATT -1
SFAC C  
C      1  0.5033920000000  0.5439810000000  0.4512980000000 1.0
C      1  0.5398070000000  0.5440800000000  0.5263410000000 1.0
C      1  0.4566620000000  0.5440930000000  0.5208570000000 1.0
C      1  0.4970400000000  0.4525780000000  0.4505880000000 1.0
C      1  0.4589410000000  0.4526460000000  0.5263980000000 1.0
C      1  0.5436360000000  0.4526820000000  0.5213080000000 1.0
C      1  0.5466740000000  0.4711390000000  0.4798480000000 1.0
C      1  0.4936520000000  0.4711390000000  0.5498610000000 1.0
C      1  0.4594780000000  0.4712930000000  0.4688900000000 1.0
C      1  0.4522340000000  0.5258750000000  0.4805170000000 1.0
C      1  0.5067060000000  0.5258410000000  0.5499190000000 1.0
C      1  0.5402870000000  0.5258060000000  0.4683400000000 1.0
C      1  0.5407740000000  0.5183570000000  0.5124490000000 1.0
C      1  0.4681820000000  0.5182940000000  0.5284620000000 1.0
C      1  0.4909430000000  0.5182540000000  0.4574090000000 1.0
C      1  0.4571640000000  0.4784990000000  0.5126820000000 1.0
C      1  0.5325790000000  0.4784960000000  0.5297060000000 1.0
C      1  0.5099220000000  0.4783640000000  0.4559630000000 1.0
C      1  0.4660250000000  0.4765270000000  0.5558730000000 1.0
C      1  0.4681230000000  0.4766240000000  0.4419260000000 1.0
C      1  0.5657710000000  0.4766370000000  0.5006850000000 1.0
C      1  0.5343550000000  0.5204430000000  0.5562390000000 1.0
C      1  0.5320820000000  0.5203760000000  0.4411790000000 1.0
C      1  0.4331580000000  0.5205590000000  0.5014560000000 1.0
C      1  0.5409410000000  0.5541800000000  0.4734380000000 1.0
C      1  0.5019160000000  0.5542070000000  0.5479680000000 1.0
C      1  0.4565100000000  0.5541670000000  0.4772170000000 1.0
C      1  0.4590190000000  0.4428520000000  0.4735860000000 1.0
C      1  0.4978630000000  0.4426990000000  0.5477650000000 1.0
C      1  0.5427660000000  0.4426950000000  0.4771460000000 1.0
C      1  0.4977860000000  0.5141450000000  0.5231390000000 1.0
C      1  0.4802700000000  0.5143460000000  0.4857890000000 1.0
C      1  0.5214030000000  0.5141550000000  0.4893720000000 1.0
C      1  0.5031530000000  0.4829120000000  0.5231180000000 1.0
C      1  0.5186720000000  0.4829070000000  0.4848830000000 1.0
C      1  0.4778260000000  0.4830850000000  0.4905820000000 1.0
C      1  0.4838990000000  0.4377220000000  0.5230350000000 1.0
C      1  0.4873840000000  0.4377140000000  0.4738890000000 1.0
C      1  0.5281920000000  0.4376600000000  0.5014970000000 1.0
C      1  0.5154000000000  0.5595980000000  0.5231120000000 1.0
C      1  0.5126620000000  0.5595390000000  0.4740980000000 1.0
C      1  0.4715400000000  0.5595640000000  0.5011580000000 1.0
C      1  0.4542500000000  0.5023250000000  0.5502520000000 1.0
C      1  0.4790750000000  0.5023360000000  0.4344770000000 1.0
C      1  0.5666400000000  0.5024260000000  0.5137650000000 1.0
C      1  0.5463170000000  0.4944340000000  0.5517740000000 1.0
C      1  0.5221590000000  0.4943670000000  0.4330530000000 1.0
C      1  0.4311500000000  0.4944540000000  0.5138410000000 1.0
C      1  0.4264680000000  0.4985000000000  0.5422440000000 1.0
C      1  0.5733350000000  0.4986060000000  0.5418940000000 1.0
C      1  0.5000630000000  0.4984620000000  0.4146070000000 1.0
C      1  0.4998250000000  0.4459150000000  0.4994650000000 1.0
C      1  0.4998530000000  0.5514400000000  0.4994170000000 1.0
END
