TITL C-3578204-4308-353 2.67642648717103e-08 125000 -765.124385552159 0 0 120 (C1) n - 1
REM
REM in /home/bkarasulu/work/CARBON/AIRSS/Generating-Clusters/EDIP-Nigel-Params/with-SteepDescent/Higher-Symm/SD-CG/HFTN-CG
REM
REM
REM
REM
REM
REM ./C.cell (12c818d87b63d06a65506943cc24bca4)
REM
REM compiler GCC version 9.2.1 20190827 (Red Hat 9.2.1-1)
REM options -cpp -mtune=generic -march=x86-64 -g -O0 -fpre-include=/usr/include/finclude/math-vector-fortran.h
REM seed 730644417 934098887 -1261405616 -1412937719 1671489025 849505020 639413546 -82697331 -308437589 920986003 380875154 -1383931864 -1278264824 1739016314 -684596337 1646542584 205847061 -1570831058 -72011279 1049101609 -1104013321 449771166 -1700350679 68867896 2093429823 -673572425 625524451 -1798519488 -334358651 847583574 -1744872488 -2143952223 -330105114
REM
CELL 1.54180   50.00000   50.00000   50.00000   90.00000   90.00000   90.00000
LATT -1
SFAC C  
C      1  0.4442420000000  0.5163820000000  0.5647200000000 1.0
C      1  0.5622860000000  0.4874190000000  0.5788800000000 1.0
C      1  0.5585240000000  0.5154410000000  0.5772250000000 1.0
C      1  0.4390550000000  0.4893560000000  0.5707610000000 1.0
C      1  0.5317130000000  0.5847000000000  0.5162960000000 1.0
C      1  0.4713990000000  0.4118380000000  0.5163170000000 1.0
C      1  0.4742030000000  0.5862340000000  0.5187880000000 1.0
C      1  0.5291970000000  0.4137880000000  0.5178360000000 1.0
C      1  0.3950060000000  0.5119130000000  0.4934330000000 1.0
C      1  0.6038130000000  0.4892330000000  0.4897790000000 1.0
C      1  0.6029420000000  0.5188020000000  0.4901350000000 1.0
C      1  0.4001460000000  0.4828940000000  0.4911190000000 1.0
C      1  0.4258710000000  0.4670620000000  0.5598070000000 1.0
C      1  0.5738610000000  0.5251860000000  0.5540270000000 1.0
C      1  0.5676310000000  0.4675820000000  0.5589930000000 1.0
C      1  0.4244800000000  0.5360110000000  0.5568180000000 1.0
C      1  0.4700180000000  0.5257020000000  0.4330240000000 1.0
C      1  0.5316500000000  0.4747380000000  0.4299920000000 1.0
C      1  0.5306560000000  0.5269660000000  0.4292240000000 1.0
C      1  0.4713500000000  0.4735000000000  0.4326290000000 1.0
C      1  0.4412020000000  0.4454480000000  0.5478730000000 1.0
C      1  0.5656700000000  0.5532750000000  0.5472000000000 1.0
C      1  0.5571250000000  0.4402070000000  0.5588010000000 1.0
C      1  0.4392540000000  0.5605980000000  0.5508870000000 1.0
C      1  0.5181350000000  0.5167370000000  0.5034790000000 1.0
C      1  0.4909060000000  0.4756810000000  0.5094480000000 1.0
C      1  0.4903540000000  0.5258670000000  0.5089190000000 1.0
C      1  0.5195700000000  0.4861210000000  0.5047170000000 1.0
C      1  0.4858570000000  0.5157460000000  0.4578940000000 1.0
C      1  0.5182310000000  0.4849820000000  0.4558200000000 1.0
C      1  0.5174360000000  0.5166910000000  0.4552370000000 1.0
C      1  0.4864840000000  0.4831230000000  0.4580730000000 1.0
C      1  0.4876790000000  0.5146690000000  0.5393230000000 1.0
C      1  0.5279620000000  0.4861700000000  0.5510510000000 1.0
C      1  0.5182530000000  0.5132230000000  0.5493540000000 1.0
C      1  0.4761400000000  0.4865560000000  0.5343670000000 1.0
C      1  0.5159470000000  0.4852490000000  0.4061960000000 1.0
C      1  0.4835810000000  0.5150530000000  0.4079090000000 1.0
C      1  0.4843950000000  0.4846870000000  0.4078690000000 1.0
C      1  0.5153770000000  0.5158050000000  0.4057700000000 1.0
C      1  0.5291920000000  0.5850820000000  0.4675240000000 1.0
C      1  0.4729080000000  0.4153740000000  0.4690030000000 1.0
C      1  0.4722080000000  0.5823050000000  0.4713640000000 1.0
C      1  0.5305770000000  0.4193220000000  0.4706250000000 1.0
C      1  0.5301560000000  0.5272520000000  0.5735730000000 1.0
C      1  0.4822300000000  0.4691640000000  0.5607510000000 1.0
C      1  0.4718020000000  0.5274800000000  0.5633940000000 1.0
C      1  0.5138190000000  0.4668290000000  0.5678390000000 1.0
C      1  0.4023200000000  0.4757640000000  0.4639270000000 1.0
C      1  0.6018600000000  0.5255880000000  0.4621600000000 1.0
C      1  0.6025750000000  0.4810540000000  0.4620990000000 1.0
C      1  0.4008680000000  0.5216910000000  0.4674180000000 1.0
C      1  0.5733540000000  0.5563190000000  0.5172540000000 1.0
C      1  0.4284960000000  0.4297490000000  0.5278040000000 1.0
C      1  0.4286960000000  0.5784620000000  0.5314730000000 1.0
C      1  0.5676470000000  0.4270990000000  0.5357550000000 1.0
C      1  0.4307460000000  0.4706830000000  0.4612200000000 1.0
C      1  0.5735290000000  0.5301250000000  0.4555400000000 1.0
C      1  0.5743380000000  0.4743210000000  0.4574030000000 1.0
C      1  0.4293550000000  0.5265040000000  0.4639450000000 1.0
C      1  0.4460710000000  0.5130280000000  0.4869070000000 1.0
C      1  0.5598740000000  0.4875130000000  0.4806330000000 1.0
C      1  0.5587630000000  0.5190040000000  0.4795710000000 1.0
C      1  0.4456760000000  0.4817640000000  0.4864600000000 1.0
C      1  0.5552930000000  0.4240860000000  0.5106360000000 1.0
C      1  0.4477220000000  0.5775490000000  0.5108400000000 1.0
C      1  0.4458900000000  0.4219030000000  0.5072160000000 1.0
C      1  0.5558650000000  0.5743810000000  0.5029210000000 1.0
C      1  0.4177560000000  0.4690810000000  0.5107410000000 1.0
C      1  0.5761570000000  0.5276730000000  0.5041840000000 1.0
C      1  0.5792750000000  0.4800280000000  0.5039410000000 1.0
C      1  0.4096940000000  0.5263330000000  0.5160110000000 1.0
C      1  0.5365790000000  0.5560750000000  0.5572290000000 1.0
C      1  0.4690200000000  0.4422220000000  0.5563520000000 1.0
C      1  0.4683860000000  0.5576160000000  0.5577960000000 1.0
C      1  0.5272760000000  0.4388330000000  0.5626320000000 1.0
C      1  0.4379360000000  0.5180210000000  0.5143350000000 1.0
C      1  0.5416430000000  0.4805930000000  0.5261010000000 1.0
C      1  0.5338280000000  0.5238070000000  0.5269660000000 1.0
C      1  0.4437210000000  0.4918550000000  0.5282520000000 1.0
C      1  0.5140720000000  0.5725440000000  0.4459350000000 1.0
C      1  0.4874170000000  0.4280420000000  0.4471420000000 1.0
C      1  0.4850050000000  0.5715380000000  0.4477580000000 1.0
C      1  0.5165990000000  0.4294020000000  0.4474340000000 1.0
C      1  0.4880180000000  0.5728050000000  0.5409210000000 1.0
C      1  0.5139650000000  0.4238520000000  0.5409620000000 1.0
C      1  0.5181810000000  0.5712910000000  0.5392670000000 1.0
C      1  0.4848080000000  0.4242900000000  0.5392640000000 1.0
C      1  0.4701020000000  0.5544660000000  0.4318010000000 1.0
C      1  0.5307030000000  0.4459530000000  0.4300580000000 1.0
C      1  0.5283990000000  0.5557910000000  0.4287480000000 1.0
C      1  0.4724200000000  0.4447590000000  0.4308060000000 1.0
C      1  0.4420770000000  0.5143750000000  0.4382150000000 1.0
C      1  0.5601800000000  0.4861260000000  0.4324840000000 1.0
C      1  0.5597240000000  0.5161910000000  0.4316390000000 1.0
C      1  0.4431780000000  0.4844450000000  0.4371850000000 1.0
C      1  0.5562350000000  0.5764410000000  0.4734210000000 1.0
C      1  0.4460930000000  0.4231070000000  0.4773930000000 1.0
C      1  0.4456930000000  0.5752450000000  0.4809900000000 1.0
C      1  0.5565840000000  0.4283180000000  0.4800770000000 1.0
C      1  0.4329870000000  0.5551220000000  0.4661650000000 1.0
C      1  0.5705250000000  0.4456290000000  0.4622740000000 1.0
C      1  0.5689550000000  0.5585250000000  0.4559360000000 1.0
C      1  0.4336640000000  0.4420660000000  0.4611360000000 1.0
C      1  0.4005540000000  0.5291230000000  0.5430020000000 1.0
C      1  0.5793730000000  0.4735830000000  0.5326700000000 1.0
C      1  0.5622680000000  0.5130530000000  0.5279100000000 1.0
C      1  0.4099360000000  0.4759020000000  0.5381740000000 1.0
C      1  0.4881200000000  0.5880270000000  0.4941290000000 1.0
C      1  0.5151610000000  0.4119430000000  0.4933280000000 1.0
C      1  0.5160600000000  0.5917630000000  0.4927500000000 1.0
C      1  0.4872620000000  0.4070460000000  0.4925080000000 1.0
C      1  0.5304980000000  0.5270750000000  0.4793280000000 1.0
C      1  0.4747010000000  0.4733300000000  0.4847510000000 1.0
C      1  0.4738340000000  0.5229760000000  0.4845370000000 1.0
C      1  0.5321100000000  0.4768000000000  0.4804240000000 1.0
C      1  0.4825010000000  0.5157700000000  0.5893180000000 1.0
C      1  0.5101600000000  0.4820130000000  0.5960080000000 1.0
C      1  0.5119940000000  0.5140030000000  0.5954600000000 1.0
C      1  0.4791810000000  0.4851040000000  0.5889050000000 1.0
END
