TITL C-3577087-600-186 -1.39339795486456e-06 125000 -602.458035339165 0 0 97 (C1) n - 1
REM
REM in /home/bkarasulu/work/CARBON/AIRSS/Generating-Clusters/EDIP-Nigel-Params/with-SteepDescent/Higher-Symm/SD-CG/HFTN-CG
REM
REM
REM
REM
REM
REM ./C.cell (12c818d87b63d06a65506943cc24bca4)
REM
REM compiler GCC version 9.2.1 20190827 (Red Hat 9.2.1-1)
REM options -cpp -mtune=generic -march=x86-64 -g -O0 -fpre-include=/usr/include/finclude/math-vector-fortran.h
REM seed -840402512 1090093929 -157449755 1302897277 1874190959 1359818970 -638517548 -1353266139 -1478859648 -113937698 -1942485756 1600847096 -1312420597 -1255266362 -1479027221 -1462979016 -621180782 832760770 1890877464 -1195223772 670152144 -670956042 355739517 -982906585 -1087837998 2015040168 1262242649 -1490488571 -336693865 -388606215 -676005684 772167561 1232790301
REM
CELL 1.54180   50.00000   50.00000   50.00000   90.00000   90.00000   90.00000
LATT -1
SFAC C  
C      1  0.5128510000000  0.4990010000000  0.5711130000000 1.0
C      1  0.4358810000000  0.4930310000000  0.5599830000000 1.0
C      1  0.4197740000000  0.4953870000000  0.4873100000000 1.0
C      1  0.4590220000000  0.4970120000000  0.4356780000000 1.0
C      1  0.5198680000000  0.4948830000000  0.4285440000000 1.0
C      1  0.5562920000000  0.4929550000000  0.4664240000000 1.0
C      1  0.5669520000000  0.4888470000000  0.5262330000000 1.0
C      1  0.5300740000000  0.4267820000000  0.4618860000000 1.0
C      1  0.5396570000000  0.4219330000000  0.4897460000000 1.0
C      1  0.5274830000000  0.4155550000000  0.5398380000000 1.0
C      1  0.5011190000000  0.4173320000000  0.5527870000000 1.0
C      1  0.4786020000000  0.4117570000000  0.5314690000000 1.0
C      1  0.4793590000000  0.4168370000000  0.4832650000000 1.0
C      1  0.4930580000000  0.4226620000000  0.4580500000000 1.0
C      1  0.5108100000000  0.5427960000000  0.4241010000000 1.0
C      1  0.5773450000000  0.5512010000000  0.4577250000000 1.0
C      1  0.5706750000000  0.5374100000000  0.5287820000000 1.0
C      1  0.5243730000000  0.5679270000000  0.5774850000000 1.0
C      1  0.4634690000000  0.5308970000000  0.5563520000000 1.0
C      1  0.4295200000000  0.5313430000000  0.5115920000000 1.0
C      1  0.4456570000000  0.5531280000000  0.4489160000000 1.0
C      1  0.4199760000000  0.5159910000000  0.5507240000000 1.0
C      1  0.4103990000000  0.5183690000000  0.4730780000000 1.0
C      1  0.4967630000000  0.5265130000000  0.4060490000000 1.0
C      1  0.5522650000000  0.5146970000000  0.4217800000000 1.0
C      1  0.5845940000000  0.5110480000000  0.4847530000000 1.0
C      1  0.5556300000000  0.5195980000000  0.5716810000000 1.0
C      1  0.5084300000000  0.5240280000000  0.5842410000000 1.0
C      1  0.5395370000000  0.5647580000000  0.5542480000000 1.0
C      1  0.4804600000000  0.5555400000000  0.5631950000000 1.0
C      1  0.4344280000000  0.5558440000000  0.5298880000000 1.0
C      1  0.4386590000000  0.5603420000000  0.4754770000000 1.0
C      1  0.4958660000000  0.5610490000000  0.4403840000000 1.0
C      1  0.5499570000000  0.5534650000000  0.4530840000000 1.0
C      1  0.5693030000000  0.5549770000000  0.5062640000000 1.0
C      1  0.4374320000000  0.4814880000000  0.4447180000000 1.0
C      1  0.4993910000000  0.4986230000000  0.4072530000000 1.0
C      1  0.5621190000000  0.4907150000000  0.4357540000000 1.0
C      1  0.5815140000000  0.4857770000000  0.5005000000000 1.0
C      1  0.5432990000000  0.4942440000000  0.5743790000000 1.0
C      1  0.4619190000000  0.5034980000000  0.5716400000000 1.0
C      1  0.4177190000000  0.4947030000000  0.5181090000000 1.0
C      1  0.5069210000000  0.4950600000000  0.4561030000000 1.0
C      1  0.5288180000000  0.5056900000000  0.4733670000000 1.0
C      1  0.5402340000000  0.4936280000000  0.5144330000000 1.0
C      1  0.5132390000000  0.5028120000000  0.5404220000000 1.0
C      1  0.4870810000000  0.4969650000000  0.5283970000000 1.0
C      1  0.4639520000000  0.4968500000000  0.4859470000000 1.0
C      1  0.4765030000000  0.5055350000000  0.4590180000000 1.0
C      1  0.5676410000000  0.4641520000000  0.4843260000000 1.0
C      1  0.5555160000000  0.4728190000000  0.5585760000000 1.0
C      1  0.4852060000000  0.4848670000000  0.5760240000000 1.0
C      1  0.4359700000000  0.4776040000000  0.5352800000000 1.0
C      1  0.4297000000000  0.4737180000000  0.4704060000000 1.0
C      1  0.4751410000000  0.4830200000000  0.4147670000000 1.0
C      1  0.5407360000000  0.4696030000000  0.4311500000000 1.0
C      1  0.5796720000000  0.5398580000000  0.4830630000000 1.0
C      1  0.5571090000000  0.5412640000000  0.5534740000000 1.0
C      1  0.5025690000000  0.5509860000000  0.5814900000000 1.0
C      1  0.4354770000000  0.5401460000000  0.5543880000000 1.0
C      1  0.4182680000000  0.5416110000000  0.4869260000000 1.0
C      1  0.4684830000000  0.5621940000000  0.4368690000000 1.0
C      1  0.5368140000000  0.5354330000000  0.4341710000000 1.0
C      1  0.5066570000000  0.5769570000000  0.4624010000000 1.0
C      1  0.5342600000000  0.5697060000000  0.4726320000000 1.0
C      1  0.5430420000000  0.5693670000000  0.5032060000000 1.0
C      1  0.5254870000000  0.5715040000000  0.5287760000000 1.0
C      1  0.4870800000000  0.5679950000000  0.5359600000000 1.0
C      1  0.4590720000000  0.5716200000000  0.5213830000000 1.0
C      1  0.4615160000000  0.5706180000000  0.4923360000000 1.0
C      1  0.4408420000000  0.4501160000000  0.5358220000000 1.0
C      1  0.4395510000000  0.4496650000000  0.4804340000000 1.0
C      1  0.4810700000000  0.4566070000000  0.4231690000000 1.0
C      1  0.5341890000000  0.4558990000000  0.4568080000000 1.0
C      1  0.5500240000000  0.4475350000000  0.5015590000000 1.0
C      1  0.5401420000000  0.4487720000000  0.5544410000000 1.0
C      1  0.4811410000000  0.4576700000000  0.5706770000000 1.0
C      1  0.4915530000000  0.4455050000000  0.5469160000000 1.0
C      1  0.4575560000000  0.4322760000000  0.5225090000000 1.0
C      1  0.4570820000000  0.4329140000000  0.4939590000000 1.0
C      1  0.4863410000000  0.4496740000000  0.4497030000000 1.0
C      1  0.5069290000000  0.4660360000000  0.4640620000000 1.0
C      1  0.5268960000000  0.4652050000000  0.5113790000000 1.0
C      1  0.5179630000000  0.4588030000000  0.5393670000000 1.0
C      1  0.5263980000000  0.5333430000000  0.4844940000000 1.0
C      1  0.5381100000000  0.5252710000000  0.5120170000000 1.0
C      1  0.5187540000000  0.5329010000000  0.5330530000000 1.0
C      1  0.4731400000000  0.5224910000000  0.5275220000000 1.0
C      1  0.4570420000000  0.5230460000000  0.5018920000000 1.0
C      1  0.4738420000000  0.5352470000000  0.4685480000000 1.0
C      1  0.4969250000000  0.5441890000000  0.4895000000000 1.0
C      1  0.4935770000000  0.4049340000000  0.5062170000000 1.0
C      1  0.5225040000000  0.4091630000000  0.5111340000000 1.0
C      1  0.4933580000000  0.5422600000000  0.5201840000000 1.0
C      1  0.5033230000000  0.4661220000000  0.4934070000000 1.0
C      1  0.4864580000000  0.4872740000000  0.5016070000000 1.0
C      1  0.4869750000000  0.5814450000000  0.4830130000000 1.0
END
