TITL C-3577085-527-329 -8.37685930372152e-06 125000 -949.112284690591 0 0 151 (C1) n - 1
REM
REM in /home/bkarasulu/work/CARBON/AIRSS/Generating-Clusters/EDIP-Nigel-Params/with-SteepDescent/Higher-Symm/SD-CG/HFTN-CG
REM
REM
REM
REM
REM
REM ./C.cell (12c818d87b63d06a65506943cc24bca4)
REM
REM compiler GCC version 9.2.1 20190827 (Red Hat 9.2.1-1)
REM options -cpp -mtune=generic -march=x86-64 -g -O0 -fpre-include=/usr/include/finclude/math-vector-fortran.h
REM seed -779292849 -1296001937 -1153386956 411986611 -599735400 612257665 2106280807 794399830 -1269909391 468648780 607102394 848742276 405242097 1137180737 1955159433 -2009277892 1792192541 102986168 -1041589850 -663186616 -2075904576 744626385 -1949899272 -2027924035 -478937647 1496670379 1616252508 -377119027 1226106507 -757195491 -1944582896 -2101473841 1375305551
REM
CELL 1.54180   50.00000   50.00000   50.00000   90.00000   90.00000   90.00000
LATT -1
SFAC C  
C      1  0.4225880000000  0.4869060000000  0.4522670000000 1.0
C      1  0.5280290000000  0.5791460000000  0.4344330000000 1.0
C      1  0.5524490000000  0.4352130000000  0.4355170000000 1.0
C      1  0.5647340000000  0.4625150000000  0.4399320000000 1.0
C      1  0.4287510000000  0.4576300000000  0.4445490000000 1.0
C      1  0.4998220000000  0.5710830000000  0.4453000000000 1.0
C      1  0.4914350000000  0.5263790000000  0.5705540000000 1.0
C      1  0.5121340000000  0.5055610000000  0.5723380000000 1.0
C      1  0.4948370000000  0.4828280000000  0.5782230000000 1.0
C      1  0.5567770000000  0.4784500000000  0.5749950000000 1.0
C      1  0.4593000000000  0.4559520000000  0.5792590000000 1.0
C      1  0.4747600000000  0.5650030000000  0.5848640000000 1.0
C      1  0.5371830000000  0.4881610000000  0.4088580000000 1.0
C      1  0.4696340000000  0.4730030000000  0.4177080000000 1.0
C      1  0.4904470000000  0.5382100000000  0.4115950000000 1.0
C      1  0.5946420000000  0.5028680000000  0.4784460000000 1.0
C      1  0.4578370000000  0.4116070000000  0.4724310000000 1.0
C      1  0.4352570000000  0.5834300000000  0.4707850000000 1.0
C      1  0.4720060000000  0.6011870000000  0.5152790000000 1.0
C      1  0.6035560000000  0.4794600000000  0.5082590000000 1.0
C      1  0.4249400000000  0.4278770000000  0.5166650000000 1.0
C      1  0.3982100000000  0.4541810000000  0.5507420000000 1.0
C      1  0.5104650000000  0.5930850000000  0.5460880000000 1.0
C      1  0.5835540000000  0.4376900000000  0.5347460000000 1.0
C      1  0.4864800000000  0.4406200000000  0.5871740000000 1.0
C      1  0.4533060000000  0.5433600000000  0.5855060000000 1.0
C      1  0.5553900000000  0.5042930000000  0.5896430000000 1.0
C      1  0.5490570000000  0.5344090000000  0.5575610000000 1.0
C      1  0.5138870000000  0.4218800000000  0.5474890000000 1.0
C      1  0.4197720000000  0.5268440000000  0.5487810000000 1.0
C      1  0.5305290000000  0.5637820000000  0.4789910000000 1.0
C      1  0.5386910000000  0.4472530000000  0.4802070000000 1.0
C      1  0.4376770000000  0.4909430000000  0.4791980000000 1.0
C      1  0.5294290000000  0.5035540000000  0.5467550000000 1.0
C      1  0.4831000000000  0.4715400000000  0.5525920000000 1.0
C      1  0.4854700000000  0.5333790000000  0.5431400000000 1.0
C      1  0.4842770000000  0.5898020000000  0.4663410000000 1.0
C      1  0.5901540000000  0.4655630000000  0.4558680000000 1.0
C      1  0.4230770000000  0.4383390000000  0.4660310000000 1.0
C      1  0.5334820000000  0.4708450000000  0.4612000000000 1.0
C      1  0.4668360000000  0.4912650000000  0.4720850000000 1.0
C      1  0.5130860000000  0.5458680000000  0.4611800000000 1.0
C      1  0.5652270000000  0.5033930000000  0.4827790000000 1.0
C      1  0.4583180000000  0.4401580000000  0.4801880000000 1.0
C      1  0.4624980000000  0.5702380000000  0.4718770000000 1.0
C      1  0.5218770000000  0.5205800000000  0.5208960000000 1.0
C      1  0.5039200000000  0.4710120000000  0.5309230000000 1.0
C      1  0.4704710000000  0.5152090000000  0.5270510000000 1.0
C      1  0.4168270000000  0.4453520000000  0.4939670000000 1.0
C      1  0.4924470000000  0.6018950000000  0.4930760000000 1.0
C      1  0.5887740000000  0.4607050000000  0.4864580000000 1.0
C      1  0.4555930000000  0.4069150000000  0.4445590000000 1.0
C      1  0.4379500000000  0.5811070000000  0.4424300000000 1.0
C      1  0.5982900000000  0.4943570000000  0.4500020000000 1.0
C      1  0.5641880000000  0.4840030000000  0.4195110000000 1.0
C      1  0.4564660000000  0.4532120000000  0.4338210000000 1.0
C      1  0.4798930000000  0.5621830000000  0.4238680000000 1.0
C      1  0.4943980000000  0.4598660000000  0.5051490000000 1.0
C      1  0.4624340000000  0.5280150000000  0.5011730000000 1.0
C      1  0.5479960000000  0.5298970000000  0.5136470000000 1.0
C      1  0.4669310000000  0.5828330000000  0.5621510000000 1.0
C      1  0.5822840000000  0.4795860000000  0.5584450000000 1.0
C      1  0.4428600000000  0.4363300000000  0.5630430000000 1.0
C      1  0.4446790000000  0.5714430000000  0.5483470000000 1.0
C      1  0.5904250000000  0.5072790000000  0.5548930000000 1.0
C      1  0.4638210000000  0.4213110000000  0.5504030000000 1.0
C      1  0.5560680000000  0.4406350000000  0.5395120000000 1.0
C      1  0.4037570000000  0.4800780000000  0.5553530000000 1.0
C      1  0.5223260000000  0.5676930000000  0.5435630000000 1.0
C      1  0.4715060000000  0.4276070000000  0.4335820000000 1.0
C      1  0.4505640000000  0.5576510000000  0.4315480000000 1.0
C      1  0.5785210000000  0.5081590000000  0.4311760000000 1.0
C      1  0.4967140000000  0.5602640000000  0.5073450000000 1.0
C      1  0.5511410000000  0.4771920000000  0.5154280000000 1.0
C      1  0.4473880000000  0.4696950000000  0.5203030000000 1.0
C      1  0.5711710000000  0.5232780000000  0.5723300000000 1.0
C      1  0.4891490000000  0.4286010000000  0.5607950000000 1.0
C      1  0.4378520000000  0.5464370000000  0.5606000000000 1.0
C      1  0.5322610000000  0.5560010000000  0.5680350000000 1.0
C      1  0.5375030000000  0.4341110000000  0.5593930000000 1.0
C      1  0.4222530000000  0.5000990000000  0.5609080000000 1.0
C      1  0.5490620000000  0.4246640000000  0.4629320000000 1.0
C      1  0.3940470000000  0.4938950000000  0.4603970000000 1.0
C      1  0.5431430000000  0.5829820000000  0.4592670000000 1.0
C      1  0.4498430000000  0.4923280000000  0.5708440000000 1.0
C      1  0.5085170000000  0.5477440000000  0.5858100000000 1.0
C      1  0.5361820000000  0.4561860000000  0.5789780000000 1.0
C      1  0.5153330000000  0.5848290000000  0.5030820000000 1.0
C      1  0.5618840000000  0.4531040000000  0.4989390000000 1.0
C      1  0.4239850000000  0.4739010000000  0.5013910000000 1.0
C      1  0.5932390000000  0.4642200000000  0.5353290000000 1.0
C      1  0.4219780000000  0.4414650000000  0.5429310000000 1.0
C      1  0.4831900000000  0.5982890000000  0.5427920000000 1.0
C      1  0.3929990000000  0.5165570000000  0.5025710000000 1.0
C      1  0.5663310000000  0.5873360000000  0.5082410000000 1.0
C      1  0.5361700000000  0.3994590000000  0.5059300000000 1.0
C      1  0.4576020000000  0.5001870000000  0.4158040000000 1.0
C      1  0.5210270000000  0.5367700000000  0.4078090000000 1.0
C      1  0.5188350000000  0.4634610000000  0.4095210000000 1.0
C      1  0.4602660000000  0.4894220000000  0.5401540000000 1.0
C      1  0.5070160000000  0.5457770000000  0.5293050000000 1.0
C      1  0.5335460000000  0.4726500000000  0.5387240000000 1.0
C      1  0.4355610000000  0.5190520000000  0.4913010000000 1.0
C      1  0.5507610000000  0.5448540000000  0.4884520000000 1.0
C      1  0.5144470000000  0.4396890000000  0.4982940000000 1.0
C      1  0.5846610000000  0.5737320000000  0.4901810000000 1.0
C      1  0.5265500000000  0.3915050000000  0.4802210000000 1.0
C      1  0.3952430000000  0.5212010000000  0.4723760000000 1.0
C      1  0.5046160000000  0.4651430000000  0.4551860000000 1.0
C      1  0.4719520000000  0.5178320000000  0.4586290000000 1.0
C      1  0.5343650000000  0.5219640000000  0.4492860000000 1.0
C      1  0.5428080000000  0.6015920000000  0.4991660000000 1.0
C      1  0.5611780000000  0.4147950000000  0.5040290000000 1.0
C      1  0.3951360000000  0.4867620000000  0.5041450000000 1.0
C      1  0.4815440000000  0.5140700000000  0.4286440000000 1.0
C      1  0.5224880000000  0.5106890000000  0.4233920000000 1.0
C      1  0.4985280000000  0.4768890000000  0.4272260000000 1.0
C      1  0.4430960000000  0.5318440000000  0.4476260000000 1.0
C      1  0.5623900000000  0.5353260000000  0.4422630000000 1.0
C      1  0.5006400000000  0.4277440000000  0.4444860000000 1.0
C      1  0.4669810000000  0.5585050000000  0.5006940000000 1.0
C      1  0.5637320000000  0.5050850000000  0.5117000000000 1.0
C      1  0.4656840000000  0.4480920000000  0.5079570000000 1.0
C      1  0.4219440000000  0.5362680000000  0.4707850000000 1.0
C      1  0.5765270000000  0.5486080000000  0.4728080000000 1.0
C      1  0.5050530000000  0.4028980000000  0.4648690000000 1.0
C      1  0.6044340000000  0.5354780000000  0.5109690000000 1.0
C      1  0.4853100000000  0.4032560000000  0.5110220000000 1.0
C      1  0.4181530000000  0.5621920000000  0.5106680000000 1.0
C      1  0.4165360000000  0.5640140000000  0.4816750000000 1.0
C      1  0.5999490000000  0.5312540000000  0.4823620000000 1.0
C      1  0.4815670000000  0.3974480000000  0.4822830000000 1.0
C      1  0.4334290000000  0.5074640000000  0.4319820000000 1.0
C      1  0.5404930000000  0.5557370000000  0.4210880000000 1.0
C      1  0.5246380000000  0.4372820000000  0.4244180000000 1.0
C      1  0.4449090000000  0.5751050000000  0.5189500000000 1.0
C      1  0.5920050000000  0.5098180000000  0.5237320000000 1.0
C      1  0.4612950000000  0.4197810000000  0.5213790000000 1.0
C      1  0.4121750000000  0.5335060000000  0.5199860000000 1.0
C      1  0.5962050000000  0.5630860000000  0.5147100000000 1.0
C      1  0.5129530000000  0.4154820000000  0.5168800000000 1.0
C      1  0.5448890000000  0.6084020000000  0.4714750000000 1.0
C      1  0.5711760000000  0.4131890000000  0.4773290000000 1.0
C      1  0.3817910000000  0.4776210000000  0.4804130000000 1.0
C      1  0.5368250000000  0.5001760000000  0.4709830000000 1.0
C      1  0.4933140000000  0.4800990000000  0.4814270000000 1.0
C      1  0.4941550000000  0.5288310000000  0.4770340000000 1.0
C      1  0.5286610000000  0.5151740000000  0.5948340000000 1.0
C      1  0.5089380000000  0.4607990000000  0.5926750000000 1.0
C      1  0.4656580000000  0.5157480000000  0.5849680000000 1.0
C      1  0.5112630000000  0.5057120000000  0.4892250000000 1.0
END
