TITL C-3578204-4308-667 5.30571830848023e-07 125000 -565.657385447751 0 0 94 (C1) n - 1
REM
REM in /home/bkarasulu/work/CARBON/AIRSS/Generating-Clusters/EDIP-Nigel-Params/with-SteepDescent/Higher-Symm/SD-CG/HFTN-CG
REM
REM
REM
REM
REM
REM ./C.cell (12c818d87b63d06a65506943cc24bca4)
REM
REM compiler GCC version 9.2.1 20190827 (Red Hat 9.2.1-1)
REM options -cpp -mtune=generic -march=x86-64 -g -O0 -fpre-include=/usr/include/finclude/math-vector-fortran.h
REM seed 560354773 1848723258 1312064071 1931627246 -260003750 985804962 1583707981 -1138285765 -1767127469 -1216237113 2072294977 1734485121 443807274 -2112433034 -233246753 1607745398 -1173642577 -74188062 -1199152602 -700972740 -1804882764 1356497152 -1070766652 782251460 1650625336 1644158635 -144329503 295039455 925184196 533807987 768771861 -848374866 888062781
REM
CELL 1.54180   50.00000   50.00000   50.00000   90.00000   90.00000   90.00000
LATT -1
SFAC C  
C      1  0.4907240000000  0.4427880000000  0.5592100000000 1.0
C      1  0.4306900000000  0.5650410000000  0.4786620000000 1.0
C      1  0.5474210000000  0.4813790000000  0.4279410000000 1.0
C      1  0.4912690000000  0.5652680000000  0.4483750000000 1.0
C      1  0.5307150000000  0.4129140000000  0.4513160000000 1.0
C      1  0.5126260000000  0.5876310000000  0.5550310000000 1.0
C      1  0.4368170000000  0.4359500000000  0.5227350000000 1.0
C      1  0.5638880000000  0.5500170000000  0.5138070000000 1.0
C      1  0.5657420000000  0.4611990000000  0.4753850000000 1.0
C      1  0.5381510000000  0.5262910000000  0.5701560000000 1.0
C      1  0.4406890000000  0.4825340000000  0.5592720000000 1.0
C      1  0.4377730000000  0.5226760000000  0.4222650000000 1.0
C      1  0.4808770000000  0.5420360000000  0.4339620000000 1.0
C      1  0.4185200000000  0.4798980000000  0.5405990000000 1.0
C      1  0.5554340000000  0.4385680000000  0.4893340000000 1.0
C      1  0.4773990000000  0.4628540000000  0.5739680000000 1.0
C      1  0.5226580000000  0.4371380000000  0.4397340000000 1.0
C      1  0.5090330000000  0.5627670000000  0.5705630000000 1.0
C      1  0.4337400000000  0.5225080000000  0.4510360000000 1.0
C      1  0.5566630000000  0.5133610000000  0.5527600000000 1.0
C      1  0.5755900000000  0.4842970000000  0.4367820000000 1.0
C      1  0.5391590000000  0.5656580000000  0.5220710000000 1.0
C      1  0.4553210000000  0.5717690000000  0.4897910000000 1.0
C      1  0.4491310000000  0.4213510000000  0.5429670000000 1.0
C      1  0.5432660000000  0.4892770000000  0.4797780000000 1.0
C      1  0.4931540000000  0.5500990000000  0.4988180000000 1.0
C      1  0.5438960000000  0.5137360000000  0.4985940000000 1.0
C      1  0.4613500000000  0.4864680000000  0.5113250000000 1.0
C      1  0.4612730000000  0.5110620000000  0.4937630000000 1.0
C      1  0.5126880000000  0.4494180000000  0.4890480000000 1.0
C      1  0.4860380000000  0.4452060000000  0.5153850000000 1.0
C      1  0.5133650000000  0.5460780000000  0.5220790000000 1.0
C      1  0.4908800000000  0.4850250000000  0.5457510000000 1.0
C      1  0.4849510000000  0.5144760000000  0.4568660000000 1.0
C      1  0.5047590000000  0.4888810000000  0.4555760000000 1.0
C      1  0.5129680000000  0.5095540000000  0.5467450000000 1.0
C      1  0.5311710000000  0.5599420000000  0.4786860000000 1.0
C      1  0.5610700000000  0.4728080000000  0.5242620000000 1.0
C      1  0.4547500000000  0.5366500000000  0.5565720000000 1.0
C      1  0.5273070000000  0.4345180000000  0.5278330000000 1.0
C      1  0.5577180000000  0.5293550000000  0.4551490000000 1.0
C      1  0.4484520000000  0.4614800000000  0.4603710000000 1.0
C      1  0.4409840000000  0.5264520000000  0.5292350000000 1.0
C      1  0.5335130000000  0.5391810000000  0.4365720000000 1.0
C      1  0.5291200000000  0.4723940000000  0.5636660000000 1.0
C      1  0.4697640000000  0.5580750000000  0.5404690000000 1.0
C      1  0.4572820000000  0.4392870000000  0.4770530000000 1.0
C      1  0.4665660000000  0.4720980000000  0.4408690000000 1.0
C      1  0.4548660000000  0.5458610000000  0.4215600000000 1.0
C      1  0.5399330000000  0.4189910000000  0.4763710000000 1.0
C      1  0.4766640000000  0.4226630000000  0.5448210000000 1.0
C      1  0.4751270000000  0.5763220000000  0.4695450000000 1.0
C      1  0.4367260000000  0.5513630000000  0.4552780000000 1.0
C      1  0.5449760000000  0.4526020000000  0.4302130000000 1.0
C      1  0.4166850000000  0.4537320000000  0.5302680000000 1.0
C      1  0.5779960000000  0.4578680000000  0.4495160000000 1.0
C      1  0.4496040000000  0.4616990000000  0.5760740000000 1.0
C      1  0.5410430000000  0.5813030000000  0.5471590000000 1.0
C      1  0.5367960000000  0.5548060000000  0.5730910000000 1.0
C      1  0.5683750000000  0.5290990000000  0.5322810000000 1.0
C      1  0.5778470000000  0.5061430000000  0.4571890000000 1.0
C      1  0.5786310000000  0.4878190000000  0.5076420000000 1.0
C      1  0.5174510000000  0.5234510000000  0.4189940000000 1.0
C      1  0.4717320000000  0.5218830000000  0.5750290000000 1.0
C      1  0.5144550000000  0.4133800000000  0.5127250000000 1.0
C      1  0.4934760000000  0.5879810000000  0.5329550000000 1.0
C      1  0.5133890000000  0.4873990000000  0.5832250000000 1.0
C      1  0.4213410000000  0.5022260000000  0.5208920000000 1.0
C      1  0.4265190000000  0.4759780000000  0.4722950000000 1.0
C      1  0.4776900000000  0.4876130000000  0.4212190000000 1.0
C      1  0.4835230000000  0.4271430000000  0.4697750000000 1.0
C      1  0.5277490000000  0.5809310000000  0.4985100000000 1.0
C      1  0.5484030000000  0.4483980000000  0.5147690000000 1.0
C      1  0.5531910000000  0.5400970000000  0.4849820000000 1.0
C      1  0.4570790000000  0.4484580000000  0.5050170000000 1.0
C      1  0.4645400000000  0.5516550000000  0.5101510000000 1.0
C      1  0.4607350000000  0.4959740000000  0.5418660000000 1.0
C      1  0.5200060000000  0.5598860000000  0.4523710000000 1.0
C      1  0.5347410000000  0.4979950000000  0.4496410000000 1.0
C      1  0.5166400000000  0.4492780000000  0.5505830000000 1.0
C      1  0.4973010000000  0.5453560000000  0.5491430000000 1.0
C      1  0.5013550000000  0.4499200000000  0.4563270000000 1.0
C      1  0.5498910000000  0.4855970000000  0.5476420000000 1.0
C      1  0.4544270000000  0.5046460000000  0.4641360000000 1.0
C      1  0.4921510000000  0.5057180000000  0.5846490000000 1.0
C      1  0.5008790000000  0.5876760000000  0.5053820000000 1.0
C      1  0.4969980000000  0.5057080000000  0.4150900000000 1.0
C      1  0.4966950000000  0.4107310000000  0.4909330000000 1.0
C      1  0.5863240000000  0.4988130000000  0.4835180000000 1.0
C      1  0.4212350000000  0.4922740000000  0.4941540000000 1.0
C      1  0.4879940000000  0.5224950000000  0.4868720000000 1.0
C      1  0.4903390000000  0.4752170000000  0.5162380000000 1.0
C      1  0.5202610000000  0.5174170000000  0.5166610000000 1.0
C      1  0.5142020000000  0.4802330000000  0.4848470000000 1.0
END
