TITL C-3577091-527-425 -1.44209655548515e-06 125000 -827.376283240579 0 0 133 (C1) n - 1
REM
REM in /home/bkarasulu/work/CARBON/AIRSS/Generating-Clusters/EDIP-Nigel-Params/with-SteepDescent/Higher-Symm/SD-CG/HFTN-CG
REM
REM
REM
REM
REM
REM ./C.cell (12c818d87b63d06a65506943cc24bca4)
REM
REM compiler GCC version 9.2.1 20190827 (Red Hat 9.2.1-1)
REM options -cpp -mtune=generic -march=x86-64 -g -O0 -fpre-include=/usr/include/finclude/math-vector-fortran.h
REM seed -187900062 802210669 -1514403889 236023239 -980759731 -1084767480 947629106 -17238011 1091620977 -1057799922 849645143 1467791318 -1554410044 -816119802 385073450 -840323477 1963232487 -2021737866 -139330747 -1896049410 -680214870 1245147158 -108792422 -1131735195 17516952 1862343287 -1273369619 -1615091619 783826037 -469075401 583678596 -1017767829 -1799562721
REM
CELL 1.54180   50.00000   50.00000   50.00000   90.00000   90.00000   90.00000
LATT -1
SFAC C  
C      1  0.5084180000000  0.5265810000000  0.4669620000000 1.0
C      1  0.5233660000000  0.5005910000000  0.5471970000000 1.0
C      1  0.4850520000000  0.4739790000000  0.4273860000000 1.0
C      1  0.4790770000000  0.5368690000000  0.4123530000000 1.0
C      1  0.5796020000000  0.5060130000000  0.4547590000000 1.0
C      1  0.4867110000000  0.4322310000000  0.5669360000000 1.0
C      1  0.4989080000000  0.5099140000000  0.5928890000000 1.0
C      1  0.5103550000000  0.4191700000000  0.4686790000000 1.0
C      1  0.5202210000000  0.4877390000000  0.4044610000000 1.0
C      1  0.5006560000000  0.5906800000000  0.5339260000000 1.0
C      1  0.5101530000000  0.4940150000000  0.5051620000000 1.0
C      1  0.5611650000000  0.5439210000000  0.5605730000000 1.0
C      1  0.5558160000000  0.4483070000000  0.5611700000000 1.0
C      1  0.4419520000000  0.4526860000000  0.4202870000000 1.0
C      1  0.4133670000000  0.5492650000000  0.5392050000000 1.0
C      1  0.5478920000000  0.5861680000000  0.4969400000000 1.0
C      1  0.5746920000000  0.5724530000000  0.4919860000000 1.0
C      1  0.6018370000000  0.5183590000000  0.5003620000000 1.0
C      1  0.5282230000000  0.4700530000000  0.4925460000000 1.0
C      1  0.4040610000000  0.5449690000000  0.4909510000000 1.0
C      1  0.4347730000000  0.5106220000000  0.4176870000000 1.0
C      1  0.4803410000000  0.4756180000000  0.5547120000000 1.0
C      1  0.4537500000000  0.5169940000000  0.5334960000000 1.0
C      1  0.4534240000000  0.5449990000000  0.4933390000000 1.0
C      1  0.4734410000000  0.4995480000000  0.4357070000000 1.0
C      1  0.4136260000000  0.5048740000000  0.5190350000000 1.0
C      1  0.5739940000000  0.5502770000000  0.4723220000000 1.0
C      1  0.4519530000000  0.5163260000000  0.4829600000000 1.0
C      1  0.4796450000000  0.4030000000000  0.5130020000000 1.0
C      1  0.5317690000000  0.5876450000000  0.4713100000000 1.0
C      1  0.5308850000000  0.4764110000000  0.5951510000000 1.0
C      1  0.4423850000000  0.5887600000000  0.4826350000000 1.0
C      1  0.5496010000000  0.4157420000000  0.4896480000000 1.0
C      1  0.5675150000000  0.4790460000000  0.4615050000000 1.0
C      1  0.4608640000000  0.4101070000000  0.4635770000000 1.0
C      1  0.4165400000000  0.4857460000000  0.4965740000000 1.0
C      1  0.4664760000000  0.4510510000000  0.4365550000000 1.0
C      1  0.4041790000000  0.5320920000000  0.5166930000000 1.0
C      1  0.4247030000000  0.4592670000000  0.5121190000000 1.0
C      1  0.5269640000000  0.5103660000000  0.5773690000000 1.0
C      1  0.5523770000000  0.5112360000000  0.4986230000000 1.0
C      1  0.4555840000000  0.5757950000000  0.4348730000000 1.0
C      1  0.4830590000000  0.4154860000000  0.4847450000000 1.0
C      1  0.5119430000000  0.5492860000000  0.5100340000000 1.0
C      1  0.4729090000000  0.5573270000000  0.4758630000000 1.0
C      1  0.5557020000000  0.5206820000000  0.4399800000000 1.0
C      1  0.5289420000000  0.5911250000000  0.5306300000000 1.0
C      1  0.4756770000000  0.5056940000000  0.5517460000000 1.0
C      1  0.5118980000000  0.4723490000000  0.5505170000000 1.0
C      1  0.5803670000000  0.5214170000000  0.5650830000000 1.0
C      1  0.4600910000000  0.4306150000000  0.5528640000000 1.0
C      1  0.4912450000000  0.5626830000000  0.5564660000000 1.0
C      1  0.4537930000000  0.4694270000000  0.5836740000000 1.0
C      1  0.4621120000000  0.5807480000000  0.4616270000000 1.0
C      1  0.4198690000000  0.5011060000000  0.4700280000000 1.0
C      1  0.5089800000000  0.5389890000000  0.4111190000000 1.0
C      1  0.5029450000000  0.4199210000000  0.4389970000000 1.0
C      1  0.5087680000000  0.4281000000000  0.5450300000000 1.0
C      1  0.4811250000000  0.4590870000000  0.5140910000000 1.0
C      1  0.4564700000000  0.5011430000000  0.5080950000000 1.0
C      1  0.5486240000000  0.4396070000000  0.4521800000000 1.0
C      1  0.5284300000000  0.4663280000000  0.4232630000000 1.0
C      1  0.4238380000000  0.4497380000000  0.4632490000000 1.0
C      1  0.4563740000000  0.4179510000000  0.5255660000000 1.0
C      1  0.4613300000000  0.4597760000000  0.4669460000000 1.0
C      1  0.5026270000000  0.4812790000000  0.5998550000000 1.0
C      1  0.5449950000000  0.5700650000000  0.4329190000000 1.0
C      1  0.5446300000000  0.4363460000000  0.5355180000000 1.0
C      1  0.5445630000000  0.5946270000000  0.4470450000000 1.0
C      1  0.5149690000000  0.5580130000000  0.5716530000000 1.0
C      1  0.5288240000000  0.3923760000000  0.5217770000000 1.0
C      1  0.4317150000000  0.5385640000000  0.4194470000000 1.0
C      1  0.4818650000000  0.4856470000000  0.5036300000000 1.0
C      1  0.4255260000000  0.4928980000000  0.4418930000000 1.0
C      1  0.5290770000000  0.5080240000000  0.4534100000000 1.0
C      1  0.4552610000000  0.5537060000000  0.4180550000000 1.0
C      1  0.5236330000000  0.4464110000000  0.4708870000000 1.0
C      1  0.4182520000000  0.4933120000000  0.5452070000000 1.0
C      1  0.5762590000000  0.4707960000000  0.5561380000000 1.0
C      1  0.4888500000000  0.5915830000000  0.5069770000000 1.0
C      1  0.4261140000000  0.4660370000000  0.5406810000000 1.0
C      1  0.4736460000000  0.4216130000000  0.4383540000000 1.0
C      1  0.5146190000000  0.4412140000000  0.4235840000000 1.0
C      1  0.4657520000000  0.5476860000000  0.5711170000000 1.0
C      1  0.5478260000000  0.4633520000000  0.5166150000000 1.0
C      1  0.5499020000000  0.4110050000000  0.5185800000000 1.0
C      1  0.4241650000000  0.4639310000000  0.4385510000000 1.0
C      1  0.4841280000000  0.4615370000000  0.5837940000000 1.0
C      1  0.5058480000000  0.4534090000000  0.5271810000000 1.0
C      1  0.4479650000000  0.4996410000000  0.5863130000000 1.0
C      1  0.5551140000000  0.4647080000000  0.4369210000000 1.0
C      1  0.5692920000000  0.4325540000000  0.4725630000000 1.0
C      1  0.4707230000000  0.4424940000000  0.4919220000000 1.0
C      1  0.5355810000000  0.5395120000000  0.5752900000000 1.0
C      1  0.4358060000000  0.4313980000000  0.5050360000000 1.0
C      1  0.5509350000000  0.4938720000000  0.5283210000000 1.0
C      1  0.4275530000000  0.5628160000000  0.4946440000000 1.0
C      1  0.5936250000000  0.5025310000000  0.5235720000000 1.0
C      1  0.4723530000000  0.5174740000000  0.5790940000000 1.0
C      1  0.4632410000000  0.5455980000000  0.5228220000000 1.0
C      1  0.4237850000000  0.5714030000000  0.5239790000000 1.0
C      1  0.4516730000000  0.5737880000000  0.5311720000000 1.0
C      1  0.4927930000000  0.5443090000000  0.5319540000000 1.0
C      1  0.5229500000000  0.5625540000000  0.4169410000000 1.0
C      1  0.5606000000000  0.5527370000000  0.5323240000000 1.0
C      1  0.5039540000000  0.4025590000000  0.5304220000000 1.0
C      1  0.4914500000000  0.4828890000000  0.3990690000000 1.0
C      1  0.4784590000000  0.5099270000000  0.4637930000000 1.0
C      1  0.4270520000000  0.5103050000000  0.5681570000000 1.0
C      1  0.5788330000000  0.5220310000000  0.4813110000000 1.0
C      1  0.4347680000000  0.4247210000000  0.4741860000000 1.0
C      1  0.5308660000000  0.3992090000000  0.4753440000000 1.0
C      1  0.4427770000000  0.4532790000000  0.5605150000000 1.0
C      1  0.4800010000000  0.4822850000000  0.4755220000000 1.0
C      1  0.5569980000000  0.5487280000000  0.4486670000000 1.0
C      1  0.4669400000000  0.5097540000000  0.4089410000000 1.0
C      1  0.4990990000000  0.5171340000000  0.5405870000000 1.0
C      1  0.5267730000000  0.5150960000000  0.4149870000000 1.0
C      1  0.5654170000000  0.4965670000000  0.5637330000000 1.0
C      1  0.4590930000000  0.5942280000000  0.5096510000000 1.0
C      1  0.5828140000000  0.4587190000000  0.4803430000000 1.0
C      1  0.6011210000000  0.5205660000000  0.5447730000000 1.0
C      1  0.5903510000000  0.4735240000000  0.5291780000000 1.0
C      1  0.5295240000000  0.4589250000000  0.5724180000000 1.0
C      1  0.6073270000000  0.5436500000000  0.5146000000000 1.0
C      1  0.5370550000000  0.5660320000000  0.5190780000000 1.0
C      1  0.5436570000000  0.4907070000000  0.4760440000000 1.0
C      1  0.5760580000000  0.4566410000000  0.5092740000000 1.0
C      1  0.5183580000000  0.5226210000000  0.4956070000000 1.0
C      1  0.5847060000000  0.5620200000000  0.5179880000000 1.0
C      1  0.5154180000000  0.5647860000000  0.4672660000000 1.0
C      1  0.4971490000000  0.5666420000000  0.4900530000000 1.0
C      1  0.4361430000000  0.5375690000000  0.5573440000000 1.0
END
