TITL C-3578201-9217-62 -3.10971030519742e-06 125000 -637.9835890249 0 0 102 (C2) n - 1
REM
REM in /home/bkarasulu/work/CARBON/AIRSS/Generating-Clusters/EDIP-Nigel-Params/with-SteepDescent/Higher-Symm/SD-CG/HFTN-CG
REM
REM
REM
REM
REM
REM ./C.cell (12c818d87b63d06a65506943cc24bca4)
REM
REM compiler GCC version 9.2.1 20190827 (Red Hat 9.2.1-1)
REM options -cpp -mtune=generic -march=x86-64 -g -O0 -fpre-include=/usr/include/finclude/math-vector-fortran.h
REM seed -2091222429 -1498463501 635095682 -1771358430 1006814921 -1676167184 944449875 1677551624 -656366506 -664735712 -156114019 183380337 -1306292341 -1348481370 1388554212 -1037369328 1739609099 1118110688 1059533972 -1313896251 2102780103 -1485169185 -1058385016 -1220842456 1817883901 280590345 -924804814 -628824736 -60138745 1572749606 -838663767 -1251514171 1102718125
REM
CELL 1.54180   50.00000   50.00000   50.00000   90.00000   90.00000   90.00000
LATT -1
SFAC C  
C      1  0.4975490000000  0.4691940000000  0.5316460000000 1.0
C      1  0.4712670000000  0.4700180000000  0.5133400000000 1.0
C      1  0.4731620000000  0.4707390000000  0.4810310000000 1.0
C      1  0.5024510000000  0.4691890000000  0.4683580000000 1.0
C      1  0.5287330000000  0.4700160000000  0.4866640000000 1.0
C      1  0.5268380000000  0.4707420000000  0.5189730000000 1.0
C      1  0.4922510000000  0.4683920000000  0.4169150000000 1.0
C      1  0.5730640000000  0.4633500000000  0.4519930000000 1.0
C      1  0.5758760000000  0.4695400000000  0.5384780000000 1.0
C      1  0.5077480000000  0.4684040000000  0.5830900000000 1.0
C      1  0.4269360000000  0.4633570000000  0.5480120000000 1.0
C      1  0.4241240000000  0.4695350000000  0.4615260000000 1.0
C      1  0.5243770000000  0.5547590000000  0.5735430000000 1.0
C      1  0.4439160000000  0.5441120000000  0.5486840000000 1.0
C      1  0.4281070000000  0.5489090000000  0.4786540000000 1.0
C      1  0.4756230000000  0.5547490000000  0.4264490000000 1.0
C      1  0.5560840000000  0.5441050000000  0.4513100000000 1.0
C      1  0.5718930000000  0.5489120000000  0.5213390000000 1.0
C      1  0.4550210000000  0.4968940000000  0.5189750000000 1.0
C      1  0.4612490000000  0.5002400000000  0.4700560000000 1.0
C      1  0.5066660000000  0.4932890000000  0.4484330000000 1.0
C      1  0.5449790000000  0.4968910000000  0.4810250000000 1.0
C      1  0.5387510000000  0.5002440000000  0.5299440000000 1.0
C      1  0.4933340000000  0.4932960000000  0.5515680000000 1.0
C      1  0.4509840000000  0.4397180000000  0.5257630000000 1.0
C      1  0.4556270000000  0.4382010000000  0.4687730000000 1.0
C      1  0.5022550000000  0.4377450000000  0.4461550000000 1.0
C      1  0.5490160000000  0.4397150000000  0.4742450000000 1.0
C      1  0.5443730000000  0.4382050000000  0.5312360000000 1.0
C      1  0.4977450000000  0.4377530000000  0.5538540000000 1.0
C      1  0.4886260000000  0.5291560000000  0.4313180000000 1.0
C      1  0.5550050000000  0.5063240000000  0.4533170000000 1.0
C      1  0.5673040000000  0.5112090000000  0.5223850000000 1.0
C      1  0.5113740000000  0.5291650000000  0.5686780000000 1.0
C      1  0.4449950000000  0.5063310000000  0.5466820000000 1.0
C      1  0.4326960000000  0.5112060000000  0.4776140000000 1.0
C      1  0.4284200000000  0.4956190000000  0.5030680000000 1.0
C      1  0.4632030000000  0.5031530000000  0.4394640000000 1.0
C      1  0.5356160000000  0.4910100000000  0.4363560000000 1.0
C      1  0.5715800000000  0.4956180000000  0.4969320000000 1.0
C      1  0.5367970000000  0.5031610000000  0.5605350000000 1.0
C      1  0.4643840000000  0.4910190000000  0.5636450000000 1.0
C      1  0.5135710000000  0.5625780000000  0.4739540000000 1.0
C      1  0.5296340000000  0.5659110000000  0.4984850000000 1.0
C      1  0.5161890000000  0.5658260000000  0.5247440000000 1.0
C      1  0.4864290000000  0.5625820000000  0.5260380000000 1.0
C      1  0.4703660000000  0.5659120000000  0.5015060000000 1.0
C      1  0.4838110000000  0.5658220000000  0.4752470000000 1.0
C      1  0.4247180000000  0.4679550000000  0.4928830000000 1.0
C      1  0.4692150000000  0.4744640000000  0.4343620000000 1.0
C      1  0.5451770000000  0.4630770000000  0.4370470000000 1.0
C      1  0.5752820000000  0.4679560000000  0.5071210000000 1.0
C      1  0.5307850000000  0.4744730000000  0.5656420000000 1.0
C      1  0.4548230000000  0.4630870000000  0.5629580000000 1.0
C      1  0.5011250000000  0.4939810000000  0.4085670000000 1.0
C      1  0.5817130000000  0.4923380000000  0.4526180000000 1.0
C      1  0.5812780000000  0.4984070000000  0.5459380000000 1.0
C      1  0.4988750000000  0.4939930000000  0.5914340000000 1.0
C      1  0.4182870000000  0.4923450000000  0.5473830000000 1.0
C      1  0.4187220000000  0.4984010000000  0.4540620000000 1.0
C      1  0.5289940000000  0.5009110000000  0.4090640000000 1.0
C      1  0.5930900000000  0.5043510000000  0.4775660000000 1.0
C      1  0.5654080000000  0.5099870000000  0.5683730000000 1.0
C      1  0.4710060000000  0.5009230000000  0.5909360000000 1.0
C      1  0.4069100000000  0.5043550000000  0.5224340000000 1.0
C      1  0.4345920000000  0.5099780000000  0.4316260000000 1.0
C      1  0.5698930000000  0.5378970000000  0.5681980000000 1.0
C      1  0.4665870000000  0.5283460000000  0.5924990000000 1.0
C      1  0.4058630000000  0.5324420000000  0.5232210000000 1.0
C      1  0.4301070000000  0.5378880000000  0.4317970000000 1.0
C      1  0.5334130000000  0.5283330000000  0.4074970000000 1.0
C      1  0.5941370000000  0.5324380000000  0.4767740000000 1.0
C      1  0.5335970000000  0.5612780000000  0.5482100000000 1.0
C      1  0.4711160000000  0.5531730000000  0.5499700000000 1.0
C      1  0.4417390000000  0.5578100000000  0.5020750000000 1.0
C      1  0.4664040000000  0.5612720000000  0.4517820000000 1.0
C      1  0.5288850000000  0.5531660000000  0.4500220000000 1.0
C      1  0.5582610000000  0.5578100000000  0.4979170000000 1.0
C      1  0.5039780000000  0.5209540000000  0.4659370000000 1.0
C      1  0.5244030000000  0.5164470000000  0.4883440000000 1.0
C      1  0.5199800000000  0.5174520000000  0.5172800000000 1.0
C      1  0.4960220000000  0.5209580000000  0.5340600000000 1.0
C      1  0.4755970000000  0.5164490000000  0.5116540000000 1.0
C      1  0.4800200000000  0.5174500000000  0.4827170000000 1.0
C      1  0.5723440000000  0.5499400000000  0.4737830000000 1.0
C      1  0.5615320000000  0.5546530000000  0.5470710000000 1.0
C      1  0.4830180000000  0.5390700000000  0.5721260000000 1.0
C      1  0.4276570000000  0.5499440000000  0.5262100000000 1.0
C      1  0.4384680000000  0.5546470000000  0.4529220000000 1.0
C      1  0.5169820000000  0.5390600000000  0.4278680000000 1.0
C      1  0.5232140000000  0.4271500000000  0.5157400000000 1.0
C      1  0.4975880000000  0.4252180000000  0.5284090000000 1.0
C      1  0.4734930000000  0.4259580000000  0.5127710000000 1.0
C      1  0.4767850000000  0.4271480000000  0.4842700000000 1.0
C      1  0.5024120000000  0.4252140000000  0.4716010000000 1.0
C      1  0.5265060000000  0.4259560000000  0.4872390000000 1.0
C      1  0.4483520000000  0.4568090000000  0.4478870000000 1.0
C      1  0.5218720000000  0.4472260000000  0.4278760000000 1.0
C      1  0.5742160000000  0.4467950000000  0.4868040000000 1.0
C      1  0.5516480000000  0.4568160000000  0.5521190000000 1.0
C      1  0.4781280000000  0.4472360000000  0.5721310000000 1.0
C      1  0.4257840000000  0.4467980000000  0.5132030000000 1.0
END
