TITL C-3577083-591-581 -1.14348643982766e-06 125000 -711.887660018507 0 0 114 (C1) n - 1
REM
REM in /home/bkarasulu/work/CARBON/AIRSS/Generating-Clusters/EDIP-Nigel-Params/with-SteepDescent/Higher-Symm/SD-CG/HFTN-CG
REM
REM
REM
REM
REM
REM ./C.cell (12c818d87b63d06a65506943cc24bca4)
REM
REM compiler GCC version 9.2.1 20190827 (Red Hat 9.2.1-1)
REM options -cpp -mtune=generic -march=x86-64 -g -O0 -fpre-include=/usr/include/finclude/math-vector-fortran.h
REM seed -1204098073 456164278 271917063 -683396943 1693388524 -1218664219 -712747292 -1448399548 -1294229913 704182793 -518356136 166580274 1810847455 -1906723972 1532286147 320102563 1201879054 1069483288 1644621165 -90899521 -148042281 497112664 648753089 -129569985 1250812297 -557450913 1132682170 1354556807 1458829824 263661749 -494811204 -304487348 -58951432
REM
CELL 1.54180   50.00000   50.00000   50.00000   90.00000   90.00000   90.00000
LATT -1
SFAC C  
C      1  0.5370810000000  0.4434570000000  0.4438230000000 1.0
C      1  0.4998370000000  0.5524680000000  0.4266660000000 1.0
C      1  0.5542280000000  0.4259450000000  0.5302150000000 1.0
C      1  0.5261060000000  0.4594880000000  0.4671890000000 1.0
C      1  0.4756800000000  0.5770370000000  0.4604680000000 1.0
C      1  0.4159140000000  0.4921300000000  0.4770640000000 1.0
C      1  0.4695830000000  0.5169220000000  0.4144230000000 1.0
C      1  0.4240580000000  0.4632490000000  0.4826370000000 1.0
C      1  0.4942420000000  0.5273000000000  0.5709730000000 1.0
C      1  0.5084570000000  0.4000800000000  0.4628740000000 1.0
C      1  0.4444860000000  0.4801680000000  0.4412770000000 1.0
C      1  0.4330350000000  0.4368890000000  0.5541050000000 1.0
C      1  0.4267810000000  0.5032480000000  0.5282680000000 1.0
C      1  0.5568820000000  0.4373420000000  0.5023270000000 1.0
C      1  0.5676580000000  0.5623020000000  0.5084740000000 1.0
C      1  0.5003170000000  0.4920840000000  0.4867730000000 1.0
C      1  0.4352980000000  0.5275690000000  0.4482110000000 1.0
C      1  0.5338270000000  0.5921140000000  0.4968010000000 1.0
C      1  0.5741160000000  0.4877530000000  0.4372860000000 1.0
C      1  0.4738510000000  0.4812820000000  0.5001540000000 1.0
C      1  0.5672850000000  0.4213410000000  0.4789350000000 1.0
C      1  0.5369930000000  0.5151700000000  0.4148840000000 1.0
C      1  0.4763210000000  0.5556790000000  0.4423940000000 1.0
C      1  0.5063160000000  0.4407410000000  0.5363990000000 1.0
C      1  0.4980800000000  0.5009370000000  0.5857730000000 1.0
C      1  0.4812450000000  0.5792750000000  0.5448330000000 1.0
C      1  0.5376670000000  0.5264280000000  0.5491740000000 1.0
C      1  0.4968890000000  0.5368080000000  0.5217490000000 1.0
C      1  0.5623790000000  0.4495690000000  0.5475030000000 1.0
C      1  0.5867380000000  0.5025860000000  0.4918660000000 1.0
C      1  0.4301510000000  0.4649580000000  0.5561080000000 1.0
C      1  0.5264750000000  0.4650190000000  0.5763750000000 1.0
C      1  0.4704670000000  0.4967810000000  0.5267170000000 1.0
C      1  0.5035490000000  0.5932950000000  0.5028590000000 1.0
C      1  0.4409410000000  0.4083590000000  0.5166320000000 1.0
C      1  0.5110570000000  0.4220290000000  0.4454840000000 1.0
C      1  0.4793250000000  0.5810460000000  0.4879180000000 1.0
C      1  0.5634550000000  0.5628120000000  0.4787470000000 1.0
C      1  0.5254410000000  0.4075800000000  0.4850430000000 1.0
C      1  0.4668120000000  0.4156170000000  0.5097360000000 1.0
C      1  0.4663900000000  0.5231860000000  0.4708520000000 1.0
C      1  0.4218480000000  0.5315410000000  0.5549260000000 1.0
C      1  0.5372370000000  0.5773480000000  0.5451820000000 1.0
C      1  0.4702980000000  0.4435450000000  0.4977360000000 1.0
C      1  0.5110570000000  0.5550180000000  0.5018860000000 1.0
C      1  0.4168500000000  0.5553280000000  0.5149050000000 1.0
C      1  0.4017910000000  0.5189240000000  0.5353480000000 1.0
C      1  0.5811020000000  0.4671660000000  0.5327750000000 1.0
C      1  0.4997700000000  0.5972570000000  0.5325380000000 1.0
C      1  0.4874600000000  0.4402050000000  0.4485690000000 1.0
C      1  0.4993210000000  0.4458310000000  0.5064760000000 1.0
C      1  0.5159320000000  0.3983940000000  0.5127900000000 1.0
C      1  0.5460640000000  0.5406730000000  0.4278780000000 1.0
C      1  0.5246010000000  0.5565200000000  0.4395960000000 1.0
C      1  0.5261100000000  0.4908590000000  0.5025870000000 1.0
C      1  0.4439710000000  0.5136160000000  0.5676840000000 1.0
C      1  0.5820130000000  0.5131520000000  0.4459920000000 1.0
C      1  0.4652890000000  0.5340040000000  0.5626110000000 1.0
C      1  0.4673300000000  0.4884630000000  0.4238840000000 1.0
C      1  0.4248230000000  0.5007260000000  0.4489300000000 1.0
C      1  0.5340340000000  0.5536990000000  0.5634080000000 1.0
C      1  0.4863040000000  0.4813650000000  0.5655740000000 1.0
C      1  0.5260060000000  0.4167810000000  0.5350330000000 1.0
C      1  0.5808580000000  0.4659050000000  0.4570960000000 1.0
C      1  0.5726800000000  0.4786170000000  0.4837560000000 1.0
C      1  0.4546210000000  0.4949310000000  0.4809570000000 1.0
C      1  0.4993000000000  0.5253500000000  0.4152490000000 1.0
C      1  0.5767090000000  0.4959020000000  0.5395660000000 1.0
C      1  0.4430980000000  0.4573770000000  0.4609930000000 1.0
C      1  0.5255430000000  0.4922190000000  0.5876730000000 1.0
C      1  0.5455280000000  0.5850540000000  0.4721440000000 1.0
C      1  0.5395940000000  0.5696220000000  0.5163370000000 1.0
C      1  0.5078360000000  0.5065260000000  0.4385840000000 1.0
C      1  0.5182250000000  0.5413860000000  0.4741890000000 1.0
C      1  0.4648470000000  0.4381850000000  0.4676610000000 1.0
C      1  0.4307160000000  0.4563750000000  0.5106390000000 1.0
C      1  0.3949720000000  0.5375660000000  0.5151400000000 1.0
C      1  0.4845440000000  0.5724390000000  0.5731530000000 1.0
C      1  0.5411890000000  0.4720010000000  0.5514950000000 1.0
C      1  0.4598490000000  0.5586250000000  0.5778640000000 1.0
C      1  0.5659030000000  0.5367690000000  0.4493620000000 1.0
C      1  0.5762690000000  0.4592350000000  0.5049720000000 1.0
C      1  0.4312900000000  0.5664150000000  0.4925240000000 1.0
C      1  0.5428250000000  0.4817920000000  0.4801950000000 1.0
C      1  0.5522710000000  0.5021130000000  0.5607630000000 1.0
C      1  0.5096190000000  0.4667670000000  0.4103390000000 1.0
C      1  0.5224040000000  0.6010740000000  0.5489270000000 1.0
C      1  0.4525510000000  0.4859440000000  0.5594810000000 1.0
C      1  0.4292560000000  0.4316100000000  0.5266360000000 1.0
C      1  0.4974040000000  0.4663190000000  0.4579090000000 1.0
C      1  0.4570080000000  0.5713410000000  0.5310450000000 1.0
C      1  0.4550850000000  0.5783350000000  0.5032820000000 1.0
C      1  0.5482970000000  0.5357750000000  0.4748860000000 1.0
C      1  0.4340970000000  0.5540510000000  0.5380000000000 1.0
C      1  0.5242640000000  0.4394480000000  0.4897890000000 1.0
C      1  0.5802330000000  0.5406730000000  0.5199150000000 1.0
C      1  0.5350960000000  0.4634380000000  0.4211040000000 1.0
C      1  0.5007700000000  0.4544230000000  0.5653420000000 1.0
C      1  0.5664830000000  0.4383690000000  0.4535340000000 1.0
C      1  0.5077390000000  0.5531020000000  0.5798650000000 1.0
C      1  0.5204290000000  0.4762240000000  0.5289380000000 1.0
C      1  0.5839860000000  0.5136020000000  0.5174960000000 1.0
C      1  0.4558090000000  0.5375970000000  0.4310080000000 1.0
C      1  0.5522440000000  0.3979270000000  0.4785330000000 1.0
C      1  0.4953450000000  0.4806500000000  0.4316640000000 1.0
C      1  0.4680050000000  0.5289550000000  0.5240860000000 1.0
C      1  0.5468910000000  0.4891020000000  0.4271470000000 1.0
C      1  0.4986050000000  0.5170070000000  0.4677640000000 1.0
C      1  0.4978860000000  0.4932930000000  0.5403280000000 1.0
C      1  0.4880370000000  0.3980580000000  0.5135120000000 1.0
C      1  0.4206730000000  0.4748590000000  0.5306390000000 1.0
C      1  0.4520520000000  0.5346470000000  0.4975950000000 1.0
C      1  0.5083670000000  0.5215620000000  0.5448560000000 1.0
C      1  0.4280770000000  0.5129860000000  0.4997760000000 1.0
END
