TITL C-3577081-279-320 -2.785312989422e-06 125000 -835.163551826268 0 0 134 (C1) n - 1
REM
REM in /home/bkarasulu/work/CARBON/AIRSS/Generating-Clusters/EDIP-Nigel-Params/with-SteepDescent/Higher-Symm/SD-CG/HFTN-CG
REM
REM
REM
REM
REM
REM ./C.cell (12c818d87b63d06a65506943cc24bca4)
REM
REM compiler GCC version 9.2.1 20190827 (Red Hat 9.2.1-1)
REM options -cpp -mtune=generic -march=x86-64 -g -O0 -fpre-include=/usr/include/finclude/math-vector-fortran.h
REM seed 1409228142 -1765993258 -505068851 -1746859033 1536657815 -1361837245 -1983927297 1420282583 -941500838 1020868674 589159794 -879043454 866835464 1659412844 380454773 -623616232 -20610255 -1838649036 -1915033118 513856608 -1565931850 -266663165 -757055096 -60519849 663835917 -260190852 171498713 -1823850520 491577755 -519002760 1671751752 -274278964 1563841439
REM
CELL 1.54180   50.00000   50.00000   50.00000   90.00000   90.00000   90.00000
LATT -1
SFAC C  
C      1  0.4550650000000  0.5226760000000  0.4906300000000 1.0
C      1  0.4672990000000  0.5097130000000  0.5150500000000 1.0
C      1  0.4468400000000  0.4842090000000  0.5178790000000 1.0
C      1  0.4490150000000  0.4773360000000  0.4882970000000 1.0
C      1  0.4530220000000  0.5002190000000  0.4709750000000 1.0
C      1  0.5539490000000  0.5271310000000  0.4943960000000 1.0
C      1  0.5454130000000  0.5134760000000  0.5199150000000 1.0
C      1  0.5430890000000  0.4836290000000  0.5190530000000 1.0
C      1  0.5358970000000  0.4739510000000  0.4928010000000 1.0
C      1  0.5514150000000  0.5105870000000  0.4677710000000 1.0
C      1  0.5223670000000  0.4989530000000  0.4589210000000 1.0
C      1  0.5141690000000  0.5392530000000  0.4804940000000 1.0
C      1  0.5226010000000  0.5280680000000  0.5326180000000 1.0
C      1  0.5258140000000  0.4754190000000  0.5410680000000 1.0
C      1  0.5173210000000  0.4525830000000  0.4918200000000 1.0
C      1  0.4750590000000  0.4952970000000  0.4527760000000 1.0
C      1  0.4703270000000  0.5443720000000  0.4798900000000 1.0
C      1  0.4735490000000  0.5299800000000  0.5364110000000 1.0
C      1  0.4819180000000  0.4776070000000  0.5417120000000 1.0
C      1  0.4894000000000  0.4622090000000  0.4968060000000 1.0
C      1  0.5131730000000  0.5200870000000  0.4383050000000 1.0
C      1  0.5105080000000  0.5622660000000  0.4987620000000 1.0
C      1  0.5159840000000  0.5203690000000  0.5600850000000 1.0
C      1  0.5166790000000  0.4470890000000  0.5409630000000 1.0
C      1  0.5128150000000  0.4457580000000  0.4624260000000 1.0
C      1  0.4827700000000  0.5191160000000  0.4371030000000 1.0
C      1  0.4802760000000  0.5644390000000  0.5000820000000 1.0
C      1  0.4852950000000  0.5202110000000  0.5622520000000 1.0
C      1  0.4865060000000  0.4490090000000  0.5412720000000 1.0
C      1  0.4822920000000  0.4470380000000  0.4613100000000 1.0
C      1  0.4250460000000  0.5291130000000  0.4926310000000 1.0
C      1  0.4160860000000  0.5256490000000  0.5207080000000 1.0
C      1  0.4184350000000  0.4952200000000  0.5248800000000 1.0
C      1  0.4265210000000  0.4636810000000  0.4775560000000 1.0
C      1  0.4256810000000  0.5039350000000  0.4563360000000 1.0
C      1  0.5836790000000  0.5331730000000  0.4903520000000 1.0
C      1  0.5704440000000  0.5172880000000  0.5355770000000 1.0
C      1  0.5715530000000  0.4738690000000  0.5236000000000 1.0
C      1  0.5601220000000  0.4652220000000  0.4791760000000 1.0
C      1  0.5756950000000  0.4908580000000  0.4721600000000 1.0
C      1  0.5585630000000  0.4317920000000  0.5524660000000 1.0
C      1  0.5555740000000  0.4278480000000  0.4515930000000 1.0
C      1  0.5574780000000  0.5231680000000  0.4207320000000 1.0
C      1  0.5543650000000  0.5819130000000  0.4957110000000 1.0
C      1  0.5581620000000  0.5316150000000  0.5791720000000 1.0
C      1  0.4412630000000  0.4372590000000  0.5472870000000 1.0
C      1  0.4418020000000  0.4266860000000  0.4510730000000 1.0
C      1  0.4408670000000  0.5212100000000  0.4147870000000 1.0
C      1  0.4386680000000  0.5841940000000  0.5007480000000 1.0
C      1  0.4424420000000  0.5263700000000  0.5808550000000 1.0
C      1  0.4865180000000  0.5224670000000  0.6066690000000 1.0
C      1  0.4822150000000  0.4066050000000  0.5555870000000 1.0
C      1  0.4838820000000  0.4186100000000  0.4238890000000 1.0
C      1  0.4843090000000  0.5436890000000  0.3998820000000 1.0
C      1  0.4833050000000  0.6088100000000  0.5134840000000 1.0
C      1  0.5166920000000  0.5248810000000  0.6064620000000 1.0
C      1  0.5134230000000  0.4046000000000  0.5570270000000 1.0
C      1  0.5144520000000  0.4189220000000  0.4244700000000 1.0
C      1  0.5146070000000  0.5440690000000  0.4005350000000 1.0
C      1  0.5138650000000  0.6073290000000  0.5111920000000 1.0
C      1  0.4687010000000  0.4334980000000  0.5605260000000 1.0
C      1  0.4710670000000  0.4210550000000  0.4512650000000 1.0
C      1  0.4677330000000  0.5196570000000  0.4029220000000 1.0
C      1  0.4680060000000  0.5914280000000  0.4936440000000 1.0
C      1  0.4681780000000  0.5383980000000  0.5896460000000 1.0
C      1  0.5295130000000  0.4302050000000  0.5623190000000 1.0
C      1  0.5265110000000  0.4204340000000  0.4521320000000 1.0
C      1  0.5287360000000  0.5197380000000  0.4121190000000 1.0
C      1  0.5251500000000  0.5880310000000  0.4905810000000 1.0
C      1  0.5288700000000  0.5371890000000  0.5818920000000 1.0
C      1  0.4689290000000  0.5439390000000  0.4498790000000 1.0
C      1  0.4707300000000  0.5591200000000  0.5290880000000 1.0
C      1  0.4754490000000  0.4919250000000  0.5664260000000 1.0
C      1  0.4765350000000  0.4406720000000  0.5144570000000 1.0
C      1  0.4705020000000  0.4676950000000  0.4428240000000 1.0
C      1  0.5234610000000  0.5450780000000  0.4528150000000 1.0
C      1  0.5242400000000  0.5564350000000  0.5253210000000 1.0
C      1  0.5299870000000  0.4934530000000  0.5643410000000 1.0
C      1  0.5267670000000  0.4347860000000  0.5148040000000 1.0
C      1  0.5250630000000  0.4681720000000  0.4456200000000 1.0
C      1  0.5116110000000  0.5684510000000  0.4375820000000 1.0
C      1  0.5150150000000  0.5778610000000  0.5445030000000 1.0
C      1  0.5192810000000  0.4833400000000  0.5907870000000 1.0
C      1  0.5146410000000  0.4076510000000  0.5127420000000 1.0
C      1  0.5137500000000  0.4629180000000  0.4177610000000 1.0
C      1  0.4814180000000  0.5682430000000  0.4364970000000 1.0
C      1  0.4854010000000  0.5790130000000  0.5464610000000 1.0
C      1  0.4892860000000  0.4811450000000  0.5912510000000 1.0
C      1  0.4850720000000  0.4112350000000  0.5115410000000 1.0
C      1  0.4836840000000  0.4623690000000  0.4161740000000 1.0
C      1  0.4253850000000  0.4578520000000  0.5570340000000 1.0
C      1  0.4309080000000  0.4188850000000  0.4758450000000 1.0
C      1  0.4277420000000  0.4964700000000  0.4128780000000 1.0
C      1  0.4240630000000  0.5716910000000  0.4799310000000 1.0
C      1  0.4247910000000  0.5418720000000  0.5658220000000 1.0
C      1  0.5732690000000  0.4522660000000  0.5648990000000 1.0
C      1  0.5700830000000  0.4208930000000  0.4747090000000 1.0
C      1  0.5719620000000  0.4995350000000  0.4222170000000 1.0
C      1  0.5699500000000  0.5751460000000  0.4734440000000 1.0
C      1  0.5708770000000  0.5520420000000  0.5647020000000 1.0
C      1  0.4228700000000  0.4857740000000  0.5551250000000 1.0
C      1  0.4270360000000  0.4391690000000  0.4947130000000 1.0
C      1  0.4218770000000  0.4821720000000  0.4360100000000 1.0
C      1  0.4199870000000  0.5467670000000  0.4675870000000 1.0
C      1  0.4213960000000  0.5484250000000  0.5386160000000 1.0
C      1  0.5770960000000  0.4773340000000  0.5532050000000 1.0
C      1  0.5725260000000  0.4415460000000  0.4935720000000 1.0
C      1  0.5778430000000  0.4802200000000  0.4411590000000 1.0
C      1  0.5783930000000  0.5497170000000  0.4653290000000 1.0
C      1  0.5736160000000  0.5473390000000  0.5373290000000 1.0
C      1  0.4385540000000  0.5375680000000  0.4425200000000 1.0
C      1  0.4415950000000  0.5680280000000  0.5268750000000 1.0
C      1  0.4454190000000  0.4986160000000  0.5706240000000 1.0
C      1  0.4463480000000  0.4454980000000  0.5184650000000 1.0
C      1  0.4385110000000  0.4584590000000  0.4475060000000 1.0
C      1  0.5561070000000  0.5349630000000  0.4489370000000 1.0
C      1  0.5534190000000  0.5593560000000  0.5165510000000 1.0
C      1  0.5612470000000  0.5030640000000  0.5639910000000 1.0
C      1  0.5579710000000  0.4378450000000  0.5208340000000 1.0
C      1  0.5548790000000  0.4585880000000  0.4490440000000 1.0
C      1  0.5233530000000  0.5689620000000  0.4116810000000 1.0
C      1  0.5254560000000  0.6032900000000  0.5372110000000 1.0
C      1  0.5286170000000  0.4994420000000  0.6123440000000 1.0
C      1  0.5228980000000  0.3906580000000  0.5338410000000 1.0
C      1  0.5246690000000  0.4391440000000  0.4068220000000 1.0
C      1  0.4731670000000  0.5683360000000  0.4092590000000 1.0
C      1  0.4757140000000  0.6051990000000  0.5410180000000 1.0
C      1  0.4788240000000  0.4956490000000  0.6135070000000 1.0
C      1  0.4726770000000  0.3948250000000  0.5311530000000 1.0
C      1  0.4742060000000  0.4380690000000  0.4050840000000 1.0
C      1  0.4106660000000  0.4978420000000  0.4867430000000 1.0
C      1  0.5858050000000  0.4983660000000  0.5050130000000 1.0
C      1  0.4931070000000  0.4926940000000  0.5080530000000 1.0
C      1  0.5101040000000  0.5092980000000  0.4863930000000 1.0
END
