TITL C-3578203-1966-718 1.99042664211673e-06 125000 -1032.35912400029 0 0 165 (C1) n - 1
REM
REM in /home/bkarasulu/work/CARBON/AIRSS/Generating-Clusters/EDIP-Nigel-Params/with-SteepDescent/Higher-Symm/SD-CG/HFTN-CG
REM
REM
REM
REM
REM
REM ./C.cell (12c818d87b63d06a65506943cc24bca4)
REM
REM compiler GCC version 9.2.1 20190827 (Red Hat 9.2.1-1)
REM options -cpp -mtune=generic -march=x86-64 -g -O0 -fpre-include=/usr/include/finclude/math-vector-fortran.h
REM seed -1809115647 -1131261174 680109045 2044403359 -1980717707 1663072195 -586321040 -1132134270 -293450938 530378706 -803475329 -1302821465 -1969160911 -1590116793 1487182102 -376021565 -40642204 527787266 -597197620 -748575270 -1641565414 779148375 1017475024 -1366923598 1599975728 -1833738863 -675479645 -450116144 -527892831 73748530 1255678211 1019637832 1589882953
REM
CELL 1.54180   50.00000   50.00000   50.00000   90.00000   90.00000   90.00000
LATT -1
SFAC C  
C      1  0.4373780000000  0.5571100000000  0.5581240000000 1.0
C      1  0.4468330000000  0.4936480000000  0.5280770000000 1.0
C      1  0.4701170000000  0.4358920000000  0.4426170000000 1.0
C      1  0.3917490000000  0.5153400000000  0.4962940000000 1.0
C      1  0.5058660000000  0.4666280000000  0.5977950000000 1.0
C      1  0.5689990000000  0.4981530000000  0.4271600000000 1.0
C      1  0.5293250000000  0.5864920000000  0.5289010000000 1.0
C      1  0.4935930000000  0.5647950000000  0.4182860000000 1.0
C      1  0.5066480000000  0.5214160000000  0.6057620000000 1.0
C      1  0.4602610000000  0.4620660000000  0.5771560000000 1.0
C      1  0.4830980000000  0.5377050000000  0.5117300000000 1.0
C      1  0.5170440000000  0.4316680000000  0.4271160000000 1.0
C      1  0.5200190000000  0.4122900000000  0.5638470000000 1.0
C      1  0.4977760000000  0.5150150000000  0.5775540000000 1.0
C      1  0.4232680000000  0.5327520000000  0.5653790000000 1.0
C      1  0.4974200000000  0.4403760000000  0.5134120000000 1.0
C      1  0.4146630000000  0.5400770000000  0.4375870000000 1.0
C      1  0.4992360000000  0.3940590000000  0.4574890000000 1.0
C      1  0.4948620000000  0.4752730000000  0.4687100000000 1.0
C      1  0.5541600000000  0.4828280000000  0.5152940000000 1.0
C      1  0.4875870000000  0.6101800000000  0.4723250000000 1.0
C      1  0.3975980000000  0.4791430000000  0.4594250000000 1.0
C      1  0.4871190000000  0.5751630000000  0.5355020000000 1.0
C      1  0.4194240000000  0.5699440000000  0.4775820000000 1.0
C      1  0.4686900000000  0.4859680000000  0.4541550000000 1.0
C      1  0.5443900000000  0.4295830000000  0.4377580000000 1.0
C      1  0.5729130000000  0.5679920000000  0.4372800000000 1.0
C      1  0.5240490000000  0.4004070000000  0.4725760000000 1.0
C      1  0.5653700000000  0.4480790000000  0.4318370000000 1.0
C      1  0.4772550000000  0.5153370000000  0.4516670000000 1.0
C      1  0.5697470000000  0.4112220000000  0.4744390000000 1.0
C      1  0.5478780000000  0.4068210000000  0.4553730000000 1.0
C      1  0.4727280000000  0.5554070000000  0.5885860000000 1.0
C      1  0.5694760000000  0.5022900000000  0.4965330000000 1.0
C      1  0.4593350000000  0.5385940000000  0.4586380000000 1.0
C      1  0.5978500000000  0.4457400000000  0.4907990000000 1.0
C      1  0.4132390000000  0.5489180000000  0.5212280000000 1.0
C      1  0.4874750000000  0.3978160000000  0.5060690000000 1.0
C      1  0.5185690000000  0.4480010000000  0.4678120000000 1.0
C      1  0.3959630000000  0.4999170000000  0.4383890000000 1.0
C      1  0.5059170000000  0.4577230000000  0.4269250000000 1.0
C      1  0.5487750000000  0.5367720000000  0.4630000000000 1.0
C      1  0.5316630000000  0.5333870000000  0.5076010000000 1.0
C      1  0.5087080000000  0.4521500000000  0.5396220000000 1.0
C      1  0.5939630000000  0.4740970000000  0.5310020000000 1.0
C      1  0.5155820000000  0.4284450000000  0.4908360000000 1.0
C      1  0.4801180000000  0.5150170000000  0.4075440000000 1.0
C      1  0.4718490000000  0.4210660000000  0.5501910000000 1.0
C      1  0.4479630000000  0.4791090000000  0.4765520000000 1.0
C      1  0.3913370000000  0.5270600000000  0.4468510000000 1.0
C      1  0.4116950000000  0.5266410000000  0.5387100000000 1.0
C      1  0.5272420000000  0.4804840000000  0.5870790000000 1.0
C      1  0.5503730000000  0.5096740000000  0.4755920000000 1.0
C      1  0.5202240000000  0.5565010000000  0.5687190000000 1.0
C      1  0.5469910000000  0.4602020000000  0.4693230000000 1.0
C      1  0.4878420000000  0.4499900000000  0.5851430000000 1.0
C      1  0.4815040000000  0.5628390000000  0.4672210000000 1.0
C      1  0.4501630000000  0.5765620000000  0.4394880000000 1.0
C      1  0.4520090000000  0.4415140000000  0.5564000000000 1.0
C      1  0.6047540000000  0.5003270000000  0.4803260000000 1.0
C      1  0.3965090000000  0.4825940000000  0.5337130000000 1.0
C      1  0.4586960000000  0.5135510000000  0.5482450000000 1.0
C      1  0.5726040000000  0.4760420000000  0.5725940000000 1.0
C      1  0.5544660000000  0.5347760000000  0.5969760000000 1.0
C      1  0.4900420000000  0.6122930000000  0.5028210000000 1.0
C      1  0.4647490000000  0.5893680000000  0.4655620000000 1.0
C      1  0.5935170000000  0.5021070000000  0.5398140000000 1.0
C      1  0.4582230000000  0.5322450000000  0.4151880000000 1.0
C      1  0.5879010000000  0.5190050000000  0.4364590000000 1.0
C      1  0.5776540000000  0.5432820000000  0.4524290000000 1.0
C      1  0.4286470000000  0.5690560000000  0.5335350000000 1.0
C      1  0.5404730000000  0.4305190000000  0.5088780000000 1.0
C      1  0.4920880000000  0.5428920000000  0.5668260000000 1.0
C      1  0.5119440000000  0.5809830000000  0.5521280000000 1.0
C      1  0.5908510000000  0.5494850000000  0.4806700000000 1.0
C      1  0.5287740000000  0.5283730000000  0.4163910000000 1.0
C      1  0.4924310000000  0.5809490000000  0.5055740000000 1.0
C      1  0.5478100000000  0.4641290000000  0.5786390000000 1.0
C      1  0.5326900000000  0.5060400000000  0.5214880000000 1.0
C      1  0.6069550000000  0.5004850000000  0.4502190000000 1.0
C      1  0.4181290000000  0.4473690000000  0.5110340000000 1.0
C      1  0.5749240000000  0.5301120000000  0.5779170000000 1.0
C      1  0.4979300000000  0.4330300000000  0.5614540000000 1.0
C      1  0.5917070000000  0.5241780000000  0.5204370000000 1.0
C      1  0.4632650000000  0.5504670000000  0.4955730000000 1.0
C      1  0.5413650000000  0.5128280000000  0.5499360000000 1.0
C      1  0.5719190000000  0.5043680000000  0.5607020000000 1.0
C      1  0.5431510000000  0.5577650000000  0.5220930000000 1.0
C      1  0.4770110000000  0.4956960000000  0.5655450000000 1.0
C      1  0.5310290000000  0.4048130000000  0.5366600000000 1.0
C      1  0.5698360000000  0.5514560000000  0.5574150000000 1.0
C      1  0.3976120000000  0.4681200000000  0.5080980000000 1.0
C      1  0.4742020000000  0.5402140000000  0.5406500000000 1.0
C      1  0.4362980000000  0.4837840000000  0.5757140000000 1.0
C      1  0.4658960000000  0.5598270000000  0.4206470000000 1.0
C      1  0.5040320000000  0.4749180000000  0.4049830000000 1.0
C      1  0.4784130000000  0.3910860000000  0.4780650000000 1.0
C      1  0.4244640000000  0.4783810000000  0.5463760000000 1.0
C      1  0.6240660000000  0.4837730000000  0.4933520000000 1.0
C      1  0.4676510000000  0.4724380000000  0.5288920000000 1.0
C      1  0.3916200000000  0.5103980000000  0.5262530000000 1.0
C      1  0.5191460000000  0.5731140000000  0.4880980000000 1.0
C      1  0.5231880000000  0.5367100000000  0.4450070000000 1.0
C      1  0.4303940000000  0.4501590000000  0.5382970000000 1.0
C      1  0.5369010000000  0.4876710000000  0.4627760000000 1.0
C      1  0.4141400000000  0.5420800000000  0.4923740000000 1.0
C      1  0.4936870000000  0.4158580000000  0.4366640000000 1.0
C      1  0.5076820000000  0.5635460000000  0.4436450000000 1.0
C      1  0.6047660000000  0.5269660000000  0.4935190000000 1.0
C      1  0.5138270000000  0.3888800000000  0.5175480000000 1.0
C      1  0.5413180000000  0.5018620000000  0.4167800000000 1.0
C      1  0.5267450000000  0.5876750000000  0.4448640000000 1.0
C      1  0.5215160000000  0.4899970000000  0.4366010000000 1.0
C      1  0.5063920000000  0.5363790000000  0.4924810000000 1.0
C      1  0.5184690000000  0.6094270000000  0.5128080000000 1.0
C      1  0.4932450000000  0.4792400000000  0.5410600000000 1.0
C      1  0.4204500000000  0.4968640000000  0.4211880000000 1.0
C      1  0.3982410000000  0.4883320000000  0.4870740000000 1.0
C      1  0.4551920000000  0.4503580000000  0.4870090000000 1.0
C      1  0.5833230000000  0.4564970000000  0.5528070000000 1.0
C      1  0.4663190000000  0.5972780000000  0.5373800000000 1.0
C      1  0.4517030000000  0.5729200000000  0.5769910000000 1.0
C      1  0.4536070000000  0.3986650000000  0.4673040000000 1.0
C      1  0.6089780000000  0.4651040000000  0.5072530000000 1.0
C      1  0.5049370000000  0.5181160000000  0.4638740000000 1.0
C      1  0.5785950000000  0.4387400000000  0.4720020000000 1.0
C      1  0.4337810000000  0.5223370000000  0.4262500000000 1.0
C      1  0.5542850000000  0.5811240000000  0.4544640000000 1.0
C      1  0.5161250000000  0.5983480000000  0.4699530000000 1.0
C      1  0.4678730000000  0.4091300000000  0.5240040000000 1.0
C      1  0.4457770000000  0.4190750000000  0.4496040000000 1.0
C      1  0.4249830000000  0.5646010000000  0.4492980000000 1.0
C      1  0.4884470000000  0.4976330000000  0.4940900000000 1.0
C      1  0.5046060000000  0.4956660000000  0.5196950000000 1.0
C      1  0.5770810000000  0.5643940000000  0.5049840000000 1.0
C      1  0.5046840000000  0.5280300000000  0.4011760000000 1.0
C      1  0.4603360000000  0.5317680000000  0.6020570000000 1.0
C      1  0.4779970000000  0.4855440000000  0.4063740000000 1.0
C      1  0.4466120000000  0.5848180000000  0.5175210000000 1.0
C      1  0.5854870000000  0.5508090000000  0.5313710000000 1.0
C      1  0.5403830000000  0.4588850000000  0.5415010000000 1.0
C      1  0.5420910000000  0.5440150000000  0.5501890000000 1.0
C      1  0.5496990000000  0.4578930000000  0.4986860000000 1.0
C      1  0.4433060000000  0.5289410000000  0.4864810000000 1.0
C      1  0.4407100000000  0.5143920000000  0.5825160000000 1.0
C      1  0.5576490000000  0.4051080000000  0.5013330000000 1.0
C      1  0.5808270000000  0.4716280000000  0.4285680000000 1.0
C      1  0.4235190000000  0.4283830000000  0.4899820000000 1.0
C      1  0.4594240000000  0.5970060000000  0.5647100000000 1.0
C      1  0.6067010000000  0.4743130000000  0.4388980000000 1.0
C      1  0.4672370000000  0.4464180000000  0.5145780000000 1.0
C      1  0.4233430000000  0.4338120000000  0.4615260000000 1.0
C      1  0.4630290000000  0.4693830000000  0.4284220000000 1.0
C      1  0.5605600000000  0.4360770000000  0.5471340000000 1.0
C      1  0.4215410000000  0.4626840000000  0.4530310000000 1.0
C      1  0.5343670000000  0.3849730000000  0.4969450000000 1.0
C      1  0.5274960000000  0.5435010000000  0.5988250000000 1.0
C      1  0.4817200000000  0.5238610000000  0.6187310000000 1.0
C      1  0.5211170000000  0.5011050000000  0.5680870000000 1.0
C      1  0.4329980000000  0.4702730000000  0.4264310000000 1.0
C      1  0.5478730000000  0.5639860000000  0.4793700000000 1.0
C      1  0.5476350000000  0.4210400000000  0.5685260000000 1.0
C      1  0.4551950000000  0.5009380000000  0.4971090000000 1.0
C      1  0.4797170000000  0.4450260000000  0.4701560000000 1.0
C      1  0.4418370000000  0.5877810000000  0.4876800000000 1.0
END
