TITL C-3577082-504-562 1.77254047636675e-06 125000 -65.0606678672172 0 0 12 (C1) n - 1
REM
REM in /home/bkarasulu/work/CARBON/AIRSS/Generating-Clusters/EDIP-Nigel-Params/with-SteepDescent/Higher-Symm/SD-CG/HFTN-CG
REM
REM
REM
REM
REM
REM ./C.cell (12c818d87b63d06a65506943cc24bca4)
REM
REM compiler GCC version 9.2.1 20190827 (Red Hat 9.2.1-1)
REM options -cpp -mtune=generic -march=x86-64 -g -O0 -fpre-include=/usr/include/finclude/math-vector-fortran.h
REM seed 1597676570 -1801266864 -1547973940 -751042567 1772972071 -141848194 -1706901357 292169697 -1528386651 -944772680 -1381254379 -1852327671 -2088014390 841899083 102752815 -2101610507 -1306150644 2010577579 -116977000 21782170 1220810145 -823062707 1932442511 -501174896 1146211342 183873377 866647242 907982972 -1842629817 -2070468433 2045816895 301751977 -571715638
REM
CELL 1.54180   50.00000   50.00000   50.00000   90.00000   90.00000   90.00000
LATT -1
SFAC C  
C      1  0.4794180000000  0.5330480000000  0.4759580000000 1.0
C      1  0.5051690000000  0.5432460000000  0.5167050000000 1.0
C      1  0.4902330000000  0.4940520000000  0.5343470000000 1.0
C      1  0.4953220000000  0.4595000000000  0.5064780000000 1.0
C      1  0.4963810000000  0.4883600000000  0.4665920000000 1.0
C      1  0.5098990000000  0.4710650000000  0.4856530000000 1.0
C      1  0.4985190000000  0.5167520000000  0.4642270000000 1.0
C      1  0.5000780000000  0.5466240000000  0.4884450000000 1.0
C      1  0.5010350000000  0.5229810000000  0.5379810000000 1.0
C      1  0.4876280000000  0.4662330000000  0.5314710000000 1.0
C      1  0.5214560000000  0.4954590000000  0.4956760000000 1.0
C      1  0.4969020000000  0.5076740000000  0.5074500000000 1.0
END
