TITL C-3578208-4450-382 3.09803282931251e-07 125000 -897.840096414966 0 0 145 (C1) n - 1
REM
REM in /home/bkarasulu/work/CARBON/AIRSS/Generating-Clusters/EDIP-Nigel-Params/with-SteepDescent/Higher-Symm/SD-CG/HFTN-CG
REM
REM
REM
REM
REM
REM ./C.cell (12c818d87b63d06a65506943cc24bca4)
REM
REM compiler GCC version 9.2.1 20190827 (Red Hat 9.2.1-1)
REM options -cpp -mtune=generic -march=x86-64 -g -O0 -fpre-include=/usr/include/finclude/math-vector-fortran.h
REM seed 914201962 1429368893 877103379 485911130 -1650053748 -768176191 740393023 1502913086 -533193083 2126008897 1276034356 1225837416 -354757090 1126340032 -1935536535 -521820981 183043908 -2022073799 -1370305334 -207014114 1454343943 1720593085 1633232392 770510052 1641985780 -681799185 872951474 -85567674 1697785435 865946776 -1796578344 -973814518 765355501
REM
CELL 1.54180   50.00000   50.00000   50.00000   90.00000   90.00000   90.00000
LATT -1
SFAC C  
C      1  0.4924860000000  0.4405030000000  0.4725920000000 1.0
C      1  0.4683210000000  0.4395280000000  0.4942490000000 1.0
C      1  0.4842430000000  0.4411990000000  0.5207840000000 1.0
C      1  0.5136240000000  0.4342740000000  0.5136830000000 1.0
C      1  0.5175950000000  0.4472420000000  0.4878690000000 1.0
C      1  0.5893560000000  0.5301470000000  0.4482980000000 1.0
C      1  0.4751440000000  0.5134560000000  0.4185490000000 1.0
C      1  0.3995290000000  0.5247140000000  0.5037770000000 1.0
C      1  0.4633860000000  0.5267710000000  0.5946140000000 1.0
C      1  0.5775440000000  0.5286830000000  0.5650730000000 1.0
C      1  0.4661620000000  0.4756470000000  0.5460010000000 1.0
C      1  0.5256480000000  0.4856450000000  0.5387640000000 1.0
C      1  0.5467910000000  0.4838600000000  0.4837990000000 1.0
C      1  0.5064350000000  0.4763960000000  0.4392210000000 1.0
C      1  0.4264680000000  0.4827860000000  0.4949500000000 1.0
C      1  0.5056120000000  0.4480520000000  0.4021470000000 1.0
C      1  0.4053190000000  0.4509830000000  0.4728340000000 1.0
C      1  0.4458210000000  0.4545230000000  0.5804550000000 1.0
C      1  0.5567750000000  0.4599680000000  0.5625790000000 1.0
C      1  0.5834820000000  0.4601660000000  0.4664750000000 1.0
C      1  0.4188330000000  0.5119870000000  0.4848520000000 1.0
C      1  0.4714630000000  0.5025340000000  0.5581280000000 1.0
C      1  0.5416890000000  0.5109910000000  0.5425300000000 1.0
C      1  0.5546210000000  0.5110370000000  0.4719280000000 1.0
C      1  0.5018250000000  0.5024240000000  0.4237390000000 1.0
C      1  0.5710240000000  0.5510750000000  0.4612800000000 1.0
C      1  0.4855840000000  0.5501790000000  0.4261920000000 1.0
C      1  0.4161890000000  0.5577030000000  0.4945090000000 1.0
C      1  0.4681660000000  0.5516420000000  0.5789020000000 1.0
C      1  0.5622720000000  0.5520310000000  0.5561160000000 1.0
C      1  0.5716800000000  0.5654870000000  0.5335610000000 1.0
C      1  0.5509440000000  0.5603270000000  0.4425420000000 1.0
C      1  0.4647500000000  0.5624060000000  0.4416970000000 1.0
C      1  0.4304880000000  0.5674100000000  0.5161770000000 1.0
C      1  0.4931380000000  0.5644470000000  0.5800460000000 1.0
C      1  0.3887260000000  0.4748990000000  0.4775770000000 1.0
C      1  0.4477960000000  0.4808430000000  0.5956100000000 1.0
C      1  0.5719490000000  0.4828190000000  0.5724920000000 1.0
C      1  0.5967700000000  0.4842020000000  0.4565720000000 1.0
C      1  0.4940700000000  0.4718090000000  0.3884590000000 1.0
C      1  0.5379090000000  0.4714300000000  0.4342770000000 1.0
C      1  0.4415590000000  0.4774260000000  0.4653400000000 1.0
C      1  0.4375200000000  0.4748400000000  0.5366430000000 1.0
C      1  0.5129870000000  0.4795810000000  0.5656880000000 1.0
C      1  0.5662730000000  0.4781440000000  0.5088520000000 1.0
C      1  0.4831560000000  0.6091570000000  0.5175600000000 1.0
C      1  0.5118990000000  0.6069110000000  0.5265310000000 1.0
C      1  0.5286330000000  0.6084250000000  0.5018200000000 1.0
C      1  0.5098070000000  0.6102700000000  0.4783940000000 1.0
C      1  0.4838110000000  0.6168770000000  0.4895430000000 1.0
C      1  0.5986840000000  0.5176110000000  0.4958950000000 1.0
C      1  0.5379520000000  0.5191790000000  0.4002760000000 1.0
C      1  0.4164320000000  0.5180340000000  0.4408660000000 1.0
C      1  0.4233830000000  0.5145440000000  0.5632870000000 1.0
C      1  0.5360490000000  0.5154560000000  0.5918380000000 1.0
C      1  0.4705720000000  0.4727000000000  0.4747970000000 1.0
C      1  0.4827990000000  0.4697290000000  0.5232990000000 1.0
C      1  0.5046530000000  0.4872850000000  0.5163600000000 1.0
C      1  0.5170790000000  0.4776000000000  0.4893370000000 1.0
C      1  0.4981890000000  0.4830450000000  0.4667940000000 1.0
C      1  0.6030160000000  0.5453160000000  0.4966190000000 1.0
C      1  0.5290160000000  0.5456030000000  0.4058910000000 1.0
C      1  0.4213150000000  0.5448040000000  0.4477720000000 1.0
C      1  0.4253380000000  0.5421350000000  0.5572300000000 1.0
C      1  0.5376050000000  0.5429070000000  0.5967540000000 1.0
C      1  0.4238500000000  0.5023890000000  0.5357510000000 1.0
C      1  0.5088520000000  0.5065370000000  0.5819120000000 1.0
C      1  0.5809260000000  0.5082250000000  0.5180280000000 1.0
C      1  0.5517160000000  0.5055090000000  0.4233760000000 1.0
C      1  0.4407770000000  0.5010480000000  0.4430660000000 1.0
C      1  0.3896430000000  0.4784140000000  0.5066240000000 1.0
C      1  0.4725610000000  0.4836080000000  0.6101920000000 1.0
C      1  0.5967690000000  0.4859700000000  0.5591500000000 1.0
C      1  0.5963790000000  0.4872280000000  0.4284220000000 1.0
C      1  0.4674820000000  0.4711820000000  0.4012370000000 1.0
C      1  0.4181750000000  0.4456390000000  0.4981010000000 1.0
C      1  0.4712840000000  0.4529140000000  0.5655840000000 1.0
C      1  0.5482470000000  0.4655300000000  0.5335220000000 1.0
C      1  0.5533640000000  0.4624920000000  0.4621390000000 1.0
C      1  0.4891800000000  0.4524930000000  0.4275020000000 1.0
C      1  0.5289350000000  0.4554710000000  0.5750880000000 1.0
C      1  0.5845440000000  0.4568750000000  0.4964610000000 1.0
C      1  0.5326260000000  0.4468700000000  0.4158340000000 1.0
C      1  0.4281860000000  0.4524240000000  0.4538860000000 1.0
C      1  0.4280130000000  0.4529700000000  0.5551210000000 1.0
C      1  0.4971540000000  0.4124870000000  0.5555380000000 1.0
C      1  0.5549880000000  0.4177750000000  0.5167800000000 1.0
C      1  0.5306430000000  0.4156320000000  0.4589930000000 1.0
C      1  0.4659710000000  0.4111700000000  0.4530920000000 1.0
C      1  0.4436200000000  0.4119110000000  0.5214390000000 1.0
C      1  0.5420160000000  0.4374590000000  0.4747390000000 1.0
C      1  0.4905110000000  0.4272540000000  0.4449350000000 1.0
C      1  0.4401370000000  0.4271400000000  0.4968890000000 1.0
C      1  0.4744870000000  0.4293570000000  0.5476970000000 1.0
C      1  0.5380610000000  0.4379840000000  0.5290090000000 1.0
C      1  0.5560830000000  0.5083980000000  0.5702450000000 1.0
C      1  0.5862650000000  0.5093240000000  0.4696800000000 1.0
C      1  0.5155140000000  0.5017780000000  0.3974490000000 1.0
C      1  0.4003280000000  0.5070270000000  0.4610550000000 1.0
C      1  0.4485440000000  0.5060520000000  0.5780740000000 1.0
C      1  0.5241150000000  0.5355770000000  0.5407150000000 1.0
C      1  0.5486570000000  0.5345110000000  0.4898000000000 1.0
C      1  0.5109290000000  0.5249290000000  0.4427460000000 1.0
C      1  0.4470450000000  0.5282140000000  0.4902880000000 1.0
C      1  0.4712320000000  0.5229460000000  0.5359060000000 1.0
C      1  0.3967040000000  0.5022190000000  0.5219810000000 1.0
C      1  0.4861690000000  0.5079720000000  0.6037030000000 1.0
C      1  0.5939120000000  0.5107790000000  0.5459200000000 1.0
C      1  0.5817230000000  0.5112030000000  0.4248080000000 1.0
C      1  0.4541580000000  0.4930280000000  0.4146770000000 1.0
C      1  0.5002470000000  0.5268610000000  0.4707500000000 1.0
C      1  0.4756300000000  0.5148210000000  0.4861540000000 1.0
C      1  0.4895810000000  0.5144340000000  0.5137210000000 1.0
C      1  0.5085280000000  0.5358670000000  0.5154970000000 1.0
C      1  0.5193460000000  0.5392470000000  0.4895910000000 1.0
C      1  0.5403120000000  0.5591790000000  0.5739380000000 1.0
C      1  0.5822200000000  0.5617320000000  0.4869600000000 1.0
C      1  0.5118390000000  0.5623570000000  0.4213190000000 1.0
C      1  0.4291820000000  0.5616900000000  0.4689280000000 1.0
C      1  0.4499300000000  0.5558770000000  0.5565910000000 1.0
C      1  0.4582860000000  0.5652910000000  0.4691880000000 1.0
C      1  0.4532840000000  0.5700850000000  0.5317110000000 1.0
C      1  0.5154330000000  0.5705890000000  0.5638190000000 1.0
C      1  0.5640330000000  0.5716390000000  0.5074350000000 1.0
C      1  0.5250020000000  0.5719520000000  0.4456550000000 1.0
C      1  0.5122500000000  0.5760250000000  0.5334420000000 1.0
C      1  0.5349900000000  0.5782280000000  0.5023160000000 1.0
C      1  0.5115830000000  0.5792990000000  0.4734930000000 1.0
C      1  0.4802530000000  0.5781300000000  0.4860030000000 1.0
C      1  0.4790590000000  0.5785330000000  0.5181900000000 1.0
C      1  0.4603220000000  0.5251370000000  0.4519520000000 1.0
C      1  0.4428510000000  0.5276700000000  0.5237060000000 1.0
C      1  0.5007990000000  0.5288630000000  0.5609300000000 1.0
C      1  0.5584740000000  0.5292110000000  0.5189010000000 1.0
C      1  0.5415880000000  0.5228280000000  0.4451980000000 1.0
C      1  0.4714630000000  0.3991490000000  0.5112130000000 1.0
C      1  0.4966780000000  0.3959550000000  0.5285520000000 1.0
C      1  0.5194200000000  0.4037230000000  0.5086190000000 1.0
C      1  0.5104480000000  0.4005290000000  0.4793400000000 1.0
C      1  0.4796320000000  0.3997310000000  0.4804730000000 1.0
C      1  0.5751500000000  0.4313270000000  0.5035890000000 1.0
C      1  0.5323710000000  0.4230450000000  0.4313740000000 1.0
C      1  0.4432980000000  0.4284420000000  0.4528660000000 1.0
C      1  0.4311120000000  0.4269010000000  0.5430470000000 1.0
C      1  0.5175800000000  0.4299310000000  0.5670980000000 1.0
END
