TITL C-3577083-591-671 -3.17857169294872e-06 125000 -1156.85647946555 0 0 187 (C1) n - 1
REM
REM in /home/bkarasulu/work/CARBON/AIRSS/Generating-Clusters/EDIP-Nigel-Params/with-SteepDescent/Higher-Symm/SD-CG/HFTN-CG
REM
REM
REM
REM
REM
REM ./C.cell (12c818d87b63d06a65506943cc24bca4)
REM
REM compiler GCC version 9.2.1 20190827 (Red Hat 9.2.1-1)
REM options -cpp -mtune=generic -march=x86-64 -g -O0 -fpre-include=/usr/include/finclude/math-vector-fortran.h
REM seed -2119293468 -370990069 -10457159 1245497114 2064878601 339500716 -1066350416 -148304485 379633860 -424603314 -1232833771 -676665114 1504864892 1068283195 -338782609 -527280820 1034818467 1119808885 -867006 -159387878 233220012 1792789634 -430495776 985067668 -2112977102 944178831 -450674684 2119358951 1813394988 -1208992413 -480402642 969200100 746819587
REM
CELL 1.54180   50.00000   50.00000   50.00000   90.00000   90.00000   90.00000
LATT -1
SFAC C  
C      1  0.5725610000000  0.4510320000000  0.5660780000000 1.0
C      1  0.4070120000000  0.4446330000000  0.5265110000000 1.0
C      1  0.5208740000000  0.4460560000000  0.3992970000000 1.0
C      1  0.5721590000000  0.5580190000000  0.5674210000000 1.0
C      1  0.4023370000000  0.5486740000000  0.5238580000000 1.0
C      1  0.5217400000000  0.5591550000000  0.4036720000000 1.0
C      1  0.4143350000000  0.5464680000000  0.5523540000000 1.0
C      1  0.4920000000000  0.5596080000000  0.3979950000000 1.0
C      1  0.5925450000000  0.5564610000000  0.5441970000000 1.0
C      1  0.4212840000000  0.4503590000000  0.5542040000000 1.0
C      1  0.4873350000000  0.4503820000000  0.4001210000000 1.0
C      1  0.5944250000000  0.4489090000000  0.5433040000000 1.0
C      1  0.4126220000000  0.4737580000000  0.5717970000000 1.0
C      1  0.4946270000000  0.4901730000000  0.3810080000000 1.0
C      1  0.6098790000000  0.4904080000000  0.5538600000000 1.0
C      1  0.4117140000000  0.4996010000000  0.5590070000000 1.0
C      1  0.4972170000000  0.5175560000000  0.3853710000000 1.0
C      1  0.5939040000000  0.5128670000000  0.5510440000000 1.0
C      1  0.5993070000000  0.4252970000000  0.5294930000000 1.0
C      1  0.4216200000000  0.4257180000000  0.5695230000000 1.0
C      1  0.4733760000000  0.4254020000000  0.3955080000000 1.0
C      1  0.5988800000000  0.5805220000000  0.5312320000000 1.0
C      1  0.4225390000000  0.5715620000000  0.5617430000000 1.0
C      1  0.4786760000000  0.5836910000000  0.4025630000000 1.0
C      1  0.5220340000000  0.5692610000000  0.6003920000000 1.0
C      1  0.3984930000000  0.5579950000000  0.4640170000000 1.0
C      1  0.5805510000000  0.5629060000000  0.4317780000000 1.0
C      1  0.5197440000000  0.4398000000000  0.6047870000000 1.0
C      1  0.4014170000000  0.4344690000000  0.4677910000000 1.0
C      1  0.5730920000000  0.4351240000000  0.4286930000000 1.0
C      1  0.4392820000000  0.5803440000000  0.5143370000000 1.0
C      1  0.5115250000000  0.5881350000000  0.4417970000000 1.0
C      1  0.5497170000000  0.5849940000000  0.5396230000000 1.0
C      1  0.4472200000000  0.4158040000000  0.5275130000000 1.0
C      1  0.5032070000000  0.4175210000000  0.4347170000000 1.0
C      1  0.5501280000000  0.4167710000000  0.5393680000000 1.0
C      1  0.4435980000000  0.4770420000000  0.4582060000000 1.0
C      1  0.5576730000000  0.4835950000000  0.4667880000000 1.0
C      1  0.4921560000000  0.4799940000000  0.5695460000000 1.0
C      1  0.4450690000000  0.5158940000000  0.4618570000000 1.0
C      1  0.5605530000000  0.5153780000000  0.4673300000000 1.0
C      1  0.4960810000000  0.5187860000000  0.5661880000000 1.0
C      1  0.5404730000000  0.5865820000000  0.5890820000000 1.0
C      1  0.3988840000000  0.5762140000000  0.4848480000000 1.0
C      1  0.5584090000000  0.5795440000000  0.4272990000000 1.0
C      1  0.5364510000000  0.4257220000000  0.5870530000000 1.0
C      1  0.4120710000000  0.4175190000000  0.4872690000000 1.0
C      1  0.5521720000000  0.4181820000000  0.4220720000000 1.0
C      1  0.4587240000000  0.5595850000000  0.4967030000000 1.0
C      1  0.5270820000000  0.5604820000000  0.4656530000000 1.0
C      1  0.5233820000000  0.5566170000000  0.5381340000000 1.0
C      1  0.4611350000000  0.4425250000000  0.5266490000000 1.0
C      1  0.5023350000000  0.4458820000000  0.4454370000000 1.0
C      1  0.5327160000000  0.4377420000000  0.5257420000000 1.0
C      1  0.4692180000000  0.4352320000000  0.5921850000000 1.0
C      1  0.4323090000000  0.4316170000000  0.4254930000000 1.0
C      1  0.5752750000000  0.4402110000000  0.4818970000000 1.0
C      1  0.4817050000000  0.5671570000000  0.5721740000000 1.0
C      1  0.4446480000000  0.5600670000000  0.4388530000000 1.0
C      1  0.5841450000000  0.5566320000000  0.4836530000000 1.0
C      1  0.5306540000000  0.6058080000000  0.5301660000000 1.0
C      1  0.4459760000000  0.6074060000000  0.5071020000000 1.0
C      1  0.5132590000000  0.6130770000000  0.4573140000000 1.0
C      1  0.5384500000000  0.3897170000000  0.5379610000000 1.0
C      1  0.4690520000000  0.3966330000000  0.5178620000000 1.0
C      1  0.5081920000000  0.3977060000000  0.4570930000000 1.0
C      1  0.5373940000000  0.4116190000000  0.4909350000000 1.0
C      1  0.4885290000000  0.4224210000000  0.5548080000000 1.0
C      1  0.4589330000000  0.4288560000000  0.4603420000000 1.0
C      1  0.5393450000000  0.5714320000000  0.4933390000000 1.0
C      1  0.4990290000000  0.5679240000000  0.5251630000000 1.0
C      1  0.4758740000000  0.5747090000000  0.4741680000000 1.0
C      1  0.4422790000000  0.4108420000000  0.5574480000000 1.0
C      1  0.4771830000000  0.4114590000000  0.4195490000000 1.0
C      1  0.5745580000000  0.4147460000000  0.5227040000000 1.0
C      1  0.4434320000000  0.5786370000000  0.5441530000000 1.0
C      1  0.4833040000000  0.5890560000000  0.4298280000000 1.0
C      1  0.5738930000000  0.5886390000000  0.5207100000000 1.0
C      1  0.5128860000000  0.4831960000000  0.4705990000000 1.0
C      1  0.5153810000000  0.4786850000000  0.5249540000000 1.0
C      1  0.4759560000000  0.4755690000000  0.4927950000000 1.0
C      1  0.5103170000000  0.5133190000000  0.4729390000000 1.0
C      1  0.5182010000000  0.5093090000000  0.5208210000000 1.0
C      1  0.4750340000000  0.5055650000000  0.4991760000000 1.0
C      1  0.4097450000000  0.5740880000000  0.5103120000000 1.0
C      1  0.5314160000000  0.5813560000000  0.4201120000000 1.0
C      1  0.5591420000000  0.5846300000000  0.5685370000000 1.0
C      1  0.4193370000000  0.4204800000000  0.5141150000000 1.0
C      1  0.5257000000000  0.4204080000000  0.4139090000000 1.0
C      1  0.5563030000000  0.4264200000000  0.5672330000000 1.0
C      1  0.4503240000000  0.4588810000000  0.5475540000000 1.0
C      1  0.4839430000000  0.4615250000000  0.4287870000000 1.0
C      1  0.5435310000000  0.4650070000000  0.5174260000000 1.0
C      1  0.4640680000000  0.5334360000000  0.5389080000000 1.0
C      1  0.4878500000000  0.5334160000000  0.4483220000000 1.0
C      1  0.5538070000000  0.5252230000000  0.5135250000000 1.0
C      1  0.5040310000000  0.5216610000000  0.5950230000000 1.0
C      1  0.4160550000000  0.5126030000000  0.4532100000000 1.0
C      1  0.5838450000000  0.5159290000000  0.4475490000000 1.0
C      1  0.5001130000000  0.4860980000000  0.5984310000000 1.0
C      1  0.4137610000000  0.4807050000000  0.4528980000000 1.0
C      1  0.5812330000000  0.4792030000000  0.4469160000000 1.0
C      1  0.4518560000000  0.4918710000000  0.4038350000000 1.0
C      1  0.6082710000000  0.4888570000000  0.5048590000000 1.0
C      1  0.4475350000000  0.4942740000000  0.5962360000000 1.0
C      1  0.4513560000000  0.5212040000000  0.4020880000000 1.0
C      1  0.6115100000000  0.5179530000000  0.5062520000000 1.0
C      1  0.4417520000000  0.5221120000000  0.5906930000000 1.0
C      1  0.4974570000000  0.5554090000000  0.4665620000000 1.0
C      1  0.5387130000000  0.5506430000000  0.5146550000000 1.0
C      1  0.4799370000000  0.5467040000000  0.5159280000000 1.0
C      1  0.5026270000000  0.4539460000000  0.4745240000000 1.0
C      1  0.5081170000000  0.4288460000000  0.5098130000000 1.0
C      1  0.4870760000000  0.4550950000000  0.5148630000000 1.0
C      1  0.5664360000000  0.5095870000000  0.5387330000000 1.0
C      1  0.4397560000000  0.5139010000000  0.5366830000000 1.0
C      1  0.5024880000000  0.5250970000000  0.4229110000000 1.0
C      1  0.5614730000000  0.4769050000000  0.5394160000000 1.0
C      1  0.4497930000000  0.4846230000000  0.5341060000000 1.0
C      1  0.4980250000000  0.4906990000000  0.4195100000000 1.0
C      1  0.5417570000000  0.4830600000000  0.5643980000000 1.0
C      1  0.4319580000000  0.4816890000000  0.5067230000000 1.0
C      1  0.5286460000000  0.4888220000000  0.4260200000000 1.0
C      1  0.5451890000000  0.5149610000000  0.5605800000000 1.0
C      1  0.4293250000000  0.5132000000000  0.5070090000000 1.0
C      1  0.5314210000000  0.5206410000000  0.4294830000000 1.0
C      1  0.5196470000000  0.5255420000000  0.5471290000000 1.0
C      1  0.4516620000000  0.5233640000000  0.4902560000000 1.0
C      1  0.5341470000000  0.5288090000000  0.4590180000000 1.0
C      1  0.5157560000000  0.4741590000000  0.5541980000000 1.0
C      1  0.4488530000000  0.4694940000000  0.4856270000000 1.0
C      1  0.5332180000000  0.4769210000000  0.4523450000000 1.0
C      1  0.6058730000000  0.5318410000000  0.5330920000000 1.0
C      1  0.4178470000000  0.5242810000000  0.5722910000000 1.0
C      1  0.4753560000000  0.5352550000000  0.3900330000000 1.0
C      1  0.6049140000000  0.4743670000000  0.5317450000000 1.0
C      1  0.4270100000000  0.4750910000000  0.5960070000000 1.0
C      1  0.4715300000000  0.4751730000000  0.3880900000000 1.0
C      1  0.5110770000000  0.3848640000000  0.5369450000000 1.0
C      1  0.4749800000000  0.3939570000000  0.4890960000000 1.0
C      1  0.5018890000000  0.3818810000000  0.4816230000000 1.0
C      1  0.5081190000000  0.6122370000000  0.5450930000000 1.0
C      1  0.4738500000000  0.6085640000000  0.5093400000000 1.0
C      1  0.5224830000000  0.6170660000000  0.4833420000000 1.0
C      1  0.5662070000000  0.4153610000000  0.4946260000000 1.0
C      1  0.4677080000000  0.4121660000000  0.5726290000000 1.0
C      1  0.4527160000000  0.4121400000000  0.4361210000000 1.0
C      1  0.5680630000000  0.5795030000000  0.4930250000000 1.0
C      1  0.4684180000000  0.5878000000000  0.5554930000000 1.0
C      1  0.4616460000000  0.5819920000000  0.4485160000000 1.0
C      1  0.4026240000000  0.5259290000000  0.5030300000000 1.0
C      1  0.5490410000000  0.5345930000000  0.4106190000000 1.0
C      1  0.5539100000000  0.5358570000000  0.5802480000000 1.0
C      1  0.4053950000000  0.4676930000000  0.5064930000000 1.0
C      1  0.5418390000000  0.4690030000000  0.4071430000000 1.0
C      1  0.5504680000000  0.4719880000000  0.5900940000000 1.0
C      1  0.3994550000000  0.4626220000000  0.4760290000000 1.0
C      1  0.5694610000000  0.4628950000000  0.4211580000000 1.0
C      1  0.5258910000000  0.4682200000000  0.6057360000000 1.0
C      1  0.3984550000000  0.5301640000000  0.4727830000000 1.0
C      1  0.5759100000000  0.5358040000000  0.4232910000000 1.0
C      1  0.5289670000000  0.5413460000000  0.5967300000000 1.0
C      1  0.4091440000000  0.4313100000000  0.4410350000000 1.0
C      1  0.5818940000000  0.4360980000000  0.4549540000000 1.0
C      1  0.4925550000000  0.4340950000000  0.6074070000000 1.0
C      1  0.4170240000000  0.5618500000000  0.4437130000000 1.0
C      1  0.5918670000000  0.5606020000000  0.4569870000000 1.0
C      1  0.4949820000000  0.5743790000000  0.5959780000000 1.0
C      1  0.5590010000000  0.4638680000000  0.4899420000000 1.0
C      1  0.4730400000000  0.4553470000000  0.5676250000000 1.0
C      1  0.4549930000000  0.4557490000000  0.4399090000000 1.0
C      1  0.5720060000000  0.5286120000000  0.4905350000000 1.0
C      1  0.4738900000000  0.5386180000000  0.5659410000000 1.0
C      1  0.4585370000000  0.5338930000000  0.4437100000000 1.0
C      1  0.4826730000000  0.4205710000000  0.4754460000000 1.0
C      1  0.5237140000000  0.3882020000000  0.5018100000000 1.0
C      1  0.4942700000000  0.4077400000000  0.5296390000000 1.0
C      1  0.4868030000000  0.6020040000000  0.4833830000000 1.0
C      1  0.5246910000000  0.5963490000000  0.5028900000000 1.0
C      1  0.4874680000000  0.5951830000000  0.5334330000000 1.0
C      1  0.6064330000000  0.4856210000000  0.4755400000000 1.0
C      1  0.4725540000000  0.4954080000000  0.6119150000000 1.0
C      1  0.4257390000000  0.4869480000000  0.4165120000000 1.0
C      1  0.6075030000000  0.5140010000000  0.4684240000000 1.0
C      1  0.4756080000000  0.5257770000000  0.6082320000000 1.0
C      1  0.4196380000000  0.5154490000000  0.4223920000000 1.0
C      1  0.4993860000000  0.5212360000000  0.5007310000000 1.0
END
