TITL C-3577087-600-595 -2.2212263617451e-07 125000 -27.3685144891716 0 0 6 (D(inf)h) n - 1
REM
REM in /home/bkarasulu/work/CARBON/AIRSS/Generating-Clusters/EDIP-Nigel-Params/with-SteepDescent/Higher-Symm/SD-CG/HFTN-CG
REM
REM
REM
REM
REM
REM ./C.cell (12c818d87b63d06a65506943cc24bca4)
REM
REM compiler GCC version 9.2.1 20190827 (Red Hat 9.2.1-1)
REM options -cpp -mtune=generic -march=x86-64 -g -O0 -fpre-include=/usr/include/finclude/math-vector-fortran.h
REM seed -1372240756 -15406189 1578946650 229254537 85839758 -983008364 -323458290 -1799966234 806110372 1810615299 -1227911941 -177575693 42632466 -137784643 1961186164 388975994 -1271862745 -1449002769 -1046602545 1543481611 -671130768 -1747128386 1500313288 -2023995869 -1505136100 2101198129 1453317526 -1721798652 593510713 -1115898133 315075953 -2077143978 -1018249345
REM
CELL 1.54180   50.00000   50.00000   50.00000   90.00000   90.00000   90.00000
LATT -1
SFAC C  
C      1  0.4975940000000  0.4977960000000  0.4604220000000 1.0
C      1  0.4975940000000  0.4977960000000  0.5651490000000 1.0
C      1  0.4975940000000  0.4977960000000  0.5131930000000 1.0
C      1  0.4975940000000  0.4977960000000  0.5395780000000 1.0
C      1  0.4975940000000  0.4977960000000  0.4348510000000 1.0
C      1  0.4975940000000  0.4977960000000  0.4868070000000 1.0
END
