TITL C-3577091-527-443 -5.57625312740628e-06 125000 -859.170218390159 0 0 139 (C1) n - 1
REM
REM in /home/bkarasulu/work/CARBON/AIRSS/Generating-Clusters/EDIP-Nigel-Params/with-SteepDescent/Higher-Symm/SD-CG/HFTN-CG
REM
REM
REM
REM
REM
REM ./C.cell (12c818d87b63d06a65506943cc24bca4)
REM
REM compiler GCC version 9.2.1 20190827 (Red Hat 9.2.1-1)
REM options -cpp -mtune=generic -march=x86-64 -g -O0 -fpre-include=/usr/include/finclude/math-vector-fortran.h
REM seed 644895204 -1274799638 -1832200875 1695760533 1200122246 -1083579564 -1363659471 1847579175 -885313853 -1074603509 840947410 -1813392112 -1804900393 63856571 824099559 -1218297666 -1321025780 -882082608 -1317621906 337157391 -2073549422 1335754441 1173181141 -1045540022 615628950 682953990 1701629499 -960565398 352379671 1257207305 -742739062 1078735086 1135631085
REM
CELL 1.54180   50.00000   50.00000   50.00000   90.00000   90.00000   90.00000
LATT -1
SFAC C  
C      1  0.5647350000000  0.4408220000000  0.4760700000000 1.0
C      1  0.5250870000000  0.4090700000000  0.4761490000000 1.0
C      1  0.4725690000000  0.4163620000000  0.4749320000000 1.0
C      1  0.4340560000000  0.4487070000000  0.4798620000000 1.0
C      1  0.4107930000000  0.4930910000000  0.4781540000000 1.0
C      1  0.4129840000000  0.5455100000000  0.4743760000000 1.0
C      1  0.4531500000000  0.5815160000000  0.4743380000000 1.0
C      1  0.5023470000000  0.5891150000000  0.4757040000000 1.0
C      1  0.5497080000000  0.5723630000000  0.4753490000000 1.0
C      1  0.5904610000000  0.5378950000000  0.4753720000000 1.0
C      1  0.5904080000000  0.4848230000000  0.4763700000000 1.0
C      1  0.5210730000000  0.4478940000000  0.5408880000000 1.0
C      1  0.4924210000000  0.4503730000000  0.5513040000000 1.0
C      1  0.4707900000000  0.4609540000000  0.5336080000000 1.0
C      1  0.4529850000000  0.4890850000000  0.5397020000000 1.0
C      1  0.4484740000000  0.5210460000000  0.5466440000000 1.0
C      1  0.4701090000000  0.5405160000000  0.5544050000000 1.0
C      1  0.5002110000000  0.5468790000000  0.5560030000000 1.0
C      1  0.5194600000000  0.5357710000000  0.5312180000000 1.0
C      1  0.5427900000000  0.5121240000000  0.5367080000000 1.0
C      1  0.5524690000000  0.4900110000000  0.5595860000000 1.0
C      1  0.5411390000000  0.4616330000000  0.5592290000000 1.0
C      1  0.5467710000000  0.4234250000000  0.4355200000000 1.0
C      1  0.4975420000000  0.4126280000000  0.4354590000000 1.0
C      1  0.4484850000000  0.4281440000000  0.4362900000000 1.0
C      1  0.4222350000000  0.4689940000000  0.4381070000000 1.0
C      1  0.4196320000000  0.5162790000000  0.4378350000000 1.0
C      1  0.4364820000000  0.5621810000000  0.4352210000000 1.0
C      1  0.4775490000000  0.5902410000000  0.4335430000000 1.0
C      1  0.5269380000000  0.5821510000000  0.4344250000000 1.0
C      1  0.5703570000000  0.5581570000000  0.4355770000000 1.0
C      1  0.5771930000000  0.5099660000000  0.4378100000000 1.0
C      1  0.5786450000000  0.4608030000000  0.4360430000000 1.0
C      1  0.5024040000000  0.5881490000000  0.4468290000000 1.0
C      1  0.5444080000000  0.5630400000000  0.4477560000000 1.0
C      1  0.5852130000000  0.5362780000000  0.4462420000000 1.0
C      1  0.5871710000000  0.4851020000000  0.4475930000000 1.0
C      1  0.5563710000000  0.4474810000000  0.4487790000000 1.0
C      1  0.5240410000000  0.4106550000000  0.4466260000000 1.0
C      1  0.4752320000000  0.4276350000000  0.4476950000000 1.0
C      1  0.4325860000000  0.4467290000000  0.4508600000000 1.0
C      1  0.4271850000000  0.4930610000000  0.4532210000000 1.0
C      1  0.4178580000000  0.5432080000000  0.4454090000000 1.0
C      1  0.4614050000000  0.5705380000000  0.4479130000000 1.0
C      1  0.5015230000000  0.5457760000000  0.4052510000000 1.0
C      1  0.5244100000000  0.5399100000000  0.3928150000000 1.0
C      1  0.5413150000000  0.5194960000000  0.3954870000000 1.0
C      1  0.5422750000000  0.4969510000000  0.4097770000000 1.0
C      1  0.5280390000000  0.4761050000000  0.4209890000000 1.0
C      1  0.5167620000000  0.4581050000000  0.4032050000000 1.0
C      1  0.4937900000000  0.4543650000000  0.3896420000000 1.0
C      1  0.4750190000000  0.4716410000000  0.3982000000000 1.0
C      1  0.4735390000000  0.4915650000000  0.4173550000000 1.0
C      1  0.4644310000000  0.5167420000000  0.4106250000000 1.0
C      1  0.4822160000000  0.5348240000000  0.4217730000000 1.0
C      1  0.4453180000000  0.4906190000000  0.5094670000000 1.0
C      1  0.4384170000000  0.5199460000000  0.5092230000000 1.0
C      1  0.4561700000000  0.5390000000000  0.4928510000000 1.0
C      1  0.4812260000000  0.5550170000000  0.5021400000000 1.0
C      1  0.5106170000000  0.5473280000000  0.4986180000000 1.0
C      1  0.5502020000000  0.5284050000000  0.4911480000000 1.0
C      1  0.5561680000000  0.5061300000000  0.5097110000000 1.0
C      1  0.5462090000000  0.4795210000000  0.4972600000000 1.0
C      1  0.5280130000000  0.4517710000000  0.5092440000000 1.0
C      1  0.5030300000000  0.4464750000000  0.4925560000000 1.0
C      1  0.4750640000000  0.4557850000000  0.5027160000000 1.0
C      1  0.3912150000000  0.5194970000000  0.5136950000000 1.0
C      1  0.4233090000000  0.5724140000000  0.5120630000000 1.0
C      1  0.4747330000000  0.6017690000000  0.5145000000000 1.0
C      1  0.5288840000000  0.5922460000000  0.5142210000000 1.0
C      1  0.5762530000000  0.5625850000000  0.5144530000000 1.0
C      1  0.6088360000000  0.5107290000000  0.5144980000000 1.0
C      1  0.5876730000000  0.4565180000000  0.5138570000000 1.0
C      1  0.5591210000000  0.4106700000000  0.5131020000000 1.0
C      1  0.4964120000000  0.4024620000000  0.5141470000000 1.0
C      1  0.4476420000000  0.4180440000000  0.5157540000000 1.0
C      1  0.4038420000000  0.4617180000000  0.5156910000000 1.0
C      1  0.4794590000000  0.4229350000000  0.5542690000000 1.0
C      1  0.4379000000000  0.4492510000000  0.5497820000000 1.0
C      1  0.4157220000000  0.4924850000000  0.5500420000000 1.0
C      1  0.4156790000000  0.5411870000000  0.5495300000000 1.0
C      1  0.4579100000000  0.5644320000000  0.5435960000000 1.0
C      1  0.5009080000000  0.5768230000000  0.5504560000000 1.0
C      1  0.5427370000000  0.5619070000000  0.5472530000000 1.0
C      1  0.5753620000000  0.5301250000000  0.5478760000000 1.0
C      1  0.5815680000000  0.4860660000000  0.5514120000000 1.0
C      1  0.5631410000000  0.4425990000000  0.5528890000000 1.0
C      1  0.5261510000000  0.4109790000000  0.5502590000000 1.0
C      1  0.4294090000000  0.5641230000000  0.5378740000000 1.0
C      1  0.4758030000000  0.5870530000000  0.5386560000000 1.0
C      1  0.5273480000000  0.5849020000000  0.5408210000000 1.0
C      1  0.5695660000000  0.5566130000000  0.5403810000000 1.0
C      1  0.5912050000000  0.5092810000000  0.5364200000000 1.0
C      1  0.5856760000000  0.4584260000000  0.5414250000000 1.0
C      1  0.5524780000000  0.4176290000000  0.5395170000000 1.0
C      1  0.4991860000000  0.4037290000000  0.5417090000000 1.0
C      1  0.4503780000000  0.4237180000000  0.5430520000000 1.0
C      1  0.4157140000000  0.4655300000000  0.5405520000000 1.0
C      1  0.4051810000000  0.5170200000000  0.5382180000000 1.0
C      1  0.4775070000000  0.5833780000000  0.4918520000000 1.0
C      1  0.5242060000000  0.5759890000000  0.4911380000000 1.0
C      1  0.5676480000000  0.5525380000000  0.4893040000000 1.0
C      1  0.5904320000000  0.5109020000000  0.4920970000000 1.0
C      1  0.5734020000000  0.4648310000000  0.4906990000000 1.0
C      1  0.5451560000000  0.4262910000000  0.4932560000000 1.0
C      1  0.4991090000000  0.4159980000000  0.4893890000000 1.0
C      1  0.4558630000000  0.4336600000000  0.4931400000000 1.0
C      1  0.4222660000000  0.4720610000000  0.4960650000000 1.0
C      1  0.4114370000000  0.5196100000000  0.4930010000000 1.0
C      1  0.4347710000000  0.5616580000000  0.4879030000000 1.0
C      1  0.5339360000000  0.4911150000000  0.4696190000000 1.0
C      1  0.5327850000000  0.4676210000000  0.4493720000000 1.0
C      1  0.5084750000000  0.4552060000000  0.4636780000000 1.0
C      1  0.4844200000000  0.4566920000000  0.4494210000000 1.0
C      1  0.4678360000000  0.4840620000000  0.4913530000000 1.0
C      1  0.4584060000000  0.4962040000000  0.4631350000000 1.0
C      1  0.4616440000000  0.5259270000000  0.4664270000000 1.0
C      1  0.4794450000000  0.5432820000000  0.4503130000000 1.0
C      1  0.5063800000000  0.5336850000000  0.4669060000000 1.0
C      1  0.5307470000000  0.5364890000000  0.4501000000000 1.0
C      1  0.5490830000000  0.5170790000000  0.4628910000000 1.0
C      1  0.4936420000000  0.5386370000000  0.6039050000000 1.0
C      1  0.5115740000000  0.5410940000000  0.5831890000000 1.0
C      1  0.5353110000000  0.5269680000000  0.5852030000000 1.0
C      1  0.5481690000000  0.5024990000000  0.5863170000000 1.0
C      1  0.5391320000000  0.4855130000000  0.6060320000000 1.0
C      1  0.5196000000000  0.4696520000000  0.6147670000000 1.0
C      1  0.4976150000000  0.4540940000000  0.6123280000000 1.0
C      1  0.4702520000000  0.4578520000000  0.6150900000000 1.0
C      1  0.4564800000000  0.4807870000000  0.6047870000000 1.0
C      1  0.4557490000000  0.5058360000000  0.6180770000000 1.0
C      1  0.4726830000000  0.5267500000000  0.6150920000000 1.0
C      1  0.4874070000000  0.4911570000000  0.5676240000000 1.0
C      1  0.4855850000000  0.4894400000000  0.5961260000000 1.0
C      1  0.5022180000000  0.4979780000000  0.5462130000000 1.0
C      1  0.4817050000000  0.4865430000000  0.4457780000000 1.0
C      1  0.4919560000000  0.4994150000000  0.4963570000000 1.0
C      1  0.5057990000000  0.4962670000000  0.5198170000000 1.0
C      1  0.5043760000000  0.5027460000000  0.4698830000000 1.0
END
