TITL C-3577085-527-187 -2.13944005574462e-06 125000 -479.714775775805 0 0 77 (C1) n - 1
REM
REM in /home/bkarasulu/work/CARBON/AIRSS/Generating-Clusters/EDIP-Nigel-Params/with-SteepDescent/Higher-Symm/SD-CG/HFTN-CG
REM
REM
REM
REM
REM
REM ./C.cell (12c818d87b63d06a65506943cc24bca4)
REM
REM compiler GCC version 9.2.1 20190827 (Red Hat 9.2.1-1)
REM options -cpp -mtune=generic -march=x86-64 -g -O0 -fpre-include=/usr/include/finclude/math-vector-fortran.h
REM seed 546698185 -2098702118 -1360144133 -1017096860 1372518076 1479234737 -604054460 505399005 1209404990 -45763767 753377475 -100682368 1919230665 -1858774322 1470927539 623923452 -1535640269 -1907309806 1295854769 -297685011 -980766807 -1871781389 2026723576 385997538 -1612117593 -1529424652 27102451 -1120154651 676396171 -1086375750 -335995050 -378948700 954130718
REM
CELL 1.54180   50.00000   50.00000   50.00000   90.00000   90.00000   90.00000
LATT -1
SFAC C  
C      1  0.4428590000000  0.4883230000000  0.5511330000000 1.0
C      1  0.4401570000000  0.5505670000000  0.4815940000000 1.0
C      1  0.4397700000000  0.4581360000000  0.4619000000000 1.0
C      1  0.4966400000000  0.5278030000000  0.4855870000000 1.0
C      1  0.4923440000000  0.4786780000000  0.4915240000000 1.0
C      1  0.4976210000000  0.5035340000000  0.5303140000000 1.0
C      1  0.4950620000000  0.5313180000000  0.4312740000000 1.0
C      1  0.4978380000000  0.4285020000000  0.5026850000000 1.0
C      1  0.4981970000000  0.5414740000000  0.5606500000000 1.0
C      1  0.4822610000000  0.4373610000000  0.4792040000000 1.0
C      1  0.4827910000000  0.5159660000000  0.5636520000000 1.0
C      1  0.4792600000000  0.5470520000000  0.4502360000000 1.0
C      1  0.5629620000000  0.5055210000000  0.5289350000000 1.0
C      1  0.5618920000000  0.5223410000000  0.4804010000000 1.0
C      1  0.5641700000000  0.4730850000000  0.4893800000000 1.0
C      1  0.4229150000000  0.5067910000000  0.4704300000000 1.0
C      1  0.4245730000000  0.4700020000000  0.5061380000000 1.0
C      1  0.4252910000000  0.5197400000000  0.5199840000000 1.0
C      1  0.5623170000000  0.4773840000000  0.5194460000000 1.0
C      1  0.5624650000000  0.5279610000000  0.5091160000000 1.0
C      1  0.5609620000000  0.4948760000000  0.4697900000000 1.0
C      1  0.5053920000000  0.4376250000000  0.5512690000000 1.0
C      1  0.5089570000000  0.5753800000000  0.5270520000000 1.0
C      1  0.5016720000000  0.4822530000000  0.4257890000000 1.0
C      1  0.4525810000000  0.4388340000000  0.4810830000000 1.0
C      1  0.4529940000000  0.5152070000000  0.5593860000000 1.0
C      1  0.4502510000000  0.5434860000000  0.4541350000000 1.0
C      1  0.4858090000000  0.4659050000000  0.5686650000000 1.0
C      1  0.4878840000000  0.5658510000000  0.4894570000000 1.0
C      1  0.4843110000000  0.4587860000000  0.4337170000000 1.0
C      1  0.4966370000000  0.4402420000000  0.4529920000000 1.0
C      1  0.4959910000000  0.4926630000000  0.5771470000000 1.0
C      1  0.4906950000000  0.5708260000000  0.4611740000000 1.0
C      1  0.5240910000000  0.4535730000000  0.4564990000000 1.0
C      1  0.5244450000000  0.4947780000000  0.5819140000000 1.0
C      1  0.5274980000000  0.5663870000000  0.4705300000000 1.0
C      1  0.5547510000000  0.5696260000000  0.4867360000000 1.0
C      1  0.5614830000000  0.4553050000000  0.4460230000000 1.0
C      1  0.5550030000000  0.4773100000000  0.5667920000000 1.0
C      1  0.5220380000000  0.5204830000000  0.5245210000000 1.0
C      1  0.5203870000000  0.5131130000000  0.4706850000000 1.0
C      1  0.5157100000000  0.4685660000000  0.5091800000000 1.0
C      1  0.4573330000000  0.4693480000000  0.4406270000000 1.0
C      1  0.4601230000000  0.4645980000000  0.5537190000000 1.0
C      1  0.4604310000000  0.5626750000000  0.4999850000000 1.0
C      1  0.5544830000000  0.4829130000000  0.4428810000000 1.0
C      1  0.5519910000000  0.4616150000000  0.5429520000000 1.0
C      1  0.5560840000000  0.5573360000000  0.5135330000000 1.0
C      1  0.5620200000000  0.5479060000000  0.4649150000000 1.0
C      1  0.5639290000000  0.4473550000000  0.4743760000000 1.0
C      1  0.5619890000000  0.5048630000000  0.5592240000000 1.0
C      1  0.4429820000000  0.5345320000000  0.5388170000000 1.0
C      1  0.4390160000000  0.5167210000000  0.4475240000000 1.0
C      1  0.4422610000000  0.4462460000000  0.5085270000000 1.0
C      1  0.5366530000000  0.5703180000000  0.5305560000000 1.0
C      1  0.5300000000000  0.4857370000000  0.4285040000000 1.0
C      1  0.5334110000000  0.4403190000000  0.5445870000000 1.0
C      1  0.5266330000000  0.5378850000000  0.5580220000000 1.0
C      1  0.5234590000000  0.5288450000000  0.4363990000000 1.0
C      1  0.5261390000000  0.4324240000000  0.5022550000000 1.0
C      1  0.4836970000000  0.5054310000000  0.4244060000000 1.0
C      1  0.4862760000000  0.4309920000000  0.5293140000000 1.0
C      1  0.4890890000000  0.5581690000000  0.5390080000000 1.0
C      1  0.4614780000000  0.4462720000000  0.5308970000000 1.0
C      1  0.4625370000000  0.5536300000000  0.5275350000000 1.0
C      1  0.4572430000000  0.4978330000000  0.4344260000000 1.0
C      1  0.5378540000000  0.4338360000000  0.4766570000000 1.0
C      1  0.5400880000000  0.5183960000000  0.5741800000000 1.0
C      1  0.5379560000000  0.5516840000000  0.4455150000000 1.0
C      1  0.5147420000000  0.5436960000000  0.5058640000000 1.0
C      1  0.5120390000000  0.4827170000000  0.4686290000000 1.0
C      1  0.5095670000000  0.4746620000000  0.5390390000000 1.0
C      1  0.4238000000000  0.5276680000000  0.4915220000000 1.0
C      1  0.4232760000000  0.4777050000000  0.4775780000000 1.0
C      1  0.4264060000000  0.4912170000000  0.5268640000000 1.0
C      1  0.4841270000000  0.5048420000000  0.5026940000000 1.0
C      1  0.5304910000000  0.4987160000000  0.5004910000000 1.0
END
