TITL C-3578202-4305-664 -9.05238631060144e-07 125000 -343.547211671427 0 0 56 (C1) n - 1
REM
REM in /home/bkarasulu/work/CARBON/AIRSS/Generating-Clusters/EDIP-Nigel-Params/with-SteepDescent/Higher-Symm/SD-CG/HFTN-CG
REM
REM
REM
REM
REM
REM ./C.cell (12c818d87b63d06a65506943cc24bca4)
REM
REM compiler GCC version 9.2.1 20190827 (Red Hat 9.2.1-1)
REM options -cpp -mtune=generic -march=x86-64 -g -O0 -fpre-include=/usr/include/finclude/math-vector-fortran.h
REM seed 1455763269 -1035553392 -777245504 1342545269 -886063374 -1098607045 -1167166861 -499026713 -967918550 513779611 65486148 1829993725 464985698 1381442898 -1945623689 -867755316 1967078442 128983306 -1818961217 1141586925 586710366 -1872657068 -2044042176 -224578932 -1744637119 773452274 -521077044 1870067894 1286616335 1717269420 1060159691 -608201585 -1353360050
REM
CELL 1.54180   50.00000   50.00000   50.00000   90.00000   90.00000   90.00000
LATT -1
SFAC C  
C      1  0.4736410000000  0.4837250000000  0.5442860000000 1.0
C      1  0.5252070000000  0.5169160000000  0.4572610000000 1.0
C      1  0.5289400000000  0.5421710000000  0.4706240000000 1.0
C      1  0.4695550000000  0.4602090000000  0.5263680000000 1.0
C      1  0.4449550000000  0.5280420000000  0.4417810000000 1.0
C      1  0.5527920000000  0.4736490000000  0.5530850000000 1.0
C      1  0.5015480000000  0.5288490000000  0.5132020000000 1.0
C      1  0.5021350000000  0.4725380000000  0.4886960000000 1.0
C      1  0.5284920000000  0.4877000000000  0.4968120000000 1.0
C      1  0.4755240000000  0.5135560000000  0.5056160000000 1.0
C      1  0.5387550000000  0.5176280000000  0.5664010000000 1.0
C      1  0.4628760000000  0.4845690000000  0.4334670000000 1.0
C      1  0.5399160000000  0.4944000000000  0.4694190000000 1.0
C      1  0.4619490000000  0.5096050000000  0.5339610000000 1.0
C      1  0.5362400000000  0.4319270000000  0.4840020000000 1.0
C      1  0.4605170000000  0.5687610000000  0.5161510000000 1.0
C      1  0.4896090000000  0.5359190000000  0.4305900000000 1.0
C      1  0.5101550000000  0.4644910000000  0.5707400000000 1.0
C      1  0.5661550000000  0.5070760000000  0.4776240000000 1.0
C      1  0.4247910000000  0.4829550000000  0.5151670000000 1.0
C      1  0.4539390000000  0.4672650000000  0.4826850000000 1.0
C      1  0.5493690000000  0.5348880000000  0.5127570000000 1.0
C      1  0.5122290000000  0.5132530000000  0.5580990000000 1.0
C      1  0.4898540000000  0.4868250000000  0.4418010000000 1.0
C      1  0.4996990000000  0.4864840000000  0.5567740000000 1.0
C      1  0.5016510000000  0.5132720000000  0.4419840000000 1.0
C      1  0.5736390000000  0.4937340000000  0.5036640000000 1.0
C      1  0.4247410000000  0.5039210000000  0.4958730000000 1.0
C      1  0.4701290000000  0.5338470000000  0.5499270000000 1.0
C      1  0.5341740000000  0.4685520000000  0.4531050000000 1.0
C      1  0.5407670000000  0.4470990000000  0.5078520000000 1.0
C      1  0.4530230000000  0.5498440000000  0.4948430000000 1.0
C      1  0.4755930000000  0.5460130000000  0.4759840000000 1.0
C      1  0.5244210000000  0.4422540000000  0.5308570000000 1.0
C      1  0.5554010000000  0.5361180000000  0.4840550000000 1.0
C      1  0.4443870000000  0.4625390000000  0.5099930000000 1.0
C      1  0.4388790000000  0.5265260000000  0.5080200000000 1.0
C      1  0.5604070000000  0.4678910000000  0.5073650000000 1.0
C      1  0.5315730000000  0.4555850000000  0.5552060000000 1.0
C      1  0.4684640000000  0.5420880000000  0.4477560000000 1.0
C      1  0.4885360000000  0.4252660000000  0.4956370000000 1.0
C      1  0.5069410000000  0.5773120000000  0.4992670000000 1.0
C      1  0.4942670000000  0.4499160000000  0.5097970000000 1.0
C      1  0.5043210000000  0.5503450000000  0.4890490000000 1.0
C      1  0.4423890000000  0.5003220000000  0.4445340000000 1.0
C      1  0.5543170000000  0.5013570000000  0.5500600000000 1.0
C      1  0.5658420000000  0.5132280000000  0.5252980000000 1.0
C      1  0.4401020000000  0.4922000000000  0.4730730000000 1.0
C      1  0.4574750000000  0.5575390000000  0.5417090000000 1.0
C      1  0.5461360000000  0.4443420000000  0.4608650000000 1.0
C      1  0.5275730000000  0.5120400000000  0.5169530000000 1.0
C      1  0.4773960000000  0.4901560000000  0.4842620000000 1.0
C      1  0.5046450000000  0.4661990000000  0.4579420000000 1.0
C      1  0.4986650000000  0.5350890000000  0.5432620000000 1.0
C      1  0.5118380000000  0.4184310000000  0.4836520000000 1.0
C      1  0.4834700000000  0.5835750000000  0.5107900000000 1.0
END
