TITL C-3578199-7832-5 -3.52404240235182e-06 125000 -129.055948735503 0 0 22 (C1) n - 1
REM
REM in /home/bkarasulu/work/CARBON/AIRSS/Generating-Clusters/EDIP-Nigel-Params/with-SteepDescent/Higher-Symm/SD-CG/HFTN-CG
REM
REM
REM
REM
REM
REM ./C.cell (12c818d87b63d06a65506943cc24bca4)
REM
REM compiler GCC version 9.2.1 20190827 (Red Hat 9.2.1-1)
REM options -cpp -mtune=generic -march=x86-64 -g -O0 -fpre-include=/usr/include/finclude/math-vector-fortran.h
REM seed -1298805550 759028437 -1003300011 837017848 -1797501668 -1759471718 1760326919 -1211688715 1138469047 1768303273 -335606583 1583946080 389592227 -582371849 262766369 1520900892 -8660562 -1629771577 1863470818 -737764953 456473357 -1921537800 -424202566 1607508582 -1985260915 1998237654 796740720 554352594 -191422161 -340257517 -1203886198 -384829528 -1850960661
REM
CELL 1.54180   50.00000   50.00000   50.00000   90.00000   90.00000   90.00000
LATT -1
SFAC C  
C      1  0.5298360000000  0.5136180000000  0.5357100000000 1.0
C      1  0.5143530000000  0.4545180000000  0.4806890000000 1.0
C      1  0.5288330000000  0.5427310000000  0.4594970000000 1.0
C      1  0.5226830000000  0.4623520000000  0.5273160000000 1.0
C      1  0.5250090000000  0.4974400000000  0.4769180000000 1.0
C      1  0.5102380000000  0.5426520000000  0.4996660000000 1.0
C      1  0.4850080000000  0.5202540000000  0.5309890000000 1.0
C      1  0.4778550000000  0.4514070000000  0.5117080000000 1.0
C      1  0.4852640000000  0.5209160000000  0.4634250000000 1.0
C      1  0.5154430000000  0.5177530000000  0.4573410000000 1.0
C      1  0.5111960000000  0.5331850000000  0.5275740000000 1.0
C      1  0.5060910000000  0.4492330000000  0.5081360000000 1.0
C      1  0.4745790000000  0.4945010000000  0.4737540000000 1.0
C      1  0.4656680000000  0.5254690000000  0.5083840000000 1.0
C      1  0.4673550000000  0.4765370000000  0.5197010000000 1.0
C      1  0.4937450000000  0.4923350000000  0.5223930000000 1.0
C      1  0.4995240000000  0.4884940000000  0.4902540000000 1.0
C      1  0.4832760000000  0.5389650000000  0.4877770000000 1.0
C      1  0.5299660000000  0.4862280000000  0.5393960000000 1.0
C      1  0.5347760000000  0.4715400000000  0.4710490000000 1.0
C      1  0.5302730000000  0.5553580000000  0.4837870000000 1.0
C      1  0.4567690000000  0.4973670000000  0.4983610000000 1.0
END
