TITL C-3578198-8939-748 -3.21241306294446e-06 125000 -1076.69934682372 0 0 173 (C1) n - 1
REM
REM in /home/bkarasulu/work/CARBON/AIRSS/Generating-Clusters/EDIP-Nigel-Params/with-SteepDescent/Higher-Symm/SD-CG/HFTN-CG
REM
REM
REM
REM
REM
REM ./C.cell (12c818d87b63d06a65506943cc24bca4)
REM
REM compiler GCC version 9.2.1 20190827 (Red Hat 9.2.1-1)
REM options -cpp -mtune=generic -march=x86-64 -g -O0 -fpre-include=/usr/include/finclude/math-vector-fortran.h
REM seed -524684800 -1709978485 -1549600129 -296393021 -1315343487 712997474 -882127597 1148334713 205684731 -1808383066 973764242 1766947596 -1310169016 1410919191 -1429832499 -215961868 -883035057 -1731947428 1356901180 -508205852 985033554 652981184 -269716650 1403130248 1862742254 2008772567 1213647622 308243408 -417943473 -1689824479 -1732883796 -112319409 -1414258534
REM
CELL 1.54180   50.00000   50.00000   50.00000   90.00000   90.00000   90.00000
LATT -1
SFAC C  
C      1  0.5317290000000  0.4353900000000  0.5842820000000 1.0
C      1  0.4825150000000  0.4373120000000  0.5885220000000 1.0
C      1  0.4346250000000  0.4357070000000  0.5672030000000 1.0
C      1  0.4137130000000  0.4377270000000  0.5221330000000 1.0
C      1  0.4179380000000  0.4371710000000  0.4711190000000 1.0
C      1  0.4421160000000  0.4364010000000  0.4281750000000 1.0
C      1  0.4926840000000  0.4381420000000  0.4120920000000 1.0
C      1  0.5425550000000  0.4354610000000  0.4220030000000 1.0
C      1  0.5809540000000  0.4382340000000  0.4512310000000 1.0
C      1  0.5914610000000  0.4398990000000  0.5030720000000 1.0
C      1  0.5697210000000  0.4377950000000  0.5504120000000 1.0
C      1  0.4671350000000  0.3756120000000  0.4694260000000 1.0
C      1  0.4874560000000  0.3877110000000  0.4551380000000 1.0
C      1  0.5128350000000  0.3779560000000  0.4584560000000 1.0
C      1  0.5351930000000  0.3884410000000  0.4704020000000 1.0
C      1  0.5425440000000  0.3781520000000  0.4947130000000 1.0
C      1  0.5393620000000  0.3886410000000  0.5198220000000 1.0
C      1  0.5198320000000  0.3780500000000  0.5359420000000 1.0
C      1  0.4960840000000  0.3872530000000  0.5462190000000 1.0
C      1  0.4726780000000  0.3765110000000  0.5364770000000 1.0
C      1  0.4536980000000  0.3843290000000  0.5181170000000 1.0
C      1  0.4552040000000  0.3725540000000  0.4931340000000 1.0
C      1  0.4740600000000  0.5278990000000  0.3901590000000 1.0
C      1  0.5408880000000  0.5259050000000  0.3907290000000 1.0
C      1  0.5897380000000  0.5329170000000  0.4204160000000 1.0
C      1  0.6109060000000  0.5276110000000  0.4830160000000 1.0
C      1  0.5942720000000  0.5273560000000  0.5426550000000 1.0
C      1  0.5552440000000  0.5277740000000  0.5879120000000 1.0
C      1  0.4942450000000  0.5252680000000  0.6071890000000 1.0
C      1  0.4445460000000  0.5267950000000  0.5963680000000 1.0
C      1  0.3947770000000  0.5292890000000  0.5454720000000 1.0
C      1  0.3903110000000  0.5302980000000  0.4812840000000 1.0
C      1  0.4204740000000  0.5330440000000  0.4228550000000 1.0
C      1  0.5451230000000  0.5483950000000  0.4343260000000 1.0
C      1  0.5752510000000  0.5564600000000  0.4665690000000 1.0
C      1  0.5855180000000  0.5628050000000  0.5136660000000 1.0
C      1  0.5669440000000  0.5656060000000  0.5612800000000 1.0
C      1  0.5218340000000  0.5632700000000  0.5843020000000 1.0
C      1  0.4746420000000  0.5614460000000  0.5781820000000 1.0
C      1  0.4306030000000  0.5590890000000  0.5592000000000 1.0
C      1  0.4150910000000  0.5603990000000  0.5124590000000 1.0
C      1  0.4289340000000  0.5592910000000  0.4659190000000 1.0
C      1  0.4636640000000  0.5575230000000  0.4305400000000 1.0
C      1  0.5065770000000  0.5554310000000  0.4072410000000 1.0
C      1  0.5402320000000  0.4756300000000  0.5318250000000 1.0
C      1  0.5173410000000  0.4630300000000  0.5487070000000 1.0
C      1  0.4889450000000  0.4760660000000  0.5457650000000 1.0
C      1  0.4640500000000  0.4612290000000  0.5384920000000 1.0
C      1  0.4514800000000  0.4763420000000  0.5094890000000 1.0
C      1  0.4502960000000  0.4773230000000  0.4773480000000 1.0
C      1  0.4713760000000  0.4618520000000  0.4619650000000 1.0
C      1  0.4970750000000  0.4761750000000  0.4461110000000 1.0
C      1  0.5234200000000  0.4641270000000  0.4551410000000 1.0
C      1  0.5350120000000  0.4794520000000  0.4798440000000 1.0
C      1  0.5490520000000  0.4644210000000  0.5012210000000 1.0
C      1  0.4244840000000  0.4225760000000  0.5437990000000 1.0
C      1  0.4146910000000  0.4267180000000  0.4968070000000 1.0
C      1  0.4385940000000  0.4239550000000  0.4552420000000 1.0
C      1  0.4673370000000  0.4252550000000  0.4182650000000 1.0
C      1  0.5165080000000  0.4238110000000  0.4196960000000 1.0
C      1  0.5584680000000  0.4213010000000  0.4425450000000 1.0
C      1  0.5833810000000  0.4277020000000  0.4786240000000 1.0
C      1  0.5798710000000  0.4262930000000  0.5259260000000 1.0
C      1  0.5489970000000  0.4233340000000  0.5646680000000 1.0
C      1  0.5064800000000  0.4216500000000  0.5879340000000 1.0
C      1  0.4595240000000  0.4242660000000  0.5765870000000 1.0
C      1  0.5780480000000  0.5070400000000  0.4167700000000 1.0
C      1  0.6050650000000  0.5014590000000  0.4654770000000 1.0
C      1  0.5859530000000  0.5078500000000  0.5196300000000 1.0
C      1  0.5600770000000  0.5066040000000  0.5671970000000 1.0
C      1  0.5134230000000  0.5034300000000  0.6054660000000 1.0
C      1  0.4711130000000  0.4888950000000  0.5839750000000 1.0
C      1  0.4262210000000  0.5084720000000  0.5542050000000 1.0
C      1  0.4111440000000  0.5071720000000  0.5047700000000 1.0
C      1  0.4209890000000  0.5084560000000  0.4524850000000 1.0
C      1  0.4588870000000  0.5063280000000  0.4170640000000 1.0
C      1  0.5133460000000  0.5077700000000  0.4113340000000 1.0
C      1  0.3935730000000  0.5063910000000  0.4655300000000 1.0
C      1  0.4291590000000  0.5079370000000  0.4101160000000 1.0
C      1  0.4918480000000  0.5047200000000  0.3888550000000 1.0
C      1  0.5551460000000  0.5023900000000  0.3994000000000 1.0
C      1  0.6146920000000  0.4912650000000  0.4410220000000 1.0
C      1  0.6138830000000  0.5094020000000  0.5073750000000 1.0
C      1  0.5893380000000  0.5058600000000  0.5630140000000 1.0
C      1  0.5416880000000  0.5070970000000  0.6070090000000 1.0
C      1  0.4686460000000  0.5110010000000  0.6045190000000 1.0
C      1  0.4277520000000  0.5053570000000  0.5841880000000 1.0
C      1  0.3913770000000  0.5062470000000  0.5287450000000 1.0
C      1  0.4755450000000  0.4834440000000  0.4015380000000 1.0
C      1  0.5348750000000  0.4840400000000  0.4099930000000 1.0
C      1  0.5908530000000  0.4836900000000  0.4277690000000 1.0
C      1  0.6089830000000  0.4842480000000  0.4902590000000 1.0
C      1  0.5884680000000  0.4833140000000  0.5424250000000 1.0
C      1  0.5506820000000  0.4835390000000  0.5866750000000 1.0
C      1  0.5070890000000  0.4758910000000  0.6103360000000 1.0
C      1  0.4436360000000  0.4803720000000  0.5833180000000 1.0
C      1  0.4062400000000  0.4846560000000  0.5419410000000 1.0
C      1  0.4022970000000  0.4840410000000  0.4840040000000 1.0
C      1  0.4220200000000  0.4860670000000  0.4300010000000 1.0
C      1  0.4150890000000  0.5475550000000  0.5383280000000 1.0
C      1  0.4125470000000  0.5469990000000  0.4866550000000 1.0
C      1  0.4384050000000  0.5470450000000  0.4407610000000 1.0
C      1  0.4818820000000  0.5438760000000  0.4124630000000 1.0
C      1  0.5327830000000  0.5463610000000  0.4085820000000 1.0
C      1  0.5725550000000  0.5440850000000  0.4402910000000 1.0
C      1  0.5895980000000  0.5469190000000  0.4891920000000 1.0
C      1  0.5798760000000  0.5524280000000  0.5398690000000 1.0
C      1  0.5466390000000  0.5527590000000  0.5761240000000 1.0
C      1  0.4975140000000  0.5492260000000  0.5903790000000 1.0
C      1  0.4502360000000  0.5468650000000  0.5761050000000 1.0
C      1  0.4546630000000  0.6012170000000  0.4799340000000 1.0
C      1  0.4728230000000  0.6002710000000  0.4578250000000 1.0
C      1  0.5106490000000  0.6029760000000  0.4547240000000 1.0
C      1  0.5351140000000  0.6097540000000  0.4652320000000 1.0
C      1  0.5498930000000  0.5944400000000  0.4827880000000 1.0
C      1  0.5487700000000  0.6019590000000  0.5095360000000 1.0
C      1  0.5320590000000  0.5925300000000  0.5300440000000 1.0
C      1  0.5064330000000  0.6076390000000  0.5296130000000 1.0
C      1  0.4847530000000  0.5969830000000  0.5468940000000 1.0
C      1  0.4606690000000  0.6077240000000  0.5376850000000 1.0
C      1  0.4442140000000  0.6011550000000  0.5166290000000 1.0
C      1  0.4419990000000  0.5720110000000  0.5117980000000 1.0
C      1  0.4489490000000  0.5725810000000  0.4828510000000 1.0
C      1  0.4788550000000  0.5725040000000  0.4501280000000 1.0
C      1  0.5075800000000  0.5750530000000  0.4467900000000 1.0
C      1  0.5277300000000  0.5536550000000  0.4574600000000 1.0
C      1  0.5493640000000  0.5646760000000  0.4788040000000 1.0
C      1  0.5491950000000  0.5507150000000  0.5082750000000 1.0
C      1  0.5275470000000  0.5637830000000  0.5260250000000 1.0
C      1  0.5121290000000  0.5508490000000  0.5486730000000 1.0
C      1  0.4834560000000  0.5665990000000  0.5504530000000 1.0
C      1  0.4591640000000  0.5525180000000  0.5332730000000 1.0
C      1  0.5645500000000  0.4668880000000  0.5483260000000 1.0
C      1  0.5267450000000  0.4645550000000  0.5797090000000 1.0
C      1  0.4856840000000  0.4658760000000  0.5953190000000 1.0
C      1  0.4402150000000  0.4636600000000  0.5593160000000 1.0
C      1  0.4176190000000  0.4665570000000  0.5216700000000 1.0
C      1  0.4226120000000  0.4668050000000  0.4684690000000 1.0
C      1  0.4433340000000  0.4654280000000  0.4351420000000 1.0
C      1  0.4945730000000  0.4673630000000  0.4170330000000 1.0
C      1  0.5439110000000  0.4639050000000  0.4315060000000 1.0
C      1  0.5726410000000  0.4656290000000  0.4418720000000 1.0
C      1  0.5873530000000  0.4682070000000  0.5010200000000 1.0
C      1  0.4696790000000  0.4236810000000  0.4956510000000 1.0
C      1  0.4659650000000  0.4311140000000  0.4669370000000 1.0
C      1  0.4868230000000  0.4170870000000  0.4504240000000 1.0
C      1  0.5156030000000  0.4326850000000  0.4572150000000 1.0
C      1  0.5400840000000  0.4175190000000  0.4667360000000 1.0
C      1  0.5488150000000  0.4329510000000  0.4950770000000 1.0
C      1  0.5425360000000  0.4179040000000  0.5219290000000 1.0
C      1  0.5195980000000  0.4320670000000  0.5416540000000 1.0
C      1  0.4950600000000  0.4163080000000  0.5519630000000 1.0
C      1  0.4681020000000  0.4296220000000  0.5394220000000 1.0
C      1  0.4505510000000  0.4139220000000  0.5168940000000 1.0
C      1  0.4541740000000  0.5187110000000  0.5374990000000 1.0
C      1  0.4439050000000  0.5072760000000  0.5093280000000 1.0
C      1  0.4492410000000  0.5077110000000  0.4690770000000 1.0
C      1  0.4695180000000  0.5158200000000  0.4447190000000 1.0
C      1  0.4998760000000  0.5081130000000  0.4437040000000 1.0
C      1  0.5181290000000  0.5243180000000  0.4646460000000 1.0
C      1  0.5365410000000  0.5086130000000  0.4825860000000 1.0
C      1  0.5506170000000  0.5192600000000  0.5087240000000 1.0
C      1  0.5377210000000  0.5072360000000  0.5353980000000 1.0
C      1  0.5102100000000  0.5203710000000  0.5439610000000 1.0
C      1  0.4835330000000  0.5051220000000  0.5507310000000 1.0
C      1  0.4953150000000  0.4301300000000  0.5045900000000 1.0
C      1  0.4968150000000  0.6041260000000  0.5033160000000 1.0
C      1  0.4917850000000  0.5796310000000  0.4920590000000 1.0
C      1  0.4934830000000  0.4794500000000  0.4955210000000 1.0
C      1  0.5016070000000  0.4539330000000  0.4936140000000 1.0
C      1  0.4808990000000  0.5298940000000  0.5027990000000 1.0
C      1  0.4846970000000  0.5047730000000  0.4939560000000 1.0
C      1  0.4903090000000  0.5550420000000  0.5037070000000 1.0
END
