TITL C-3577078-809-745 -4.7951522155635e-08 125000 -695.531229009203 0 0 112 (C1) n - 1
REM
REM in /home/bkarasulu/work/CARBON/AIRSS/Generating-Clusters/EDIP-Nigel-Params/with-SteepDescent/Higher-Symm/SD-CG/HFTN-CG
REM
REM
REM
REM
REM
REM ./C.cell (12c818d87b63d06a65506943cc24bca4)
REM
REM compiler GCC version 9.2.1 20190827 (Red Hat 9.2.1-1)
REM options -cpp -mtune=generic -march=x86-64 -g -O0 -fpre-include=/usr/include/finclude/math-vector-fortran.h
REM seed 1127019651 -547220514 1380301833 -2021571983 591456978 1052886292 177831601 -1097818320 1312549240 -201181264 -326800285 -1969202610 1265856672 -641850368 -590478429 -135481014 -1390706835 1722636345 440917848 1242009416 7807298 603154495 1226509049 1739418507 -2101082329 1761286615 474199021 -186049124 1086368459 781013396 43679288 -1904873036 -1084276138
REM
CELL 1.54180   50.00000   50.00000   50.00000   90.00000   90.00000   90.00000
LATT -1
SFAC C  
C      1  0.5047090000000  0.5459630000000  0.5212380000000 1.0
C      1  0.5184200000000  0.5044970000000  0.5485420000000 1.0
C      1  0.5459680000000  0.5174790000000  0.5075290000000 1.0
C      1  0.4949330000000  0.4496690000000  0.5108140000000 1.0
C      1  0.4928970000000  0.5450330000000  0.4886720000000 1.0
C      1  0.5081410000000  0.4564330000000  0.4791310000000 1.0
C      1  0.4873760000000  0.4885910000000  0.5462780000000 1.0
C      1  0.4878620000000  0.5088690000000  0.4522620000000 1.0
C      1  0.5209760000000  0.4985570000000  0.4504720000000 1.0
C      1  0.4552540000000  0.4778260000000  0.5055290000000 1.0
C      1  0.4545340000000  0.5075850000000  0.4926690000000 1.0
C      1  0.5471870000000  0.4873960000000  0.4925980000000 1.0
C      1  0.5246080000000  0.4310140000000  0.4731820000000 1.0
C      1  0.4708810000000  0.5273350000000  0.4311740000000 1.0
C      1  0.4296550000000  0.4750970000000  0.5238390000000 1.0
C      1  0.4765040000000  0.5702150000000  0.4751470000000 1.0
C      1  0.4762320000000  0.4243620000000  0.5216150000000 1.0
C      1  0.5206620000000  0.5730810000000  0.5239150000000 1.0
C      1  0.5246060000000  0.4804300000000  0.4245640000000 1.0
C      1  0.5222620000000  0.5220900000000  0.5753580000000 1.0
C      1  0.4785960000000  0.4748270000000  0.5743980000000 1.0
C      1  0.5726400000000  0.5228850000000  0.5235850000000 1.0
C      1  0.5744990000000  0.4790330000000  0.4782420000000 1.0
C      1  0.4211080000000  0.5189550000000  0.4762650000000 1.0
C      1  0.5443790000000  0.4546010000000  0.5135100000000 1.0
C      1  0.5159700000000  0.5417250000000  0.4429140000000 1.0
C      1  0.4598150000000  0.5095160000000  0.5442030000000 1.0
C      1  0.4569150000000  0.5534420000000  0.5130890000000 1.0
C      1  0.4478490000000  0.4512730000000  0.4854690000000 1.0
C      1  0.5466130000000  0.5414990000000  0.4869960000000 1.0
C      1  0.4867090000000  0.4554350000000  0.4561070000000 1.0
C      1  0.4857390000000  0.5510710000000  0.5485570000000 1.0
C      1  0.5134920000000  0.4541250000000  0.5561470000000 1.0
C      1  0.5470060000000  0.4859260000000  0.5526920000000 1.0
C      1  0.5531400000000  0.5148910000000  0.4468060000000 1.0
C      1  0.4436730000000  0.4869500000000  0.4553000000000 1.0
C      1  0.4920770000000  0.5114640000000  0.6057820000000 1.0
C      1  0.6037180000000  0.4932070000000  0.5131360000000 1.0
C      1  0.5114860000000  0.5986450000000  0.4894320000000 1.0
C      1  0.5064340000000  0.4882140000000  0.6060820000000 1.0
C      1  0.5109710000000  0.5102550000000  0.3945750000000 1.0
C      1  0.4909460000000  0.4926060000000  0.3989220000000 1.0
C      1  0.3988730000000  0.5060860000000  0.5167140000000 1.0
C      1  0.4017980000000  0.4995150000000  0.4890740000000 1.0
C      1  0.6056570000000  0.5079670000000  0.4901770000000 1.0
C      1  0.4891830000000  0.3951920000000  0.4912340000000 1.0
C      1  0.4897820000000  0.5994150000000  0.5057430000000 1.0
C      1  0.5091130000000  0.3966730000000  0.5096090000000 1.0
C      1  0.4566280000000  0.4926910000000  0.5855940000000 1.0
C      1  0.5849590000000  0.4553060000000  0.4939670000000 1.0
C      1  0.4933310000000  0.5817180000000  0.4523570000000 1.0
C      1  0.5455010000000  0.5096760000000  0.5902380000000 1.0
C      1  0.5500870000000  0.4897080000000  0.4102440000000 1.0
C      1  0.4509140000000  0.5101870000000  0.4170530000000 1.0
C      1  0.4155710000000  0.5441910000000  0.4933370000000 1.0
C      1  0.4112070000000  0.4554230000000  0.5103550000000 1.0
C      1  0.5856110000000  0.5457670000000  0.5084490000000 1.0
C      1  0.5079250000000  0.4161460000000  0.4529330000000 1.0
C      1  0.5089900000000  0.5889280000000  0.5471800000000 1.0
C      1  0.4910400000000  0.4135960000000  0.5465150000000 1.0
C      1  0.4952950000000  0.4344710000000  0.5678140000000 1.0
C      1  0.5701920000000  0.4952590000000  0.4321970000000 1.0
C      1  0.4371770000000  0.5645090000000  0.4945500000000 1.0
C      1  0.5030920000000  0.5670220000000  0.5671520000000 1.0
C      1  0.5002410000000  0.4389380000000  0.4348270000000 1.0
C      1  0.4987370000000  0.5618510000000  0.4305830000000 1.0
C      1  0.4292030000000  0.5028330000000  0.4359140000000 1.0
C      1  0.4392310000000  0.4960510000000  0.5616530000000 1.0
C      1  0.5653180000000  0.5041690000000  0.5680530000000 1.0
C      1  0.5617770000000  0.4365480000000  0.4971130000000 1.0
C      1  0.5619250000000  0.5630510000000  0.5018120000000 1.0
C      1  0.4312910000000  0.4335100000000  0.5033130000000 1.0
C      1  0.4691250000000  0.4368970000000  0.4698860000000 1.0
C      1  0.4719670000000  0.4827510000000  0.4452980000000 1.0
C      1  0.4295960000000  0.4646460000000  0.4668070000000 1.0
C      1  0.5196580000000  0.5514750000000  0.4718500000000 1.0
C      1  0.5193620000000  0.4429010000000  0.5283180000000 1.0
C      1  0.4659960000000  0.5691900000000  0.5361450000000 1.0
C      1  0.5392050000000  0.5323810000000  0.4279160000000 1.0
C      1  0.5354280000000  0.4663790000000  0.5714770000000 1.0
C      1  0.4734000000000  0.5277090000000  0.5618800000000 1.0
C      1  0.5662820000000  0.5312250000000  0.4683010000000 1.0
C      1  0.5611340000000  0.4716720000000  0.5301350000000 1.0
C      1  0.4471530000000  0.5248550000000  0.5181460000000 1.0
C      1  0.4719770000000  0.4470160000000  0.5768940000000 1.0
C      1  0.5755540000000  0.4747150000000  0.4501730000000 1.0
C      1  0.4484670000000  0.5711170000000  0.4698030000000 1.0
C      1  0.5240560000000  0.5503830000000  0.5747240000000 1.0
C      1  0.5217440000000  0.4525050000000  0.4241950000000 1.0
C      1  0.4759060000000  0.5518640000000  0.4182180000000 1.0
C      1  0.4156270000000  0.5241180000000  0.4479970000000 1.0
C      1  0.4300200000000  0.4717540000000  0.5517820000000 1.0
C      1  0.5726170000000  0.5255790000000  0.5517570000000 1.0
C      1  0.5522520000000  0.4270170000000  0.4727320000000 1.0
C      1  0.5487220000000  0.5731990000000  0.5238840000000 1.0
C      1  0.4479360000000  0.4245150000000  0.5237500000000 1.0
C      1  0.4687570000000  0.4860410000000  0.4146060000000 1.0
C      1  0.4054510000000  0.4701290000000  0.4839070000000 1.0
C      1  0.4825370000000  0.4098030000000  0.4680750000000 1.0
C      1  0.5373440000000  0.5164200000000  0.4022350000000 1.0
C      1  0.5326600000000  0.4829390000000  0.5970170000000 1.0
C      1  0.4700710000000  0.5188920000000  0.5900700000000 1.0
C      1  0.5929990000000  0.5320480000000  0.4826010000000 1.0
C      1  0.5890230000000  0.4700620000000  0.5195890000000 1.0
C      1  0.4160230000000  0.5286570000000  0.5193160000000 1.0
C      1  0.5187090000000  0.5823930000000  0.4680310000000 1.0
C      1  0.5175030000000  0.4117630000000  0.5316320000000 1.0
C      1  0.4826950000000  0.5944980000000  0.5325670000000 1.0
C      1  0.4807250000000  0.5179120000000  0.4803360000000 1.0
C      1  0.4811160000000  0.4738190000000  0.5203260000000 1.0
C      1  0.5237350000000  0.4821530000000  0.4754410000000 1.0
C      1  0.5219660000000  0.5216510000000  0.5247960000000 1.0
END
