TITL C-3577077-324-534 -5.35380416118326e-06 125000 -754.459789046391 0 0 121 (C1) n - 1
REM
REM in /home/bkarasulu/work/CARBON/AIRSS/Generating-Clusters/EDIP-Nigel-Params/with-SteepDescent/Higher-Symm/SD-CG/HFTN-CG
REM
REM
REM
REM
REM
REM ./C.cell (12c818d87b63d06a65506943cc24bca4)
REM
REM compiler GCC version 9.2.1 20190827 (Red Hat 9.2.1-1)
REM options -cpp -mtune=generic -march=x86-64 -g -O0 -fpre-include=/usr/include/finclude/math-vector-fortran.h
REM seed 2052011246 -1607036416 -789765323 -1767695698 2001276126 -14975451 1519223357 533380445 705605818 1926673079 1703581683 -1395909547 -1819067843 481289577 190217127 644236682 794747079 -904728415 -451642893 1456574406 1421559050 855316033 1274130594 1223978557 1996916961 1724593487 1329379636 -1152063972 242610794 -1132711173 -1230494237 -1902366881 -2113839315
REM
CELL 1.54180   50.00000   50.00000   50.00000   90.00000   90.00000   90.00000
LATT -1
SFAC C  
C      1  0.4839940000000  0.5922830000000  0.4743100000000 1.0
C      1  0.4702600000000  0.5486500000000  0.4484450000000 1.0
C      1  0.5819090000000  0.5179480000000  0.4675130000000 1.0
C      1  0.5190960000000  0.5715480000000  0.5400060000000 1.0
C      1  0.4387490000000  0.5030250000000  0.4345620000000 1.0
C      1  0.5146630000000  0.4725590000000  0.4575410000000 1.0
C      1  0.4553570000000  0.4529930000000  0.4382290000000 1.0
C      1  0.5830410000000  0.4899040000000  0.4616420000000 1.0
C      1  0.4351540000000  0.4750570000000  0.4421230000000 1.0
C      1  0.4996530000000  0.4645480000000  0.5821130000000 1.0
C      1  0.5384490000000  0.5978750000000  0.5068740000000 1.0
C      1  0.4618680000000  0.5224520000000  0.4920570000000 1.0
C      1  0.4726360000000  0.5365860000000  0.4210790000000 1.0
C      1  0.4869320000000  0.4272630000000  0.4545990000000 1.0
C      1  0.4976420000000  0.4799410000000  0.5089810000000 1.0
C      1  0.4234870000000  0.4360520000000  0.4685030000000 1.0
C      1  0.4283490000000  0.4664530000000  0.4711010000000 1.0
C      1  0.5188180000000  0.4770710000000  0.5613630000000 1.0
C      1  0.4951120000000  0.5892460000000  0.5378900000000 1.0
C      1  0.4536190000000  0.4027830000000  0.4628800000000 1.0
C      1  0.4662370000000  0.5895330000000  0.4964180000000 1.0
C      1  0.5261560000000  0.4347530000000  0.4815990000000 1.0
C      1  0.5634260000000  0.5219060000000  0.4220250000000 1.0
C      1  0.4538190000000  0.4926050000000  0.4963500000000 1.0
C      1  0.4543250000000  0.5161230000000  0.4158670000000 1.0
C      1  0.4807210000000  0.4233900000000  0.5077720000000 1.0
C      1  0.4937810000000  0.5078220000000  0.6052550000000 1.0
C      1  0.5708940000000  0.4485230000000  0.5107560000000 1.0
C      1  0.4383940000000  0.5798400000000  0.4709800000000 1.0
C      1  0.4163790000000  0.5308000000000  0.4694430000000 1.0
C      1  0.5845090000000  0.4951420000000  0.5051870000000 1.0
C      1  0.5018950000000  0.5492010000000  0.5804040000000 1.0
C      1  0.4823330000000  0.3983290000000  0.4591880000000 1.0
C      1  0.4905780000000  0.3947250000000  0.5084700000000 1.0
C      1  0.4711260000000  0.5732950000000  0.5472780000000 1.0
C      1  0.5308920000000  0.5186250000000  0.4604780000000 1.0
C      1  0.4395760000000  0.5815700000000  0.4991630000000 1.0
C      1  0.5737110000000  0.4912170000000  0.5307860000000 1.0
C      1  0.5411570000000  0.4571390000000  0.5038450000000 1.0
C      1  0.4744640000000  0.4701880000000  0.5686870000000 1.0
C      1  0.5125820000000  0.4271640000000  0.4372660000000 1.0
C      1  0.5400720000000  0.3986190000000  0.5101680000000 1.0
C      1  0.4177810000000  0.4735820000000  0.5604860000000 1.0
C      1  0.4113570000000  0.4851010000000  0.4882970000000 1.0
C      1  0.5125670000000  0.5531350000000  0.4935800000000 1.0
C      1  0.5687390000000  0.5636470000000  0.5270900000000 1.0
C      1  0.4409120000000  0.5561290000000  0.4546440000000 1.0
C      1  0.5004720000000  0.5289070000000  0.4163000000000 1.0
C      1  0.4765240000000  0.5329380000000  0.5190670000000 1.0
C      1  0.4321160000000  0.4193870000000  0.4905150000000 1.0
C      1  0.5297060000000  0.4042390000000  0.4827040000000 1.0
C      1  0.4952660000000  0.4376670000000  0.4829910000000 1.0
C      1  0.5237960000000  0.5634970000000  0.5683140000000 1.0
C      1  0.4345350000000  0.5239510000000  0.5604430000000 1.0
C      1  0.4901340000000  0.4345110000000  0.5336150000000 1.0
C      1  0.4793680000000  0.4596000000000  0.4224480000000 1.0
C      1  0.4660790000000  0.5136680000000  0.5962140000000 1.0
C      1  0.4217570000000  0.4674040000000  0.5348900000000 1.0
C      1  0.4433510000000  0.4269410000000  0.4483200000000 1.0
C      1  0.4789290000000  0.5000860000000  0.5629140000000 1.0
C      1  0.4697570000000  0.4533550000000  0.5448040000000 1.0
C      1  0.4442410000000  0.4487470000000  0.5304720000000 1.0
C      1  0.5069980000000  0.5000180000000  0.4132550000000 1.0
C      1  0.5461600000000  0.5837760000000  0.5310450000000 1.0
C      1  0.5344520000000  0.5042730000000  0.5140780000000 1.0
C      1  0.4723400000000  0.4977220000000  0.4514210000000 1.0
C      1  0.5486620000000  0.5481300000000  0.5721420000000 1.0
C      1  0.5251370000000  0.5794560000000  0.4843830000000 1.0
C      1  0.5148610000000  0.5728370000000  0.4387070000000 1.0
C      1  0.5738840000000  0.5116270000000  0.5515890000000 1.0
C      1  0.5116190000000  0.6101690000000  0.5112200000000 1.0
C      1  0.4554120000000  0.5335040000000  0.5774140000000 1.0
C      1  0.5219910000000  0.5481740000000  0.4233900000000 1.0
C      1  0.5747510000000  0.5448530000000  0.4745220000000 1.0
C      1  0.5331780000000  0.4922980000000  0.4073290000000 1.0
C      1  0.4940640000000  0.4830690000000  0.4342880000000 1.0
C      1  0.5462550000000  0.4751860000000  0.5735640000000 1.0
C      1  0.5199880000000  0.4650850000000  0.5286180000000 1.0
C      1  0.5404760000000  0.4348430000000  0.5423290000000 1.0
C      1  0.5588860000000  0.4950280000000  0.4174520000000 1.0
C      1  0.5380860000000  0.5788190000000  0.4571420000000 1.0
C      1  0.5443780000000  0.5357580000000  0.4387390000000 1.0
C      1  0.5122530000000  0.5467900000000  0.5223980000000 1.0
C      1  0.5588690000000  0.5574640000000  0.4526770000000 1.0
C      1  0.5126350000000  0.5214750000000  0.5857180000000 1.0
C      1  0.5575830000000  0.4203010000000  0.5221630000000 1.0
C      1  0.4971160000000  0.4386630000000  0.4169210000000 1.0
C      1  0.5083410000000  0.5052030000000  0.5609900000000 1.0
C      1  0.4696410000000  0.4834460000000  0.5205220000000 1.0
C      1  0.5651280000000  0.5510960000000  0.5009230000000 1.0
C      1  0.4211940000000  0.4914030000000  0.5170690000000 1.0
C      1  0.5596960000000  0.4532070000000  0.5584570000000 1.0
C      1  0.5032920000000  0.6109770000000  0.4832920000000 1.0
C      1  0.5133120000000  0.4201660000000  0.5452690000000 1.0
C      1  0.5289520000000  0.4455120000000  0.4530610000000 1.0
C      1  0.5147800000000  0.3958050000000  0.5273500000000 1.0
C      1  0.5653170000000  0.4795330000000  0.4410230000000 1.0
C      1  0.4676550000000  0.5082460000000  0.5363680000000 1.0
C      1  0.5388430000000  0.4908330000000  0.4649060000000 1.0
C      1  0.5082860000000  0.5266150000000  0.4790600000000 1.0
C      1  0.4764950000000  0.5510220000000  0.5663570000000 1.0
C      1  0.4792980000000  0.5245550000000  0.4667080000000 1.0
C      1  0.5608650000000  0.5389580000000  0.5460900000000 1.0
C      1  0.5082440000000  0.5068100000000  0.5026980000000 1.0
C      1  0.5769770000000  0.4633600000000  0.5367350000000 1.0
C      1  0.4511720000000  0.4311440000000  0.5078900000000 1.0
C      1  0.4996820000000  0.4800560000000  0.6059030000000 1.0
C      1  0.5481050000000  0.4862360000000  0.4946000000000 1.0
C      1  0.5609690000000  0.5018330000000  0.5768650000000 1.0
C      1  0.4934750000000  0.4674050000000  0.4816670000000 1.0
C      1  0.5018880000000  0.3892060000000  0.4812050000000 1.0
C      1  0.4247240000000  0.5192330000000  0.5339390000000 1.0
C      1  0.5388990000000  0.5318470000000  0.5226690000000 1.0
C      1  0.4366100000000  0.5395270000000  0.4893730000000 1.0
C      1  0.5878980000000  0.4734650000000  0.4862630000000 1.0
C      1  0.4891790000000  0.5718600000000  0.4534320000000 1.0
C      1  0.5434630000000  0.5240020000000  0.5888910000000 1.0
C      1  0.4572400000000  0.5582230000000  0.5243790000000 1.0
C      1  0.4032380000000  0.5074060000000  0.4743390000000 1.0
C      1  0.4277960000000  0.5438510000000  0.5186670000000 1.0
C      1  0.4661060000000  0.4774080000000  0.4732330000000 1.0
END
