TITL C-3577090-796-386 -1.0429602697893e-06 125000 -110.099294184348 0 0 19 (C2) n - 1
REM
REM in /home/bkarasulu/work/CARBON/AIRSS/Generating-Clusters/EDIP-Nigel-Params/with-SteepDescent/Higher-Symm/SD-CG/HFTN-CG
REM
REM
REM
REM
REM
REM ./C.cell (12c818d87b63d06a65506943cc24bca4)
REM
REM compiler GCC version 9.2.1 20190827 (Red Hat 9.2.1-1)
REM options -cpp -mtune=generic -march=x86-64 -g -O0 -fpre-include=/usr/include/finclude/math-vector-fortran.h
REM seed -572754422 193389468 1130277098 1697604341 -2128281998 788693111 2025105582 1687331479 689222444 657212547 -856859428 406975554 122229085 -1111974445 -855817235 191440009 249282640 977957166 -594114916 1566185424 -1066836938 -2102572457 -180892408 887168517 231046711 995130969 -1972731565 -2145313897 -1786124063 -1317218072 -1376304857 -299501998 915747092
REM
CELL 1.54180   50.00000   50.00000   50.00000   90.00000   90.00000   90.00000
LATT -1
SFAC C  
C      1  0.5009530000000  0.4526970000000  0.5181500000000 1.0
C      1  0.4646150000000  0.4845130000000  0.5177320000000 1.0
C      1  0.5048000000000  0.5468110000000  0.5166180000000 1.0
C      1  0.5207540000000  0.5239010000000  0.5102650000000 1.0
C      1  0.5233910000000  0.5005600000000  0.5274120000000 1.0
C      1  0.5009510000000  0.5471460000000  0.4778870000000 1.0
C      1  0.4648250000000  0.5150860000000  0.4777380000000 1.0
C      1  0.5054050000000  0.4530600000000  0.4794840000000 1.0
C      1  0.5211040000000  0.4760770000000  0.4860840000000 1.0
C      1  0.5238520000000  0.4994350000000  0.4689790000000 1.0
C      1  0.5335170000000  0.5206210000000  0.4851010000000 1.0
C      1  0.5334500000000  0.4794410000000  0.5114450000000 1.0
C      1  0.4560960000000  0.4997710000000  0.4976670000000 1.0
C      1  0.4907320000000  0.5625150000000  0.4987530000000 1.0
C      1  0.4911650000000  0.4372610000000  0.4971280000000 1.0
C      1  0.4873860000000  0.5249530000000  0.4650400000000 1.0
C      1  0.4870400000000  0.4747980000000  0.5307820000000 1.0
C      1  0.5026920000000  0.4934090000000  0.5450000000000 1.0
C      1  0.5033830000000  0.5064480000000  0.4510700000000 1.0
END
