TITL C-3577090-796-78 -7.47716469557857e-07 125000 -1142.48017081886 0 0 179 (C1) n - 1
REM
REM in /home/bkarasulu/work/CARBON/AIRSS/Generating-Clusters/EDIP-Nigel-Params/with-SteepDescent/Higher-Symm/SD-CG/HFTN-CG
REM
REM
REM
REM
REM
REM ./C.cell (12c818d87b63d06a65506943cc24bca4)
REM
REM compiler GCC version 9.2.1 20190827 (Red Hat 9.2.1-1)
REM options -cpp -mtune=generic -march=x86-64 -g -O0 -fpre-include=/usr/include/finclude/math-vector-fortran.h
REM seed 1819810124 -2145933082 379679996 1814107298 -1056243074 -1498043458 -686100956 -773918797 1723351949 -2079266672 507502042 -609293753 1761069709 787924062 341971889 1062649934 2126370010 1720623106 -611827579 -1071378406 1654397741 -1025704919 761023502 -869138037 -252417586 -598274275 -1113821332 190940462 859368303 -494093629 1655903759 -356480126 402319515
REM
CELL 1.54180   50.00000   50.00000   50.00000   90.00000   90.00000   90.00000
LATT -1
SFAC C  
C      1  0.5322630000000  0.4988370000000  0.5383570000000 1.0
C      1  0.5544280000000  0.4961650000000  0.4742620000000 1.0
C      1  0.5030610000000  0.4956570000000  0.4422890000000 1.0
C      1  0.4379270000000  0.4994650000000  0.4829780000000 1.0
C      1  0.4645600000000  0.4995760000000  0.5482120000000 1.0
C      1  0.3888970000000  0.4584210000000  0.5013210000000 1.0
C      1  0.4642650000000  0.4565920000000  0.5997860000000 1.0
C      1  0.5812140000000  0.4567020000000  0.5581400000000 1.0
C      1  0.5921140000000  0.4567610000000  0.4314630000000 1.0
C      1  0.4735590000000  0.4548150000000  0.4024800000000 1.0
C      1  0.4939470000000  0.4579830000000  0.6124440000000 1.0
C      1  0.6042390000000  0.4556790000000  0.5369340000000 1.0
C      1  0.5770150000000  0.4582670000000  0.4046080000000 1.0
C      1  0.4422250000000  0.4556460000000  0.4061390000000 1.0
C      1  0.3858770000000  0.4592770000000  0.5318880000000 1.0
C      1  0.4199330000000  0.4446790000000  0.4482190000000 1.0
C      1  0.4175050000000  0.4454440000000  0.5689510000000 1.0
C      1  0.5380450000000  0.4455440000000  0.5919960000000 1.0
C      1  0.6034070000000  0.4420000000000  0.4903990000000 1.0
C      1  0.5283910000000  0.4428580000000  0.3958800000000 1.0
C      1  0.5093160000000  0.4829630000000  0.6059390000000 1.0
C      1  0.6065910000000  0.4798720000000  0.5195160000000 1.0
C      1  0.5592650000000  0.4825680000000  0.4017590000000 1.0
C      1  0.4316880000000  0.4809980000000  0.4186960000000 1.0
C      1  0.3988420000000  0.4835600000000  0.5435710000000 1.0
C      1  0.5038950000000  0.4326320000000  0.4117410000000 1.0
C      1  0.4310660000000  0.4388220000000  0.4750170000000 1.0
C      1  0.4455170000000  0.4345610000000  0.5740800000000 1.0
C      1  0.5499540000000  0.4357580000000  0.5649800000000 1.0
C      1  0.5776210000000  0.4379160000000  0.4759350000000 1.0
C      1  0.5228970000000  0.6201340000000  0.4902170000000 1.0
C      1  0.4974300000000  0.6183040000000  0.4745440000000 1.0
C      1  0.4745460000000  0.6197970000000  0.4933050000000 1.0
C      1  0.4854510000000  0.6216850000000  0.5207630000000 1.0
C      1  0.5152550000000  0.6214800000000  0.5191370000000 1.0
C      1  0.5337520000000  0.4736630000000  0.5925320000000 1.0
C      1  0.6108630000000  0.4704840000000  0.4914980000000 1.0
C      1  0.5319730000000  0.4713980000000  0.3986330000000 1.0
C      1  0.4177510000000  0.4731240000000  0.4432020000000 1.0
C      1  0.4185200000000  0.4733690000000  0.5627690000000 1.0
C      1  0.5028790000000  0.5793630000000  0.4166120000000 1.0
C      1  0.4190820000000  0.5821940000000  0.4712540000000 1.0
C      1  0.4458920000000  0.5858210000000  0.5668300000000 1.0
C      1  0.5449830000000  0.5798950000000  0.5688460000000 1.0
C      1  0.5813180000000  0.5809510000000  0.4770090000000 1.0
C      1  0.5166810000000  0.4494910000000  0.5241230000000 1.0
C      1  0.5336620000000  0.4502210000000  0.4945620000000 1.0
C      1  0.5118990000000  0.4479580000000  0.4655160000000 1.0
C      1  0.4835050000000  0.4477900000000  0.4816970000000 1.0
C      1  0.4677440000000  0.4512600000000  0.5295840000000 1.0
C      1  0.4488820000000  0.4819160000000  0.6056070000000 1.0
C      1  0.5814200000000  0.4832320000000  0.5734300000000 1.0
C      1  0.6105710000000  0.4750760000000  0.4417250000000 1.0
C      1  0.4807330000000  0.4789210000000  0.3860740000000 1.0
C      1  0.3796320000000  0.4831830000000  0.4886070000000 1.0
C      1  0.4827450000000  0.4564990000000  0.4330820000000 1.0
C      1  0.4192060000000  0.4530910000000  0.4996080000000 1.0
C      1  0.4765330000000  0.4576740000000  0.5718050000000 1.0
C      1  0.5569960000000  0.4587920000000  0.5408070000000 1.0
C      1  0.5695110000000  0.4510430000000  0.4494690000000 1.0
C      1  0.4886310000000  0.4849420000000  0.5620100000000 1.0
C      1  0.5560370000000  0.4842610000000  0.5244270000000 1.0
C      1  0.5498890000000  0.4796740000000  0.4491780000000 1.0
C      1  0.4755230000000  0.4839860000000  0.4471330000000 1.0
C      1  0.4329090000000  0.4834200000000  0.5082990000000 1.0
C      1  0.5276620000000  0.4252530000000  0.5441960000000 1.0
C      1  0.5541670000000  0.4256240000000  0.4897510000000 1.0
C      1  0.5102940000000  0.4232790000000  0.4433770000000 1.0
C      1  0.4586740000000  0.4255640000000  0.4777300000000 1.0
C      1  0.4585360000000  0.4267200000000  0.5456660000000 1.0
C      1  0.5610500000000  0.4098600000000  0.5136680000000 1.0
C      1  0.5371210000000  0.4115970000000  0.4449930000000 1.0
C      1  0.4663780000000  0.4096640000000  0.4543110000000 1.0
C      1  0.4409020000000  0.4128710000000  0.5256790000000 1.0
C      1  0.5049680000000  0.4128730000000  0.5591590000000 1.0
C      1  0.4184480000000  0.4308580000000  0.5205110000000 1.0
C      1  0.4948510000000  0.4256830000000  0.5817930000000 1.0
C      1  0.5864090000000  0.4113210000000  0.5243190000000 1.0
C      1  0.5571470000000  0.4289490000000  0.4333270000000 1.0
C      1  0.4613730000000  0.4246140000000  0.4316070000000 1.0
C      1  0.4117420000000  0.5097380000000  0.4733620000000 1.0
C      1  0.4462180000000  0.5107690000000  0.5721490000000 1.0
C      1  0.5467910000000  0.5102890000000  0.5653010000000 1.0
C      1  0.5853550000000  0.5067980000000  0.4680950000000 1.0
C      1  0.5019200000000  0.5072840000000  0.4124030000000 1.0
C      1  0.5818740000000  0.5523180000000  0.4698830000000 1.0
C      1  0.4928790000000  0.5428890000000  0.4534220000000 1.0
C      1  0.4489320000000  0.5459070000000  0.4938300000000 1.0
C      1  0.4543520000000  0.5563090000000  0.5673530000000 1.0
C      1  0.5434730000000  0.5520560000000  0.5571780000000 1.0
C      1  0.5739380000000  0.5892740000000  0.5036730000000 1.0
C      1  0.5195200000000  0.5889540000000  0.4391350000000 1.0
C      1  0.4450530000000  0.5935270000000  0.4600630000000 1.0
C      1  0.4432030000000  0.5971950000000  0.5391440000000 1.0
C      1  0.5193600000000  0.5947200000000  0.5648400000000 1.0
C      1  0.4538390000000  0.5004280000000  0.4257450000000 1.0
C      1  0.4105670000000  0.5025870000000  0.5230270000000 1.0
C      1  0.4934990000000  0.5025440000000  0.5888300000000 1.0
C      1  0.5846990000000  0.4992730000000  0.5267470000000 1.0
C      1  0.5591960000000  0.5024340000000  0.4256790000000 1.0
C      1  0.5161470000000  0.5324830000000  0.4096360000000 1.0
C      1  0.4172730000000  0.5345940000000  0.4574020000000 1.0
C      1  0.4322130000000  0.5360970000000  0.5644140000000 1.0
C      1  0.5333060000000  0.5329980000000  0.5781140000000 1.0
C      1  0.5915250000000  0.5300680000000  0.4858050000000 1.0
C      1  0.4974130000000  0.5508410000000  0.4227790000000 1.0
C      1  0.4222350000000  0.5534360000000  0.4793960000000 1.0
C      1  0.4654460000000  0.5515590000000  0.5944100000000 1.0
C      1  0.5777890000000  0.5333760000000  0.5588290000000 1.0
C      1  0.5814660000000  0.5450250000000  0.4412530000000 1.0
C      1  0.5430730000000  0.4068770000000  0.4714900000000 1.0
C      1  0.4928790000000  0.4023860000000  0.4533130000000 1.0
C      1  0.4593830000000  0.4069890000000  0.5019100000000 1.0
C      1  0.4817980000000  0.4062730000000  0.5433460000000 1.0
C      1  0.5397060000000  0.4041150000000  0.5296190000000 1.0
C      1  0.5091130000000  0.5184360000000  0.4603880000000 1.0
C      1  0.4610400000000  0.5198740000000  0.4822770000000 1.0
C      1  0.4701820000000  0.5252480000000  0.5317920000000 1.0
C      1  0.5182340000000  0.5211130000000  0.5226040000000 1.0
C      1  0.5340950000000  0.5201160000000  0.4743990000000 1.0
C      1  0.6040770000000  0.4321270000000  0.5186500000000 1.0
C      1  0.5562310000000  0.4345230000000  0.4044560000000 1.0
C      1  0.4354410000000  0.4337570000000  0.4249760000000 1.0
C      1  0.4017720000000  0.4362670000000  0.5443360000000 1.0
C      1  0.5116250000000  0.4354530000000  0.6024090000000 1.0
C      1  0.4928270000000  0.5559610000000  0.5895530000000 1.0
C      1  0.5802030000000  0.5472870000000  0.5330400000000 1.0
C      1  0.5564240000000  0.5539250000000  0.4287210000000 1.0
C      1  0.4444500000000  0.5579010000000  0.4249580000000 1.0
C      1  0.4098850000000  0.5611560000000  0.5304080000000 1.0
C      1  0.5842850000000  0.5263880000000  0.5133980000000 1.0
C      1  0.5425680000000  0.5290710000000  0.4216780000000 1.0
C      1  0.4421010000000  0.5326160000000  0.4389760000000 1.0
C      1  0.4207190000000  0.5348850000000  0.5367690000000 1.0
C      1  0.5056540000000  0.5304360000000  0.5829450000000 1.0
C      1  0.4600220000000  0.4798220000000  0.5238670000000 1.0
C      1  0.5121240000000  0.4769460000000  0.5423140000000 1.0
C      1  0.5492200000000  0.4766070000000  0.4966890000000 1.0
C      1  0.5209220000000  0.4724580000000  0.4485980000000 1.0
C      1  0.4745680000000  0.4757460000000  0.4779110000000 1.0
C      1  0.4766570000000  0.5503890000000  0.5459660000000 1.0
C      1  0.5256480000000  0.5476520000000  0.5328660000000 1.0
C      1  0.5390680000000  0.5480110000000  0.4797620000000 1.0
C      1  0.4664480000000  0.5298550000000  0.4560110000000 1.0
C      1  0.4446240000000  0.5338680000000  0.5204320000000 1.0
C      1  0.4839260000000  0.5717540000000  0.5249720000000 1.0
C      1  0.5146740000000  0.5713760000000  0.5201790000000 1.0
C      1  0.5218420000000  0.5700050000000  0.4897130000000 1.0
C      1  0.4945210000000  0.5680940000000  0.4743100000000 1.0
C      1  0.4705460000000  0.5694690000000  0.4959050000000 1.0
C      1  0.4777830000000  0.5930750000000  0.4231640000000 1.0
C      1  0.4181090000000  0.5960140000000  0.4971810000000 1.0
C      1  0.4715410000000  0.5982670000000  0.5750700000000 1.0
C      1  0.5615090000000  0.5918750000000  0.5484650000000 1.0
C      1  0.5599420000000  0.5933590000000  0.4610260000000 1.0
C      1  0.5893030000000  0.5058280000000  0.5553900000000 1.0
C      1  0.5838280000000  0.5154540000000  0.4390490000000 1.0
C      1  0.4715850000000  0.5050320000000  0.4020860000000 1.0
C      1  0.3930970000000  0.5080130000000  0.4985550000000 1.0
C      1  0.4653460000000  0.5075930000000  0.5987060000000 1.0
C      1  0.4557160000000  0.5960110000000  0.4898750000000 1.0
C      1  0.4749470000000  0.5985330000000  0.5371560000000 1.0
C      1  0.5264420000000  0.5969550000000  0.5335480000000 1.0
C      1  0.5403200000000  0.5954940000000  0.4860770000000 1.0
C      1  0.4951570000000  0.5934010000000  0.4572660000000 1.0
C      1  0.4582110000000  0.5786400000000  0.4383950000000 1.0
C      1  0.4268360000000  0.5817460000000  0.5204050000000 1.0
C      1  0.4945920000000  0.5807810000000  0.5726260000000 1.0
C      1  0.5727660000000  0.5752030000000  0.5282890000000 1.0
C      1  0.5424020000000  0.5716540000000  0.4493060000000 1.0
C      1  0.6066490000000  0.4864720000000  0.4671750000000 1.0
C      1  0.5106320000000  0.4884210000000  0.3898980000000 1.0
C      1  0.3981660000000  0.4894080000000  0.4565870000000 1.0
C      1  0.4274580000000  0.4904110000000  0.5838180000000 1.0
C      1  0.5555240000000  0.4914480000000  0.5858430000000 1.0
C      1  0.4814700000000  0.4881540000000  0.5041560000000 1.0
C      1  0.4893390000000  0.5174370000000  0.5086370000000 1.0
C      1  0.4892710000000  0.4404570000000  0.5122700000000 1.0
C      1  0.4865620000000  0.4097710000000  0.5142110000000 1.0
END
