TITL C-3578202-4305-86 -3.89644644523483e-06 125000 -592.314795176829 0 0 94 (C1) n - 1
REM
REM in /home/bkarasulu/work/CARBON/AIRSS/Generating-Clusters/EDIP-Nigel-Params/with-SteepDescent/Higher-Symm/SD-CG/HFTN-CG
REM
REM
REM
REM
REM
REM ./C.cell (12c818d87b63d06a65506943cc24bca4)
REM
REM compiler GCC version 9.2.1 20190827 (Red Hat 9.2.1-1)
REM options -cpp -mtune=generic -march=x86-64 -g -O0 -fpre-include=/usr/include/finclude/math-vector-fortran.h
REM seed -1569760873 1226351972 -1679216463 1421240647 -1890259171 1213259268 192691596 549154318 -525882035 626684176 -2142753697 71458139 -435752805 360223602 1051525055 -1739316707 -678620408 2128808265 547174640 -862401455 -1513378182 290934692 1718440249 -1318491811 -1098986449 986038983 1868456995 403904912 -446840519 -1908752363 -942862902 -1757712865 1406519569
REM
CELL 1.54180   50.00000   50.00000   50.00000   90.00000   90.00000   90.00000
LATT -1
SFAC C  
C      1  0.5265940000000  0.4608750000000  0.5611460000000 1.0
C      1  0.5262940000000  0.5447420000000  0.5478260000000 1.0
C      1  0.5244240000000  0.5654430000000  0.4716740000000 1.0
C      1  0.5270410000000  0.4921890000000  0.4281810000000 1.0
C      1  0.5249850000000  0.4297520000000  0.4864660000000 1.0
C      1  0.4748470000000  0.4671500000000  0.4384890000000 1.0
C      1  0.4762420000000  0.5514070000000  0.4427240000000 1.0
C      1  0.4729790000000  0.5704280000000  0.5276240000000 1.0
C      1  0.4771880000000  0.4918720000000  0.5688980000000 1.0
C      1  0.4747800000000  0.4300780000000  0.5161920000000 1.0
C      1  0.4761860000000  0.5483050000000  0.5491240000000 1.0
C      1  0.4758850000000  0.5726780000000  0.4646580000000 1.0
C      1  0.4766430000000  0.4928160000000  0.4233630000000 1.0
C      1  0.4749590000000  0.4310910000000  0.4870070000000 1.0
C      1  0.4754830000000  0.4617880000000  0.5675420000000 1.0
C      1  0.5258970000000  0.5502790000000  0.4468010000000 1.0
C      1  0.5224260000000  0.5622440000000  0.5235170000000 1.0
C      1  0.5278420000000  0.4894120000000  0.5699270000000 1.0
C      1  0.5254830000000  0.4247900000000  0.5156830000000 1.0
C      1  0.5254090000000  0.4632780000000  0.4355210000000 1.0
C      1  0.4495330000000  0.4509400000000  0.5558440000000 1.0
C      1  0.4518080000000  0.5311150000000  0.5545490000000 1.0
C      1  0.4514430000000  0.5741180000000  0.4816260000000 1.0
C      1  0.4527180000000  0.5107000000000  0.4274290000000 1.0
C      1  0.4513630000000  0.4434290000000  0.4744310000000 1.0
C      1  0.5499590000000  0.4521960000000  0.4493060000000 1.0
C      1  0.5488020000000  0.5322690000000  0.4450790000000 1.0
C      1  0.5481260000000  0.5748850000000  0.5141590000000 1.0
C      1  0.5544310000000  0.5004760000000  0.5655170000000 1.0
C      1  0.5521810000000  0.4316600000000  0.5302160000000 1.0
C      1  0.4088290000000  0.4568130000000  0.5330990000000 1.0
C      1  0.4178000000000  0.5026880000000  0.5365500000000 1.0
C      1  0.4105510000000  0.5538110000000  0.4951700000000 1.0
C      1  0.4094090000000  0.5227190000000  0.4439270000000 1.0
C      1  0.4141760000000  0.4754670000000  0.4830530000000 1.0
C      1  0.5934940000000  0.4536680000000  0.4704640000000 1.0
C      1  0.5883160000000  0.5133800000000  0.4663550000000 1.0
C      1  0.5866340000000  0.5515700000000  0.5007530000000 1.0
C      1  0.5788140000000  0.5192870000000  0.5300950000000 1.0
C      1  0.5961000000000  0.4504900000000  0.5304560000000 1.0
C      1  0.4247040000000  0.4463850000000  0.4881730000000 1.0
C      1  0.4227920000000  0.4638810000000  0.5575430000000 1.0
C      1  0.4276090000000  0.5311240000000  0.5371310000000 1.0
C      1  0.4250790000000  0.5626320000000  0.4719940000000 1.0
C      1  0.4256290000000  0.5000650000000  0.4366690000000 1.0
C      1  0.5775520000000  0.4355380000000  0.5155910000000 1.0
C      1  0.5764220000000  0.4655950000000  0.4504880000000 1.0
C      1  0.5743400000000  0.5384740000000  0.4581980000000 1.0
C      1  0.5735120000000  0.5631600000000  0.5247230000000 1.0
C      1  0.5717850000000  0.4944780000000  0.5432310000000 1.0
C      1  0.4573370000000  0.5301740000000  0.4504130000000 1.0
C      1  0.4575430000000  0.4698550000000  0.4623690000000 1.0
C      1  0.4506220000000  0.4377200000000  0.5299840000000 1.0
C      1  0.4605220000000  0.5032010000000  0.5475710000000 1.0
C      1  0.4580460000000  0.5569260000000  0.5054010000000 1.0
C      1  0.5352490000000  0.5180730000000  0.5370680000000 1.0
C      1  0.5355700000000  0.4587220000000  0.5326250000000 1.0
C      1  0.5494190000000  0.4369950000000  0.4737920000000 1.0
C      1  0.5436600000000  0.5032730000000  0.4501470000000 1.0
C      1  0.5490770000000  0.5735730000000  0.4848380000000 1.0
C      1  0.4792040000000  0.5348870000000  0.4979020000000 1.0
C      1  0.4696290000000  0.5170660000000  0.4759230000000 1.0
C      1  0.4731370000000  0.4879170000000  0.4826580000000 1.0
C      1  0.4790000000000  0.4713720000000  0.5303800000000 1.0
C      1  0.4823860000000  0.5183550000000  0.5251720000000 1.0
C      1  0.5156250000000  0.5379390000000  0.5050670000000 1.0
C      1  0.5095440000000  0.5040610000000  0.5255820000000 1.0
C      1  0.5081170000000  0.4750260000000  0.5169530000000 1.0
C      1  0.5052340000000  0.4784870000000  0.4855900000000 1.0
C      1  0.5295840000000  0.4983880000000  0.4777730000000 1.0
C      1  0.5018200000000  0.5080380000000  0.4280880000000 1.0
C      1  0.5005050000000  0.4410650000000  0.4748920000000 1.0
C      1  0.5004230000000  0.4472350000000  0.5565920000000 1.0
C      1  0.5019860000000  0.5355840000000  0.5608500000000 1.0
C      1  0.4987020000000  0.5721040000000  0.4833530000000 1.0
C      1  0.5027750000000  0.5061610000000  0.5689240000000 1.0
C      1  0.4999720000000  0.4330980000000  0.5298690000000 1.0
C      1  0.5001560000000  0.4554970000000  0.4481950000000 1.0
C      1  0.5017170000000  0.5372900000000  0.4367630000000 1.0
C      1  0.4981110000000  0.5779150000000  0.5134310000000 1.0
C      1  0.5751860000000  0.5621200000000  0.4761970000000 1.0
C      1  0.5720890000000  0.4943570000000  0.4514490000000 1.0
C      1  0.5743960000000  0.4409580000000  0.4871760000000 1.0
C      1  0.5897980000000  0.4732490000000  0.5433050000000 1.0
C      1  0.5707650000000  0.5427140000000  0.5444660000000 1.0
C      1  0.4316030000000  0.5446940000000  0.5118580000000 1.0
C      1  0.4207960000000  0.4914110000000  0.5625620000000 1.0
C      1  0.4246520000000  0.4388800000000  0.5169290000000 1.0
C      1  0.4311310000000  0.4825590000000  0.4595800000000 1.0
C      1  0.4296090000000  0.5408080000000  0.4531800000000 1.0
C      1  0.5739870000000  0.5227690000000  0.4997250000000 1.0
C      1  0.4275600000000  0.4824530000000  0.5128060000000 1.0
C      1  0.4593370000000  0.4846790000000  0.5100490000000 1.0
C      1  0.5406620000000  0.5181110000000  0.4984120000000 1.0
END
