TITL C-3578199-7832-90 -4.08408255327616e-06 125000 -473.155433160495 0 0 77 (C1) n - 1
REM
REM in /home/bkarasulu/work/CARBON/AIRSS/Generating-Clusters/EDIP-Nigel-Params/with-SteepDescent/Higher-Symm/SD-CG/HFTN-CG
REM
REM
REM
REM
REM
REM ./C.cell (12c818d87b63d06a65506943cc24bca4)
REM
REM compiler GCC version 9.2.1 20190827 (Red Hat 9.2.1-1)
REM options -cpp -mtune=generic -march=x86-64 -g -O0 -fpre-include=/usr/include/finclude/math-vector-fortran.h
REM seed -944625091 2129102794 1036874963 1926042175 -1501414196 1827685641 1627597887 -398391183 -781727483 -1178168196 -939813622 -2025398763 -75573300 -629334098 -445369764 918012198 -239691517 836047278 1811900771 -1655819996 -1752313140 -2056395916 -1473965019 -790546997 -2030980843 -1104859189 -2105833512 -432976494 1088515152 -802701859 -1405348889 1111589545 339759910
REM
CELL 1.54180   50.00000   50.00000   50.00000   90.00000   90.00000   90.00000
LATT -1
SFAC C  
C      1  0.4857500000000  0.5324090000000  0.4725970000000 1.0
C      1  0.4694190000000  0.4580460000000  0.5823470000000 1.0
C      1  0.4555640000000  0.4508200000000  0.4998180000000 1.0
C      1  0.4970450000000  0.5693200000000  0.4512300000000 1.0
C      1  0.4615850000000  0.5258860000000  0.4326140000000 1.0
C      1  0.5478270000000  0.5290940000000  0.5377410000000 1.0
C      1  0.4795210000000  0.4976830000000  0.5054730000000 1.0
C      1  0.5056970000000  0.4707830000000  0.4739550000000 1.0
C      1  0.4457010000000  0.5111510000000  0.4527870000000 1.0
C      1  0.4651080000000  0.4913570000000  0.5306480000000 1.0
C      1  0.4816450000000  0.4323310000000  0.5486040000000 1.0
C      1  0.5379490000000  0.5023620000000  0.5503900000000 1.0
C      1  0.5241130000000  0.4325510000000  0.5268200000000 1.0
C      1  0.5126610000000  0.5397470000000  0.5655890000000 1.0
C      1  0.4265630000000  0.5218300000000  0.4944880000000 1.0
C      1  0.5190280000000  0.4982530000000  0.4757020000000 1.0
C      1  0.4977150000000  0.4233150000000  0.4850220000000 1.0
C      1  0.5527750000000  0.5290150000000  0.5091580000000 1.0
C      1  0.5032440000000  0.5145070000000  0.4578470000000 1.0
C      1  0.5022340000000  0.4244920000000  0.4573640000000 1.0
C      1  0.4339910000000  0.5374780000000  0.5174350000000 1.0
C      1  0.5230810000000  0.4905000000000  0.5247280000000 1.0
C      1  0.4579600000000  0.5072090000000  0.5822720000000 1.0
C      1  0.4710810000000  0.5696800000000  0.4989000000000 1.0
C      1  0.4810240000000  0.5103320000000  0.4196210000000 1.0
C      1  0.4917380000000  0.4970240000000  0.5634810000000 1.0
C      1  0.5172990000000  0.5113820000000  0.5702150000000 1.0
C      1  0.5001220000000  0.4763550000000  0.5384720000000 1.0
C      1  0.4477740000000  0.5575680000000  0.4699760000000 1.0
C      1  0.4763180000000  0.4855600000000  0.5866920000000 1.0
C      1  0.4975460000000  0.4469460000000  0.5280660000000 1.0
C      1  0.4348720000000  0.4940890000000  0.5310060000000 1.0
C      1  0.5100450000000  0.4439860000000  0.4385490000000 1.0
C      1  0.4980310000000  0.5685350000000  0.4823910000000 1.0
C      1  0.4838350000000  0.5763100000000  0.5280530000000 1.0
C      1  0.5154260000000  0.5701850000000  0.5269800000000 1.0
C      1  0.5861770000000  0.5208150000000  0.4754840000000 1.0
C      1  0.5458000000000  0.4820170000000  0.4324490000000 1.0
C      1  0.4656640000000  0.5190430000000  0.4912940000000 1.0
C      1  0.5499850000000  0.4954700000000  0.4593280000000 1.0
C      1  0.5178620000000  0.5273290000000  0.4362540000000 1.0
C      1  0.5479500000000  0.5457430000000  0.4623060000000 1.0
C      1  0.4573320000000  0.5244680000000  0.5587070000000 1.0
C      1  0.5322320000000  0.5523510000000  0.5475520000000 1.0
C      1  0.5425230000000  0.4701750000000  0.5108050000000 1.0
C      1  0.4856940000000  0.4479590000000  0.4986740000000 1.0
C      1  0.5083530000000  0.5071550000000  0.5046640000000 1.0
C      1  0.5270880000000  0.4963560000000  0.4158830000000 1.0
C      1  0.5519290000000  0.4500090000000  0.4661790000000 1.0
C      1  0.4947040000000  0.4687600000000  0.4431800000000 1.0
C      1  0.5010880000000  0.5369910000000  0.5133320000000 1.0
C      1  0.4627720000000  0.5416320000000  0.5110800000000 1.0
C      1  0.4703760000000  0.5494120000000  0.4517190000000 1.0
C      1  0.5396030000000  0.4523890000000  0.4386950000000 1.0
C      1  0.5460250000000  0.4515900000000  0.5342060000000 1.0
C      1  0.4313670000000  0.5324310000000  0.4685880000000 1.0
C      1  0.5175670000000  0.4550680000000  0.5721750000000 1.0
C      1  0.4909750000000  0.5366040000000  0.5448190000000 1.0
C      1  0.5237870000000  0.5694610000000  0.4982030000000 1.0
C      1  0.5646600000000  0.5219530000000  0.4573310000000 1.0
C      1  0.5679790000000  0.4744480000000  0.4716280000000 1.0
C      1  0.4722130000000  0.5594290000000  0.5498240000000 1.0
C      1  0.5739870000000  0.5114090000000  0.4995170000000 1.0
C      1  0.4924840000000  0.4416860000000  0.5743790000000 1.0
C      1  0.4549440000000  0.4423780000000  0.5504240000000 1.0
C      1  0.5394310000000  0.4667710000000  0.5586950000000 1.0
C      1  0.5454690000000  0.5510130000000  0.4909080000000 1.0
C      1  0.4429740000000  0.4674760000000  0.4809480000000 1.0
C      1  0.4336160000000  0.5206120000000  0.5413730000000 1.0
C      1  0.5242860000000  0.4259140000000  0.4978910000000 1.0
C      1  0.5687550000000  0.4818510000000  0.5000480000000 1.0
C      1  0.4998790000000  0.4894990000000  0.4214240000000 1.0
C      1  0.4661550000000  0.4659890000000  0.4427410000000 1.0
C      1  0.5304310000000  0.4535630000000  0.4866520000000 1.0
C      1  0.4476390000000  0.4810920000000  0.4570420000000 1.0
C      1  0.4462490000000  0.4574390000000  0.5270440000000 1.0
C      1  0.5207120000000  0.5561590000000  0.4395230000000 1.0
END
