TITL C-3577083-591-169 -6.76271351347687e-07 125000 -231.370613582946 0 0 44 (T23) n - 1
REM
REM in /home/bkarasulu/work/CARBON/AIRSS/Generating-Clusters/EDIP-Nigel-Params/with-SteepDescent/Higher-Symm/SD-CG/HFTN-CG
REM
REM
REM
REM
REM
REM ./C.cell (12c818d87b63d06a65506943cc24bca4)
REM
REM compiler GCC version 9.2.1 20190827 (Red Hat 9.2.1-1)
REM options -cpp -mtune=generic -march=x86-64 -g -O0 -fpre-include=/usr/include/finclude/math-vector-fortran.h
REM seed 1966289056 -911151220 -477715112 -274156171 -1694702128 -249799492 378636047 1678443899 -943173239 1471981572 620320377 36741806 1896333297 -317225576 -1894114905 -1989637709 235721726 -57676564 37374077 -103136790 1083807990 -705307289 -1487685472 1810196129 368583558 -846256105 2047409995 -721798965 1906248295 1777300083 1033085882 -1306660755 1255326866
REM
CELL 1.54180   50.00000   50.00000   50.00000   90.00000   90.00000   90.00000
LATT -1
SFAC C  
C      1  0.4813840000000  0.4732220000000  0.4454570000000 1.0
C      1  0.4452630000000  0.4810920000000  0.4737060000000 1.0
C      1  0.4735100000000  0.4449680000000  0.4815740000000 1.0
C      1  0.4813790000000  0.5263820000000  0.5551350000000 1.0
C      1  0.5188220000000  0.5263890000000  0.4454660000000 1.0
C      1  0.5188070000000  0.4732080000000  0.5551340000000 1.0
C      1  0.4452610000000  0.5185190000000  0.5268800000000 1.0
C      1  0.5549390000000  0.5185140000000  0.4737200000000 1.0
C      1  0.5549300000000  0.4810760000000  0.5268870000000 1.0
C      1  0.4735170000000  0.5546370000000  0.5190170000000 1.0
C      1  0.5266900000000  0.5546360000000  0.4815900000000 1.0
C      1  0.5266760000000  0.4449590000000  0.5190120000000 1.0
C      1  0.5196920000000  0.4702350000000  0.4442320000000 1.0
C      1  0.5561640000000  0.4802060000000  0.4707330000000 1.0
C      1  0.5296630000000  0.4437340000000  0.4807040000000 1.0
C      1  0.5196870000000  0.5293610000000  0.5563680000000 1.0
C      1  0.4805150000000  0.5293760000000  0.4442340000000 1.0
C      1  0.4804990000000  0.4702280000000  0.5563580000000 1.0
C      1  0.5561620000000  0.5193830000000  0.5298740000000 1.0
C      1  0.4440380000000  0.5194000000000  0.4707260000000 1.0
C      1  0.4440280000000  0.4802120000000  0.5298590000000 1.0
C      1  0.5296700000000  0.5558600000000  0.5198980000000 1.0
C      1  0.4705370000000  0.5558700000000  0.4807100000000 1.0
C      1  0.4705220000000  0.4437360000000  0.5198810000000 1.0
C      1  0.5243650000000  0.4672670000000  0.4986980000000 1.0
C      1  0.4985040000000  0.5240740000000  0.4677700000000 1.0
C      1  0.4675650000000  0.4982010000000  0.5245650000000 1.0
C      1  0.4758310000000  0.5323330000000  0.4986990000000 1.0
C      1  0.4984930000000  0.4755270000000  0.5328260000000 1.0
C      1  0.4675700000000  0.5014050000000  0.4760250000000 1.0
C      1  0.5326260000000  0.5013940000000  0.5245720000000 1.0
C      1  0.5326310000000  0.4982000000000  0.4760310000000 1.0
C      1  0.5243710000000  0.5323280000000  0.5019030000000 1.0
C      1  0.4758250000000  0.4672720000000  0.5018920000000 1.0
C      1  0.5016990000000  0.4755330000000  0.4677650000000 1.0
C      1  0.5016970000000  0.5240670000000  0.5328310000000 1.0
C      1  0.5395600000000  0.4603230000000  0.5397680000000 1.0
C      1  0.5395760000000  0.5392700000000  0.4608360000000 1.0
C      1  0.4606280000000  0.5392700000000  0.5397680000000 1.0
C      1  0.4585830000000  0.4582930000000  0.5417970000000 1.0
C      1  0.4585990000000  0.5413160000000  0.4587910000000 1.0
C      1  0.5416060000000  0.4582930000000  0.4587910000000 1.0
C      1  0.4606280000000  0.4603380000000  0.4608210000000 1.0
C      1  0.5416060000000  0.5412990000000  0.5418140000000 1.0
END
