TITL C-3577087-600-684 -4.69318666215609e-06 125000 -1107.10156513149 0 0 175 (C1) n - 1
REM
REM in /home/bkarasulu/work/CARBON/AIRSS/Generating-Clusters/EDIP-Nigel-Params/with-SteepDescent/Higher-Symm/SD-CG/HFTN-CG
REM
REM
REM
REM
REM
REM ./C.cell (12c818d87b63d06a65506943cc24bca4)
REM
REM compiler GCC version 9.2.1 20190827 (Red Hat 9.2.1-1)
REM options -cpp -mtune=generic -march=x86-64 -g -O0 -fpre-include=/usr/include/finclude/math-vector-fortran.h
REM seed -1258817095 -1720500499 2058706172 516630947 -1655363951 56342104 -33787138 -1277189808 804131468 -79612753 28510387 2074831020 1509566621 1683518236 -2068406168 -838932805 -1362302989 1181203859 1811592675 88009488 238682103 -501982601 1378195486 -220984612 -1665530229 439019562 544497931 1740038425 901901877 -42475022 279917151 1944437228 -1706655841
REM
CELL 1.54180   50.00000   50.00000   50.00000   90.00000   90.00000   90.00000
LATT -1
SFAC C  
C      1  0.5023620000000  0.5936200000000  0.4318390000000 1.0
C      1  0.4417210000000  0.5899470000000  0.4770960000000 1.0
C      1  0.4652340000000  0.5930210000000  0.5502830000000 1.0
C      1  0.5386210000000  0.5949630000000  0.5513170000000 1.0
C      1  0.5584500000000  0.5834240000000  0.4823180000000 1.0
C      1  0.5038120000000  0.4113890000000  0.5633880000000 1.0
C      1  0.4407270000000  0.4057000000000  0.5213660000000 1.0
C      1  0.4648360000000  0.4103340000000  0.4527220000000 1.0
C      1  0.5390750000000  0.4089780000000  0.4491490000000 1.0
C      1  0.5640130000000  0.4133030000000  0.5196800000000 1.0
C      1  0.5603350000000  0.4910230000000  0.4617510000000 1.0
C      1  0.4857510000000  0.4990960000000  0.4263210000000 1.0
C      1  0.4540770000000  0.5029110000000  0.4979610000000 1.0
C      1  0.4624640000000  0.4969110000000  0.5559730000000 1.0
C      1  0.5396590000000  0.4870910000000  0.5541350000000 1.0
C      1  0.5468060000000  0.5046080000000  0.5303810000000 1.0
C      1  0.4887230000000  0.4980370000000  0.5424690000000 1.0
C      1  0.4348190000000  0.5062550000000  0.5220410000000 1.0
C      1  0.4714530000000  0.5048360000000  0.4505400000000 1.0
C      1  0.5358910000000  0.5063220000000  0.4461280000000 1.0
C      1  0.5131300000000  0.6093800000000  0.5471840000000 1.0
C      1  0.5475920000000  0.6012890000000  0.5030930000000 1.0
C      1  0.5144830000000  0.5943520000000  0.4593110000000 1.0
C      1  0.4662370000000  0.6013080000000  0.4657870000000 1.0
C      1  0.4592240000000  0.6051580000000  0.5236750000000 1.0
C      1  0.5124730000000  0.4030830000000  0.4610870000000 1.0
C      1  0.5479100000000  0.4028690000000  0.4971230000000 1.0
C      1  0.5217500000000  0.4011160000000  0.5429940000000 1.0
C      1  0.4690140000000  0.3986330000000  0.5306190000000 1.0
C      1  0.4659770000000  0.4036150000000  0.4820340000000 1.0
C      1  0.5190680000000  0.4814680000000  0.4808980000000 1.0
C      1  0.4932700000000  0.4706350000000  0.4683560000000 1.0
C      1  0.4704760000000  0.4769340000000  0.4972190000000 1.0
C      1  0.4897310000000  0.4761130000000  0.5217410000000 1.0
C      1  0.5172340000000  0.4784010000000  0.5106510000000 1.0
C      1  0.5276210000000  0.5255610000000  0.5202210000000 1.0
C      1  0.4946310000000  0.5229530000000  0.5248210000000 1.0
C      1  0.4760750000000  0.5240430000000  0.4975360000000 1.0
C      1  0.4895660000000  0.5217800000000  0.4688330000000 1.0
C      1  0.5193350000000  0.5117050000000  0.4718960000000 1.0
C      1  0.4552810000000  0.5513890000000  0.4135580000000 1.0
C      1  0.4131780000000  0.5446440000000  0.5247250000000 1.0
C      1  0.4915770000000  0.5584920000000  0.5956960000000 1.0
C      1  0.5917870000000  0.5613970000000  0.5443100000000 1.0
C      1  0.5596630000000  0.5406520000000  0.4330310000000 1.0
C      1  0.4510580000000  0.4467500000000  0.5836660000000 1.0
C      1  0.4015170000000  0.4368060000000  0.4787360000000 1.0
C      1  0.4874610000000  0.4366400000000  0.4019510000000 1.0
C      1  0.5854110000000  0.4552540000000  0.4558660000000 1.0
C      1  0.5602110000000  0.4638610000000  0.5627390000000 1.0
C      1  0.4351750000000  0.5437390000000  0.4795780000000 1.0
C      1  0.4609320000000  0.5440310000000  0.5590300000000 1.0
C      1  0.5476670000000  0.5471520000000  0.5631980000000 1.0
C      1  0.5651220000000  0.5358710000000  0.4849840000000 1.0
C      1  0.4983790000000  0.5472140000000  0.4241180000000 1.0
C      1  0.4289950000000  0.4539320000000  0.5174810000000 1.0
C      1  0.4512490000000  0.4582510000000  0.4330920000000 1.0
C      1  0.5445700000000  0.4550630000000  0.4384890000000 1.0
C      1  0.5641740000000  0.4628070000000  0.5160140000000 1.0
C      1  0.4984060000000  0.4578020000000  0.5673700000000 1.0
C      1  0.5246540000000  0.4309880000000  0.5114080000000 1.0
C      1  0.5233990000000  0.4351230000000  0.4806670000000 1.0
C      1  0.4953650000000  0.4417050000000  0.4746250000000 1.0
C      1  0.4766780000000  0.4306240000000  0.4951030000000 1.0
C      1  0.4940400000000  0.4270440000000  0.5212640000000 1.0
C      1  0.5256220000000  0.5645750000000  0.4923030000000 1.0
C      1  0.5215220000000  0.5731670000000  0.5235920000000 1.0
C      1  0.4897160000000  0.5730440000000  0.5276800000000 1.0
C      1  0.4762190000000  0.5739900000000  0.4986290000000 1.0
C      1  0.5001020000000  0.5709950000000  0.4755510000000 1.0
C      1  0.4433690000000  0.5184780000000  0.5515150000000 1.0
C      1  0.5396760000000  0.5201960000000  0.5736210000000 1.0
C      1  0.5744190000000  0.5063540000000  0.4859930000000 1.0
C      1  0.5092150000000  0.5181370000000  0.4203110000000 1.0
C      1  0.4346740000000  0.5112460000000  0.4729020000000 1.0
C      1  0.4446970000000  0.4867220000000  0.4450390000000 1.0
C      1  0.5292300000000  0.4794780000000  0.4290590000000 1.0
C      1  0.5692080000000  0.4929600000000  0.5140370000000 1.0
C      1  0.5108140000000  0.4865560000000  0.5667120000000 1.0
C      1  0.4281030000000  0.4794500000000  0.5343690000000 1.0
C      1  0.5093560000000  0.3785830000000  0.4777480000000 1.0
C      1  0.4820750000000  0.3780920000000  0.4895690000000 1.0
C      1  0.4851230000000  0.3760700000000  0.5189220000000 1.0
C      1  0.5144620000000  0.3787660000000  0.5249570000000 1.0
C      1  0.5297270000000  0.3785190000000  0.4994100000000 1.0
C      1  0.5066320000000  0.6225390000000  0.5217000000000 1.0
C      1  0.4812490000000  0.6168010000000  0.5093770000000 1.0
C      1  0.4822930000000  0.6205220000000  0.4806890000000 1.0
C      1  0.5112580000000  0.6209380000000  0.4736090000000 1.0
C      1  0.5267290000000  0.6221010000000  0.4997250000000 1.0
C      1  0.4990040000000  0.4733180000000  0.4358510000000 1.0
C      1  0.4545040000000  0.4527270000000  0.4997230000000 1.0
C      1  0.4861550000000  0.4510750000000  0.5389490000000 1.0
C      1  0.5350040000000  0.4577080000000  0.5209560000000 1.0
C      1  0.5432270000000  0.4600090000000  0.4698800000000 1.0
C      1  0.4841630000000  0.5462480000000  0.5397530000000 1.0
C      1  0.4598510000000  0.5485520000000  0.4969330000000 1.0
C      1  0.4919330000000  0.5485360000000  0.4557550000000 1.0
C      1  0.5341520000000  0.5340390000000  0.4910680000000 1.0
C      1  0.5345580000000  0.5489650000000  0.5357820000000 1.0
C      1  0.4745640000000  0.4106560000000  0.5571700000000 1.0
C      1  0.5476570000000  0.4147900000000  0.5448790000000 1.0
C      1  0.5596210000000  0.4125090000000  0.4710020000000 1.0
C      1  0.4916820000000  0.4088300000000  0.4408900000000 1.0
C      1  0.4380030000000  0.4057020000000  0.4912900000000 1.0
C      1  0.4724420000000  0.5914890000000  0.4389080000000 1.0
C      1  0.5423720000000  0.5840100000000  0.4565380000000 1.0
C      1  0.5589300000000  0.5943910000000  0.5289540000000 1.0
C      1  0.4927640000000  0.5967010000000  0.5636000000000 1.0
C      1  0.4407070000000  0.5869020000000  0.5088480000000 1.0
C      1  0.4190010000000  0.5116340000000  0.5697320000000 1.0
C      1  0.5395070000000  0.5072910000000  0.5993590000000 1.0
C      1  0.6057870000000  0.5043410000000  0.4915940000000 1.0
C      1  0.5156210000000  0.5065360000000  0.3923130000000 1.0
C      1  0.4067140000000  0.5031200000000  0.4584840000000 1.0
C      1  0.4176150000000  0.4976200000000  0.4327670000000 1.0
C      1  0.5367340000000  0.4886970000000  0.4008100000000 1.0
C      1  0.6008560000000  0.4964310000000  0.5202660000000 1.0
C      1  0.5137480000000  0.4942460000000  0.5980150000000 1.0
C      1  0.4070220000000  0.4883040000000  0.5551280000000 1.0
C      1  0.4370380000000  0.4803270000000  0.5948130000000 1.0
C      1  0.5762620000000  0.4756410000000  0.5859910000000 1.0
C      1  0.6018610000000  0.4794720000000  0.4551450000000 1.0
C      1  0.4712220000000  0.4814960000000  0.3892510000000 1.0
C      1  0.3912960000000  0.4815540000000  0.4938910000000 1.0
C      1  0.4423800000000  0.5259930000000  0.4095240000000 1.0
C      1  0.5716700000000  0.5157230000000  0.4218890000000 1.0
C      1  0.5861890000000  0.5165210000000  0.5597410000000 1.0
C      1  0.4737860000000  0.5131550000000  0.5993400000000 1.0
C      1  0.3934020000000  0.5205030000000  0.5277790000000 1.0
C      1  0.5754790000000  0.5621160000000  0.4969860000000 1.0
C      1  0.5172210000000  0.5697040000000  0.4189330000000 1.0
C      1  0.4351180000000  0.5665460000000  0.4592660000000 1.0
C      1  0.4456850000000  0.5700920000000  0.5556600000000 1.0
C      1  0.5357600000000  0.5737010000000  0.5737280000000 1.0
C      1  0.5804100000000  0.4365880000000  0.5080470000000 1.0
C      1  0.5166320000000  0.4355450000000  0.5756240000000 1.0
C      1  0.4325720000000  0.4303500000000  0.5364650000000 1.0
C      1  0.4451320000000  0.4328940000000  0.4491170000000 1.0
C      1  0.5316320000000  0.4301400000000  0.4292980000000 1.0
C      1  0.5709490000000  0.5420090000000  0.4578900000000 1.0
C      1  0.4799440000000  0.5517890000000  0.4017240000000 1.0
C      1  0.4112540000000  0.5457410000000  0.4959500000000 1.0
C      1  0.4729380000000  0.5398250000000  0.5868930000000 1.0
C      1  0.5781030000000  0.5446650000000  0.5620650000000 1.0
C      1  0.5787810000000  0.4578050000000  0.5407550000000 1.0
C      1  0.4763510000000  0.4617700000000  0.5872950000000 1.0
C      1  0.4040180000000  0.4554120000000  0.4997000000000 1.0
C      1  0.4726140000000  0.4599100000000  0.4104590000000 1.0
C      1  0.5723700000000  0.4534310000000  0.4309920000000 1.0
C      1  0.4218870000000  0.5036570000000  0.5966770000000 1.0
C      1  0.5600720000000  0.4891540000000  0.6042850000000 1.0
C      1  0.6196220000000  0.4863680000000  0.4755920000000 1.0
C      1  0.4958080000000  0.4910270000000  0.3797910000000 1.0
C      1  0.3862550000000  0.4853900000000  0.4669020000000 1.0
C      1  0.4162680000000  0.5202050000000  0.4162990000000 1.0
C      1  0.5610690000000  0.5022340000000  0.4000830000000 1.0
C      1  0.6086090000000  0.5111620000000  0.5433850000000 1.0
C      1  0.4951350000000  0.5063740000000  0.6153300000000 1.0
C      1  0.3835520000000  0.5006030000000  0.5454680000000 1.0
C      1  0.4278700000000  0.4283620000000  0.4741740000000 1.0
C      1  0.4556450000000  0.4347010000000  0.5569440000000 1.0
C      1  0.5452390000000  0.4367170000000  0.5661270000000 1.0
C      1  0.5786900000000  0.4348780000000  0.4768030000000 1.0
C      1  0.5021330000000  0.4304840000000  0.4250770000000 1.0
C      1  0.4278430000000  0.5694750000000  0.5317070000000 1.0
C      1  0.4558640000000  0.5668530000000  0.4379220000000 1.0
C      1  0.5430000000000  0.5659070000000  0.4331780000000 1.0
C      1  0.5727760000000  0.5688800000000  0.5253750000000 1.0
C      1  0.5062650000000  0.5754600000000  0.5791230000000 1.0
C      1  0.5901910000000  0.5008300000000  0.4388290000000 1.0
C      1  0.5957210000000  0.4947400000000  0.5762320000000 1.0
C      1  0.4017610000000  0.5084630000000  0.5019560000000 1.0
C      1  0.4582670000000  0.5047740000000  0.3992280000000 1.0
C      1  0.4634250000000  0.4894030000000  0.5844570000000 1.0
END
