TITL C-3578196-9646-238 3.16735891019672e-06 125000 -586.153302173643 0 0 97 (C1) n - 1
REM
REM in /home/bkarasulu/work/CARBON/AIRSS/Generating-Clusters/EDIP-Nigel-Params/with-SteepDescent/Higher-Symm/SD-CG/HFTN-CG
REM
REM
REM
REM
REM
REM ./C.cell (12c818d87b63d06a65506943cc24bca4)
REM
REM compiler GCC version 9.2.1 20190827 (Red Hat 9.2.1-1)
REM options -cpp -mtune=generic -march=x86-64 -g -O0 -fpre-include=/usr/include/finclude/math-vector-fortran.h
REM seed -296758835 551566605 1307035064 1975346426 687752962 1178561969 -1408638752 768350060 -1788446252 -1721319139 -1678356533 1799851602 25136649 -520164324 -1536726088 348516819 -1656331342 -338752470 1268006771 -414301217 1758517471 -2143178674 -262579587 787540087 999557912 1598107813 -817752138 -1322691641 -1988529288 -1551317165 -671446417 675587165 501728556
REM
CELL 1.54180   50.00000   50.00000   50.00000   90.00000   90.00000   90.00000
LATT -1
SFAC C  
C      1  0.5394660000000  0.4769320000000  0.5667900000000 1.0
C      1  0.5380020000000  0.4782440000000  0.4299430000000 1.0
C      1  0.5307460000000  0.5112280000000  0.4701520000000 1.0
C      1  0.5263770000000  0.5142860000000  0.5268260000000 1.0
C      1  0.4794170000000  0.5383280000000  0.5155270000000 1.0
C      1  0.4819600000000  0.5328090000000  0.4658210000000 1.0
C      1  0.4744940000000  0.4759230000000  0.4637590000000 1.0
C      1  0.4778930000000  0.4840360000000  0.5332470000000 1.0
C      1  0.5172570000000  0.5165760000000  0.5902660000000 1.0
C      1  0.5157470000000  0.5189050000000  0.4086120000000 1.0
C      1  0.4770020000000  0.5507700000000  0.5621790000000 1.0
C      1  0.4753830000000  0.5493240000000  0.4413910000000 1.0
C      1  0.5175480000000  0.5464510000000  0.4127870000000 1.0
C      1  0.5171840000000  0.5447060000000  0.5891810000000 1.0
C      1  0.4929070000000  0.5076880000000  0.4212320000000 1.0
C      1  0.4955180000000  0.5065250000000  0.5753300000000 1.0
C      1  0.4773030000000  0.5819260000000  0.5233310000000 1.0
C      1  0.4936520000000  0.5782920000000  0.4755520000000 1.0
C      1  0.5337650000000  0.4305140000000  0.4672550000000 1.0
C      1  0.5313770000000  0.4279070000000  0.5300190000000 1.0
C      1  0.5606500000000  0.5157940000000  0.4396350000000 1.0
C      1  0.5604500000000  0.5148680000000  0.5561490000000 1.0
C      1  0.5189680000000  0.5757060000000  0.5517880000000 1.0
C      1  0.5143740000000  0.5693230000000  0.4566950000000 1.0
C      1  0.5389500000000  0.5022650000000  0.4111940000000 1.0
C      1  0.5406620000000  0.5003420000000  0.5857370000000 1.0
C      1  0.5029460000000  0.5616930000000  0.5712840000000 1.0
C      1  0.5018000000000  0.5606560000000  0.4314700000000 1.0
C      1  0.5495780000000  0.4927920000000  0.4529860000000 1.0
C      1  0.5510430000000  0.4903230000000  0.5441340000000 1.0
C      1  0.5538720000000  0.5400090000000  0.4517470000000 1.0
C      1  0.5437160000000  0.5339610000000  0.5429140000000 1.0
C      1  0.5357150000000  0.5531060000000  0.4687610000000 1.0
C      1  0.5433990000000  0.5624970000000  0.5475430000000 1.0
C      1  0.5117900000000  0.4384690000000  0.4493800000000 1.0
C      1  0.5114660000000  0.4364500000000  0.5499460000000 1.0
C      1  0.5524570000000  0.4108960000000  0.4785770000000 1.0
C      1  0.5517290000000  0.4072570000000  0.5224860000000 1.0
C      1  0.5130840000000  0.4638690000000  0.5611760000000 1.0
C      1  0.5119900000000  0.4655100000000  0.4371410000000 1.0
C      1  0.4461660000000  0.4458460000000  0.4752630000000 1.0
C      1  0.4466060000000  0.4458420000000  0.5245900000000 1.0
C      1  0.4343560000000  0.5377690000000  0.4680990000000 1.0
C      1  0.4351520000000  0.5475030000000  0.5328240000000 1.0
C      1  0.4485360000000  0.5046120000000  0.4323410000000 1.0
C      1  0.4514570000000  0.5074690000000  0.5598060000000 1.0
C      1  0.4482690000000  0.4846770000000  0.4764020000000 1.0
C      1  0.4493330000000  0.4873500000000  0.5199770000000 1.0
C      1  0.4691650000000  0.5243540000000  0.4239300000000 1.0
C      1  0.4731640000000  0.5232390000000  0.5699480000000 1.0
C      1  0.4907360000000  0.4778830000000  0.5748700000000 1.0
C      1  0.4897350000000  0.4787980000000  0.4225210000000 1.0
C      1  0.4979760000000  0.5065010000000  0.4651520000000 1.0
C      1  0.4940550000000  0.5139080000000  0.5318910000000 1.0
C      1  0.4660210000000  0.5743310000000  0.4656580000000 1.0
C      1  0.4648700000000  0.5568340000000  0.5353490000000 1.0
C      1  0.4264970000000  0.5142230000000  0.4519160000000 1.0
C      1  0.4300560000000  0.5198430000000  0.5426900000000 1.0
C      1  0.4195500000000  0.4964880000000  0.5257660000000 1.0
C      1  0.4186500000000  0.4918950000000  0.4708540000000 1.0
C      1  0.4639950000000  0.4784320000000  0.5606960000000 1.0
C      1  0.4634050000000  0.4772210000000  0.4356110000000 1.0
C      1  0.4677440000000  0.4264860000000  0.4751960000000 1.0
C      1  0.4667380000000  0.4253310000000  0.5258520000000 1.0
C      1  0.4856320000000  0.4262370000000  0.5464560000000 1.0
C      1  0.4866780000000  0.4274460000000  0.4546730000000 1.0
C      1  0.4123150000000  0.5517490000000  0.4793980000000 1.0
C      1  0.4146200000000  0.5608490000000  0.5172970000000 1.0
C      1  0.4072990000000  0.4691390000000  0.5006980000000 1.0
C      1  0.4600080000000  0.5328690000000  0.4862380000000 1.0
C      1  0.5732910000000  0.4474650000000  0.5050730000000 1.0
C      1  0.5690870000000  0.5019530000000  0.5054450000000 1.0
C      1  0.5753540000000  0.4191210000000  0.5081470000000 1.0
C      1  0.4492580000000  0.5809160000000  0.4892950000000 1.0
C      1  0.5018920000000  0.4735640000000  0.4978030000000 1.0
C      1  0.5882970000000  0.4885210000000  0.4857390000000 1.0
C      1  0.5434030000000  0.3903210000000  0.4984290000000 1.0
C      1  0.4595720000000  0.5982080000000  0.5090290000000 1.0
C      1  0.6051700000000  0.5136700000000  0.4851730000000 1.0
C      1  0.5465980000000  0.5629530000000  0.4935120000000 1.0
C      1  0.4747620000000  0.4608630000000  0.5016030000000 1.0
C      1  0.4925840000000  0.3941090000000  0.5003760000000 1.0
C      1  0.5861640000000  0.5284400000000  0.5037980000000 1.0
C      1  0.5297710000000  0.4737970000000  0.5024200000000 1.0
C      1  0.4774370000000  0.4168800000000  0.5005330000000 1.0
C      1  0.4207170000000  0.5752980000000  0.4929090000000 1.0
C      1  0.5926200000000  0.4616290000000  0.4908350000000 1.0
C      1  0.4602440000000  0.5031280000000  0.4960590000000 1.0
C      1  0.4318240000000  0.4516380000000  0.5004280000000 1.0
C      1  0.5392470000000  0.5018300000000  0.5002990000000 1.0
C      1  0.5165870000000  0.3834370000000  0.4983470000000 1.0
C      1  0.5710120000000  0.5516760000000  0.5003810000000 1.0
C      1  0.4061740000000  0.5016080000000  0.4979080000000 1.0
C      1  0.4922810000000  0.5009420000000  0.4950820000000 1.0
C      1  0.5273140000000  0.5726400000000  0.5139240000000 1.0
C      1  0.5437880000000  0.4484210000000  0.4999980000000 1.0
C      1  0.4983780000000  0.5705010000000  0.5044980000000 1.0
END
