TITL C-3578204-4308-7 9.76557445176804e-07 125000 -95.3204786082288 0 0 17 (C1) n - 1
REM
REM in /home/bkarasulu/work/CARBON/AIRSS/Generating-Clusters/EDIP-Nigel-Params/with-SteepDescent/Higher-Symm/SD-CG/HFTN-CG
REM
REM
REM
REM
REM
REM ./C.cell (12c818d87b63d06a65506943cc24bca4)
REM
REM compiler GCC version 9.2.1 20190827 (Red Hat 9.2.1-1)
REM options -cpp -mtune=generic -march=x86-64 -g -O0 -fpre-include=/usr/include/finclude/math-vector-fortran.h
REM seed -578004373 -181070826 -1019691165 523740542 -561293642 -752337087 -1210123201 -767873934 -1242377028 -1845449547 -808762136 -1263613196 -1449361708 675702504 -436408658 -89568091 -1865004882 1146100046 -1564114859 1014455741 1421188409 959385245 -1665008774 1530574067 -581386539 -101295631 52560171 -1914868452 1300738934 375392014 -1593504530 -1096563172 -1978159512
REM
CELL 1.54180   50.00000   50.00000   50.00000   90.00000   90.00000   90.00000
LATT -1
SFAC C  
C      1  0.5278170000000  0.4685220000000  0.4959060000000 1.0
C      1  0.4646720000000  0.5300520000000  0.4898090000000 1.0
C      1  0.4712320000000  0.5025770000000  0.4642420000000 1.0
C      1  0.4598310000000  0.4907720000000  0.5226590000000 1.0
C      1  0.5329440000000  0.5296530000000  0.5031320000000 1.0
C      1  0.5112160000000  0.4706930000000  0.4719590000000 1.0
C      1  0.4859800000000  0.5285310000000  0.4684120000000 1.0
C      1  0.4701270000000  0.4678730000000  0.5070850000000 1.0
C      1  0.5269780000000  0.5308550000000  0.5301020000000 1.0
C      1  0.5323440000000  0.5037420000000  0.5306600000000 1.0
C      1  0.4900170000000  0.4680310000000  0.5294230000000 1.0
C      1  0.5269850000000  0.4950570000000  0.4679760000000 1.0
C      1  0.5142790000000  0.5182100000000  0.4822610000000 1.0
C      1  0.4727580000000  0.5160400000000  0.5145070000000 1.0
C      1  0.5143270000000  0.4832070000000  0.5181930000000 1.0
C      1  0.4824890000000  0.4785570000000  0.4795560000000 1.0
C      1  0.4975710000000  0.5025300000000  0.5023710000000 1.0
END
