TITL C-3578206-1180-11 -2.80523144923683e-06 125000 -1105.70343358401 0 0 178 (C1) n - 1
REM
REM in /home/bkarasulu/work/CARBON/AIRSS/Generating-Clusters/EDIP-Nigel-Params/with-SteepDescent/Higher-Symm/SD-CG/HFTN-CG
REM
REM
REM
REM
REM
REM ./C.cell (12c818d87b63d06a65506943cc24bca4)
REM
REM compiler GCC version 9.2.1 20190827 (Red Hat 9.2.1-1)
REM options -cpp -mtune=generic -march=x86-64 -g -O0 -fpre-include=/usr/include/finclude/math-vector-fortran.h
REM seed -2031096512 1979264141 124174550 -229949591 918890923 1803340102 -862960354 1582828164 1897405177 -1209868390 -1468914335 -582137387 904702910 -1334050776 1770737995 -90624361 1204274031 -504870046 1614605614 -1753421367 -1877447552 -685574180 2084053619 564438359 1590485587 -1147771718 -1982949615 -177834240 844710440 -500597926 -222920339 -620842503 -1194925359
REM
CELL 1.54180   50.00000   50.00000   50.00000   90.00000   90.00000   90.00000
LATT -1
SFAC C  
C      1  0.5275180000000  0.6156770000000  0.5125780000000 1.0
C      1  0.5246620000000  0.4282570000000  0.5972530000000 1.0
C      1  0.5198430000000  0.4496530000000  0.3867160000000 1.0
C      1  0.5244910000000  0.6175090000000  0.4843170000000 1.0
C      1  0.5196690000000  0.4267190000000  0.4017870000000 1.0
C      1  0.5224760000000  0.4500580000000  0.6135490000000 1.0
C      1  0.6269980000000  0.4603040000000  0.5093690000000 1.0
C      1  0.6236640000000  0.5006440000000  0.4728860000000 1.0
C      1  0.6143680000000  0.5221430000000  0.5410700000000 1.0
C      1  0.6146760000000  0.4763430000000  0.4903200000000 1.0
C      1  0.6024870000000  0.4991720000000  0.5508810000000 1.0
C      1  0.6214730000000  0.5275260000000  0.4793210000000 1.0
C      1  0.5115080000000  0.3942700000000  0.5587540000000 1.0
C      1  0.5080880000000  0.4992150000000  0.3778160000000 1.0
C      1  0.5099890000000  0.6036750000000  0.5623490000000 1.0
C      1  0.5071030000000  0.3954460000000  0.4413430000000 1.0
C      1  0.5088880000000  0.5002540000000  0.6208730000000 1.0
C      1  0.5079140000000  0.6015070000000  0.4374460000000 1.0
C      1  0.4800250000000  0.4936510000000  0.3885730000000 1.0
C      1  0.4827150000000  0.5986100000000  0.5505070000000 1.0
C      1  0.4831490000000  0.4062100000000  0.5596160000000 1.0
C      1  0.4819370000000  0.4947200000000  0.6083060000000 1.0
C      1  0.4801600000000  0.5972050000000  0.4457140000000 1.0
C      1  0.4790350000000  0.4036370000000  0.4421060000000 1.0
C      1  0.5526430000000  0.5225420000000  0.5921150000000 1.0
C      1  0.5541810000000  0.4106800000000  0.4729580000000 1.0
C      1  0.5518140000000  0.5609810000000  0.4244440000000 1.0
C      1  0.5586540000000  0.5335890000000  0.4100860000000 1.0
C      1  0.5526460000000  0.4172460000000  0.5279010000000 1.0
C      1  0.5535470000000  0.5698420000000  0.5647560000000 1.0
C      1  0.5153430000000  0.4717990000000  0.5154600000000 1.0
C      1  0.5140230000000  0.4997060000000  0.4691300000000 1.0
C      1  0.5143770000000  0.5281670000000  0.5159490000000 1.0
C      1  0.5249270000000  0.4724320000000  0.4845340000000 1.0
C      1  0.5248220000000  0.5014290000000  0.5318530000000 1.0
C      1  0.5225730000000  0.5268470000000  0.4838020000000 1.0
C      1  0.5765630000000  0.5484810000000  0.5274010000000 1.0
C      1  0.5794250000000  0.4566800000000  0.5272530000000 1.0
C      1  0.5774060000000  0.5010820000000  0.4449070000000 1.0
C      1  0.5603330000000  0.5573230000000  0.4738420000000 1.0
C      1  0.5722930000000  0.4559910000000  0.4686190000000 1.0
C      1  0.5729800000000  0.5004130000000  0.5553470000000 1.0
C      1  0.4560170000000  0.4774800000000  0.5705850000000 1.0
C      1  0.4532450000000  0.4496460000000  0.4446200000000 1.0
C      1  0.4549870000000  0.5728220000000  0.4834610000000 1.0
C      1  0.4525310000000  0.4771770000000  0.4299460000000 1.0
C      1  0.4544050000000  0.4508110000000  0.5543110000000 1.0
C      1  0.4544350000000  0.5726990000000  0.5146030000000 1.0
C      1  0.5621740000000  0.5265690000000  0.5136150000000 1.0
C      1  0.5659770000000  0.4793100000000  0.5125970000000 1.0
C      1  0.5627600000000  0.5036380000000  0.4709570000000 1.0
C      1  0.5533630000000  0.5285590000000  0.4850030000000 1.0
C      1  0.5565720000000  0.4775830000000  0.4842810000000 1.0
C      1  0.5565410000000  0.5020200000000  0.5287700000000 1.0
C      1  0.4953740000000  0.4374360000000  0.4452580000000 1.0
C      1  0.4977130000000  0.5780530000000  0.4730850000000 1.0
C      1  0.4983390000000  0.4841240000000  0.5814790000000 1.0
C      1  0.4952940000000  0.4349190000000  0.5540060000000 1.0
C      1  0.4957520000000  0.5812770000000  0.5270740000000 1.0
C      1  0.4932290000000  0.4836610000000  0.4157600000000 1.0
C      1  0.4629170000000  0.4547980000000  0.4732340000000 1.0
C      1  0.4623970000000  0.5447240000000  0.4742110000000 1.0
C      1  0.4637140000000  0.4998890000000  0.5510720000000 1.0
C      1  0.4633460000000  0.4560070000000  0.5250670000000 1.0
C      1  0.4642920000000  0.5446670000000  0.5242900000000 1.0
C      1  0.4618290000000  0.4993640000000  0.4494830000000 1.0
C      1  0.5254270000000  0.4128300000000  0.4257950000000 1.0
C      1  0.5284050000000  0.6052340000000  0.4590990000000 1.0
C      1  0.5292500000000  0.4776630000000  0.6117100000000 1.0
C      1  0.5306890000000  0.4156800000000  0.5722410000000 1.0
C      1  0.5302150000000  0.6051660000000  0.5402600000000 1.0
C      1  0.5273730000000  0.4768360000000  0.3890290000000 1.0
C      1  0.3937220000000  0.4739630000000  0.5155890000000 1.0
C      1  0.3929180000000  0.4995310000000  0.4700850000000 1.0
C      1  0.3940450000000  0.5264440000000  0.5146180000000 1.0
C      1  0.3933510000000  0.4732550000000  0.4855000000000 1.0
C      1  0.3940560000000  0.5004870000000  0.5301590000000 1.0
C      1  0.3942620000000  0.5260850000000  0.4844280000000 1.0
C      1  0.5094360000000  0.5096700000000  0.5641640000000 1.0
C      1  0.5130200000000  0.4416460000000  0.4727160000000 1.0
C      1  0.5065370000000  0.5502600000000  0.4593890000000 1.0
C      1  0.5040970000000  0.5085520000000  0.4330900000000 1.0
C      1  0.5063840000000  0.4375340000000  0.5247130000000 1.0
C      1  0.5107110000000  0.5554200000000  0.5382900000000 1.0
C      1  0.4232620000000  0.4521550000000  0.5550510000000 1.0
C      1  0.4207440000000  0.4762110000000  0.4311520000000 1.0
C      1  0.4225610000000  0.5724100000000  0.5134440000000 1.0
C      1  0.4212420000000  0.4496770000000  0.4451040000000 1.0
C      1  0.4230550000000  0.4772050000000  0.5707020000000 1.0
C      1  0.4227540000000  0.5735020000000  0.4836500000000 1.0
C      1  0.4649020000000  0.5820720000000  0.4253450000000 1.0
C      1  0.4660610000000  0.5210010000000  0.6068990000000 1.0
C      1  0.4648670000000  0.3933010000000  0.4658710000000 1.0
C      1  0.4658510000000  0.5833980000000  0.5721020000000 1.0
C      1  0.4644520000000  0.5199820000000  0.3908570000000 1.0
C      1  0.4667660000000  0.3950290000000  0.5358480000000 1.0
C      1  0.4444630000000  0.4107520000000  0.4772210000000 1.0
C      1  0.4437240000000  0.5644260000000  0.4344740000000 1.0
C      1  0.4456830000000  0.5228310000000  0.5861640000000 1.0
C      1  0.4450040000000  0.4125760000000  0.5258160000000 1.0
C      1  0.4451880000000  0.5655880000000  0.5609550000000 1.0
C      1  0.4428490000000  0.5206440000000  0.4110640000000 1.0
C      1  0.6009900000000  0.4635280000000  0.4666650000000 1.0
C      1  0.6169960000000  0.5438720000000  0.4999090000000 1.0
C      1  0.6167470000000  0.4754650000000  0.5529340000000 1.0
C      1  0.6093990000000  0.4599170000000  0.5311660000000 1.0
C      1  0.6060960000000  0.5433450000000  0.5253180000000 1.0
C      1  0.6053630000000  0.4893070000000  0.4494670000000 1.0
C      1  0.5677140000000  0.5739710000000  0.5145340000000 1.0
C      1  0.5658250000000  0.4531490000000  0.5540500000000 1.0
C      1  0.5629490000000  0.4807370000000  0.4272310000000 1.0
C      1  0.5797630000000  0.5723480000000  0.4892910000000 1.0
C      1  0.5617640000000  0.4542410000000  0.4407500000000 1.0
C      1  0.5619350000000  0.4769960000000  0.5702710000000 1.0
C      1  0.5721220000000  0.4318980000000  0.5123560000000 1.0
C      1  0.5797300000000  0.5278190000000  0.4313210000000 1.0
C      1  0.5688220000000  0.5490460000000  0.5555730000000 1.0
C      1  0.5691670000000  0.4309060000000  0.4836040000000 1.0
C      1  0.5683790000000  0.5247230000000  0.5699680000000 1.0
C      1  0.5716950000000  0.5555230000000  0.4458710000000 1.0
C      1  0.4369600000000  0.5050790000000  0.4663530000000 1.0
C      1  0.4385770000000  0.5286870000000  0.5204980000000 1.0
C      1  0.4381690000000  0.4679970000000  0.5124260000000 1.0
C      1  0.4378130000000  0.5044210000000  0.5378170000000 1.0
C      1  0.4368130000000  0.5328450000000  0.4724040000000 1.0
C      1  0.4377000000000  0.4582080000000  0.4856560000000 1.0
C      1  0.4147750000000  0.5464050000000  0.5268950000000 1.0
C      1  0.4146590000000  0.4530090000000  0.5260490000000 1.0
C      1  0.4132570000000  0.5009630000000  0.4466570000000 1.0
C      1  0.4125700000000  0.5486430000000  0.4691010000000 1.0
C      1  0.4123630000000  0.4488740000000  0.4740480000000 1.0
C      1  0.4137830000000  0.5016420000000  0.5553780000000 1.0
C      1  0.5376270000000  0.5793350000000  0.5130150000000 1.0
C      1  0.5495240000000  0.4290020000000  0.5539470000000 1.0
C      1  0.5326770000000  0.4790380000000  0.4185880000000 1.0
C      1  0.5347770000000  0.5753600000000  0.4815450000000 1.0
C      1  0.5323910000000  0.4495370000000  0.4344140000000 1.0
C      1  0.5369540000000  0.4816180000000  0.5842830000000 1.0
C      1  0.5269430000000  0.5587990000000  0.5670610000000 1.0
C      1  0.5261160000000  0.4140090000000  0.5153010000000 1.0
C      1  0.5241960000000  0.5272550000000  0.4161710000000 1.0
C      1  0.5235750000000  0.5554080000000  0.4317830000000 1.0
C      1  0.5275050000000  0.4144810000000  0.4828550000000 1.0
C      1  0.5262250000000  0.5300880000000  0.5830310000000 1.0
C      1  0.5123540000000  0.3913860000000  0.4707820000000 1.0
C      1  0.5112530000000  0.5783680000000  0.4179840000000 1.0
C      1  0.5125010000000  0.5297150000000  0.6098260000000 1.0
C      1  0.5143420000000  0.3893910000000  0.5280280000000 1.0
C      1  0.5126130000000  0.5803260000000  0.5818450000000 1.0
C      1  0.5119380000000  0.5280430000000  0.3888650000000 1.0
C      1  0.4189530000000  0.4231590000000  0.5160120000000 1.0
C      1  0.4175460000000  0.5245650000000  0.4260810000000 1.0
C      1  0.4199890000000  0.5508930000000  0.5568340000000 1.0
C      1  0.4171730000000  0.4193360000000  0.4863370000000 1.0
C      1  0.4199710000000  0.5260750000000  0.5724020000000 1.0
C      1  0.4168600000000  0.5519720000000  0.4380360000000 1.0
C      1  0.4772950000000  0.4308840000000  0.4831610000000 1.0
C      1  0.4761100000000  0.5470850000000  0.4480360000000 1.0
C      1  0.4790180000000  0.5220080000000  0.5656080000000 1.0
C      1  0.4770300000000  0.4307980000000  0.5134170000000 1.0
C      1  0.4786310000000  0.5482290000000  0.5508460000000 1.0
C      1  0.4749490000000  0.5213460000000  0.4330510000000 1.0
C      1  0.4807060000000  0.4989820000000  0.5276040000000 1.0
C      1  0.4781100000000  0.4765860000000  0.4857910000000 1.0
C      1  0.4776510000000  0.5230350000000  0.4870060000000 1.0
C      1  0.4837540000000  0.4994710000000  0.4715810000000 1.0
C      1  0.4849700000000  0.4751790000000  0.5140090000000 1.0
C      1  0.4848890000000  0.5240670000000  0.5138320000000 1.0
C      1  0.4864350000000  0.5690700000000  0.5889780000000 1.0
C      1  0.4876290000000  0.3878470000000  0.5155080000000 1.0
C      1  0.4857450000000  0.5406530000000  0.3946960000000 1.0
C      1  0.4854220000000  0.5673140000000  0.4097230000000 1.0
C      1  0.4869330000000  0.3879180000000  0.4851950000000 1.0
C      1  0.4866130000000  0.5423670000000  0.6041420000000 1.0
C      1  0.4864320000000  0.5897570000000  0.4995380000000 1.0
C      1  0.4878950000000  0.4553170000000  0.5752110000000 1.0
C      1  0.4845340000000  0.4547850000000  0.4220760000000 1.0
C      1  0.4427480000000  0.4991220000000  0.4994730000000 1.0
END
