TITL C-3578207-9274-607 1.5862576988047e-07 125000 -426.056515139902 0 0 70 (C1) n - 1
REM
REM in /home/bkarasulu/work/CARBON/AIRSS/Generating-Clusters/EDIP-Nigel-Params/with-SteepDescent/Higher-Symm/SD-CG/HFTN-CG
REM
REM
REM
REM
REM
REM ./C.cell (12c818d87b63d06a65506943cc24bca4)
REM
REM compiler GCC version 9.2.1 20190827 (Red Hat 9.2.1-1)
REM options -cpp -mtune=generic -march=x86-64 -g -O0 -fpre-include=/usr/include/finclude/math-vector-fortran.h
REM seed 1142286158 -983725666 1308284856 -1845611227 -570897077 -1220467083 -1331936582 146722115 2044128982 -1961098525 1834401189 -787888375 -1181882501 -651940184 1872514399 -2031460993 1212820519 986718030 -388699279 695298487 -1179751139 -688304951 -1880370546 1536597191 1803910344 -193726476 950063628 874448322 977294145 619513223 264908861 1126399283 -1144794864
REM
CELL 1.54180   50.00000   50.00000   50.00000   90.00000   90.00000   90.00000
LATT -1
SFAC C  
C      1  0.4528830000000  0.4434370000000  0.4982800000000 1.0
C      1  0.5257570000000  0.4369070000000  0.4869600000000 1.0
C      1  0.5653970000000  0.4746760000000  0.4951970000000 1.0
C      1  0.5660620000000  0.5279120000000  0.5003830000000 1.0
C      1  0.5258320000000  0.5636830000000  0.4971920000000 1.0
C      1  0.4511360000000  0.5454990000000  0.4854290000000 1.0
C      1  0.4264540000000  0.5023790000000  0.4923660000000 1.0
C      1  0.4708500000000  0.4865790000000  0.5189700000000 1.0
C      1  0.4930590000000  0.4658970000000  0.5181690000000 1.0
C      1  0.5235350000000  0.4715650000000  0.5183430000000 1.0
C      1  0.5345640000000  0.4977670000000  0.5280330000000 1.0
C      1  0.5222690000000  0.5198270000000  0.5128390000000 1.0
C      1  0.4967580000000  0.5312050000000  0.5229000000000 1.0
C      1  0.4720910000000  0.5168840000000  0.5125330000000 1.0
C      1  0.5496370000000  0.5259970000000  0.4510240000000 1.0
C      1  0.5088530000000  0.5600110000000  0.4467640000000 1.0
C      1  0.4593260000000  0.5491890000000  0.4357420000000 1.0
C      1  0.4384550000000  0.5031370000000  0.4413140000000 1.0
C      1  0.4591720000000  0.4552220000000  0.4441190000000 1.0
C      1  0.5120180000000  0.4430920000000  0.4399370000000 1.0
C      1  0.5492640000000  0.4747400000000  0.4454970000000 1.0
C      1  0.4317890000000  0.5305690000000  0.5030630000000 1.0
C      1  0.4441340000000  0.4720760000000  0.5084600000000 1.0
C      1  0.4801780000000  0.4383960000000  0.5100290000000 1.0
C      1  0.5448320000000  0.4528220000000  0.5050480000000 1.0
C      1  0.5649340000000  0.4997480000000  0.5133900000000 1.0
C      1  0.5421470000000  0.5422790000000  0.5126720000000 1.0
C      1  0.4981050000000  0.5604980000000  0.5081030000000 1.0
C      1  0.5660670000000  0.5288410000000  0.4725110000000 1.0
C      1  0.5277450000000  0.5627760000000  0.4681050000000 1.0
C      1  0.4437920000000  0.5527270000000  0.4583980000000 1.0
C      1  0.4236660000000  0.4996910000000  0.4639170000000 1.0
C      1  0.4535590000000  0.4408800000000  0.4680920000000 1.0
C      1  0.5276570000000  0.4311040000000  0.4591680000000 1.0
C      1  0.5658900000000  0.4825580000000  0.4670860000000 1.0
C      1  0.4769070000000  0.5286650000000  0.4277730000000 1.0
C      1  0.4653120000000  0.5026380000000  0.4342000000000 1.0
C      1  0.4763330000000  0.4759090000000  0.4346880000000 1.0
C      1  0.5042900000000  0.4693060000000  0.4340590000000 1.0
C      1  0.5265780000000  0.4879330000000  0.4334650000000 1.0
C      1  0.5248920000000  0.5156360000000  0.4421400000000 1.0
C      1  0.5058000000000  0.5353000000000  0.4314460000000 1.0
C      1  0.5287260000000  0.4851850000000  0.4769570000000 1.0
C      1  0.5170010000000  0.5114810000000  0.4856760000000 1.0
C      1  0.5015470000000  0.5347510000000  0.4745460000000 1.0
C      1  0.4713620000000  0.5267370000000  0.4712770000000 1.0
C      1  0.4621290000000  0.4978650000000  0.4778380000000 1.0
C      1  0.4769540000000  0.4693630000000  0.4782860000000 1.0
C      1  0.5093100000000  0.4619120000000  0.4773640000000 1.0
C      1  0.5299210000000  0.4837960000000  0.5696160000000 1.0
C      1  0.5306600000000  0.5128170000000  0.5691700000000 1.0
C      1  0.5086310000000  0.5313770000000  0.5652650000000 1.0
C      1  0.4800300000000  0.5283710000000  0.5636310000000 1.0
C      1  0.4681190000000  0.5021690000000  0.5604120000000 1.0
C      1  0.4790970000000  0.4760990000000  0.5671190000000 1.0
C      1  0.5064820000000  0.4701350000000  0.5603670000000 1.0
C      1  0.5554380000000  0.5233150000000  0.5581570000000 1.0
C      1  0.5181350000000  0.5564990000000  0.5547710000000 1.0
C      1  0.4669580000000  0.5503630000000  0.5484690000000 1.0
C      1  0.4417470000000  0.5026820000000  0.5483950000000 1.0
C      1  0.4619760000000  0.4556640000000  0.5552360000000 1.0
C      1  0.5122430000000  0.4437590000000  0.5512990000000 1.0
C      1  0.5542700000000  0.4719180000000  0.5579620000000 1.0
C      1  0.5456630000000  0.5486050000000  0.5425740000000 1.0
C      1  0.4929980000000  0.5663470000000  0.5386630000000 1.0
C      1  0.4484720000000  0.5277710000000  0.5296750000000 1.0
C      1  0.4407530000000  0.4730550000000  0.5399080000000 1.0
C      1  0.4826960000000  0.4365590000000  0.5413880000000 1.0
C      1  0.5420050000000  0.4477970000000  0.5422430000000 1.0
C      1  0.5686950000000  0.4976480000000  0.5459380000000 1.0
END
