TITL C-3577083-591-60 -1.93560103080553e-06 125000 -849.910289125474 0 0 136 (C1) n - 1
REM
REM in /home/bkarasulu/work/CARBON/AIRSS/Generating-Clusters/EDIP-Nigel-Params/with-SteepDescent/Higher-Symm/SD-CG/HFTN-CG
REM
REM
REM
REM
REM
REM ./C.cell (12c818d87b63d06a65506943cc24bca4)
REM
REM compiler GCC version 9.2.1 20190827 (Red Hat 9.2.1-1)
REM options -cpp -mtune=generic -march=x86-64 -g -O0 -fpre-include=/usr/include/finclude/math-vector-fortran.h
REM seed -1092215570 -1167182513 45815366 1405238618 -347561655 -1305762149 -1506803154 396536296 -1725306718 -1113508216 -2141321461 146670938 61834976 848427048 -691558538 -1083802639 -1144344980 -14192180 1582966361 -1411053158 -1646922906 1747272619 -1339676663 1111058068 -615662779 -2024211576 1858419436 -369772415 -1800012247 2133167802 1309664651 1542423459 1586676208
REM
CELL 1.54180   50.00000   50.00000   50.00000   90.00000   90.00000   90.00000
LATT -1
SFAC C  
C      1  0.4291310000000  0.4589370000000  0.5148620000000 1.0
C      1  0.4206480000000  0.4731780000000  0.5615480000000 1.0
C      1  0.5507440000000  0.4879260000000  0.5030860000000 1.0
C      1  0.5546080000000  0.5320500000000  0.5751490000000 1.0
C      1  0.5222840000000  0.4376640000000  0.5733500000000 1.0
C      1  0.4274230000000  0.4311650000000  0.5034570000000 1.0
C      1  0.5346530000000  0.5076280000000  0.5767530000000 1.0
C      1  0.5378470000000  0.5460510000000  0.4893010000000 1.0
C      1  0.4605380000000  0.4140590000000  0.5379370000000 1.0
C      1  0.4996850000000  0.4700440000000  0.5999290000000 1.0
C      1  0.4415390000000  0.5730030000000  0.5336110000000 1.0
C      1  0.4215600000000  0.5216130000000  0.5688030000000 1.0
C      1  0.5192560000000  0.4071570000000  0.4561170000000 1.0
C      1  0.4823460000000  0.4320760000000  0.4360720000000 1.0
C      1  0.4496980000000  0.4348090000000  0.5567390000000 1.0
C      1  0.5158160000000  0.4817500000000  0.5352100000000 1.0
C      1  0.5125720000000  0.4572570000000  0.4925920000000 1.0
C      1  0.4516000000000  0.4147740000000  0.5095020000000 1.0
C      1  0.5339730000000  0.5547930000000  0.5751390000000 1.0
C      1  0.3934480000000  0.5008570000000  0.5004470000000 1.0
C      1  0.4636310000000  0.5163410000000  0.5455310000000 1.0
C      1  0.4486850000000  0.5263500000000  0.4994870000000 1.0
C      1  0.5165660000000  0.4151170000000  0.4097900000000 1.0
C      1  0.5723930000000  0.4527750000000  0.4715360000000 1.0
C      1  0.5616510000000  0.5804770000000  0.5122100000000 1.0
C      1  0.4410890000000  0.4606270000000  0.5439700000000 1.0
C      1  0.5913690000000  0.5175240000000  0.5389510000000 1.0
C      1  0.4486350000000  0.5356750000000  0.5685210000000 1.0
C      1  0.5343700000000  0.4503510000000  0.4411440000000 1.0
C      1  0.5146840000000  0.5648410000000  0.4913310000000 1.0
C      1  0.4907500000000  0.4134890000000  0.5396590000000 1.0
C      1  0.5554310000000  0.5100550000000  0.5239300000000 1.0
C      1  0.5711960000000  0.5668740000000  0.5379790000000 1.0
C      1  0.5728370000000  0.4396850000000  0.4968230000000 1.0
C      1  0.6035560000000  0.5165550000000  0.4628000000000 1.0
C      1  0.5025260000000  0.4107760000000  0.4336580000000 1.0
C      1  0.4082980000000  0.5122560000000  0.4771770000000 1.0
C      1  0.4889900000000  0.4606220000000  0.4208620000000 1.0
C      1  0.4561810000000  0.4578300000000  0.4675680000000 1.0
C      1  0.4675600000000  0.4846500000000  0.4602790000000 1.0
C      1  0.5300300000000  0.5277040000000  0.5325740000000 1.0
C      1  0.5353870000000  0.5586600000000  0.5459070000000 1.0
C      1  0.4915700000000  0.5382400000000  0.4217470000000 1.0
C      1  0.5651040000000  0.4594630000000  0.5667280000000 1.0
C      1  0.4725000000000  0.4405780000000  0.5749280000000 1.0
C      1  0.4715450000000  0.5004540000000  0.4882400000000 1.0
C      1  0.5433790000000  0.4783000000000  0.4389770000000 1.0
C      1  0.4567830000000  0.5295960000000  0.4496900000000 1.0
C      1  0.4200520000000  0.4971460000000  0.4552760000000 1.0
C      1  0.4868480000000  0.5534380000000  0.4840120000000 1.0
C      1  0.5208180000000  0.4839160000000  0.5057500000000 1.0
C      1  0.4858950000000  0.5597670000000  0.5530600000000 1.0
C      1  0.5945360000000  0.5192440000000  0.5079930000000 1.0
C      1  0.4026310000000  0.4746860000000  0.5153990000000 1.0
C      1  0.5797010000000  0.4684870000000  0.5406740000000 1.0
C      1  0.5462390000000  0.4790760000000  0.5831850000000 1.0
C      1  0.5247480000000  0.4604410000000  0.5921080000000 1.0
C      1  0.4206110000000  0.5371310000000  0.4876170000000 1.0
C      1  0.4292270000000  0.4501180000000  0.4600750000000 1.0
C      1  0.5742960000000  0.5394950000000  0.5514320000000 1.0
C      1  0.5575420000000  0.4360670000000  0.4524200000000 1.0
C      1  0.5744700000000  0.5568150000000  0.4527550000000 1.0
C      1  0.4154960000000  0.5647770000000  0.5284180000000 1.0
C      1  0.5979640000000  0.5452290000000  0.4671410000000 1.0
C      1  0.4765960000000  0.4366010000000  0.4660430000000 1.0
C      1  0.4615160000000  0.4911190000000  0.5822220000000 1.0
C      1  0.4188370000000  0.4301780000000  0.4765530000000 1.0
C      1  0.5179260000000  0.4616860000000  0.3963840000000 1.0
C      1  0.5098360000000  0.4555180000000  0.4611080000000 1.0
C      1  0.5399390000000  0.4453390000000  0.5290810000000 1.0
C      1  0.4796530000000  0.4943050000000  0.4048060000000 1.0
C      1  0.5019000000000  0.4130840000000  0.5119910000000 1.0
C      1  0.5110660000000  0.5580490000000  0.4314090000000 1.0
C      1  0.5703610000000  0.4952040000000  0.5498130000000 1.0
C      1  0.5211060000000  0.4987200000000  0.4350340000000 1.0
C      1  0.3924060000000  0.5236310000000  0.5214470000000 1.0
C      1  0.5308450000000  0.5206410000000  0.4762750000000 1.0
C      1  0.5910470000000  0.4745800000000  0.4659640000000 1.0
C      1  0.5456460000000  0.4126700000000  0.4648720000000 1.0
C      1  0.5371920000000  0.4835030000000  0.3942590000000 1.0
C      1  0.4555840000000  0.5631730000000  0.5575380000000 1.0
C      1  0.4822900000000  0.5376400000000  0.5305600000000 1.0
C      1  0.4768270000000  0.5725300000000  0.4624300000000 1.0
C      1  0.6070890000000  0.5006830000000  0.4885050000000 1.0
C      1  0.4126000000000  0.4706890000000  0.4513700000000 1.0
C      1  0.5037290000000  0.5206140000000  0.5886320000000 1.0
C      1  0.4848750000000  0.5902700000000  0.5132310000000 1.0
C      1  0.5538280000000  0.5012720000000  0.4752080000000 1.0
C      1  0.5785480000000  0.5004830000000  0.4545020000000 1.0
C      1  0.5169770000000  0.5900970000000  0.4718620000000 1.0
C      1  0.4033310000000  0.5478250000000  0.5098530000000 1.0
C      1  0.5459920000000  0.4381840000000  0.5564810000000 1.0
C      1  0.5332340000000  0.5920410000000  0.5125340000000 1.0
C      1  0.4825090000000  0.5216580000000  0.4425850000000 1.0
C      1  0.4578080000000  0.4903820000000  0.4235950000000 1.0
C      1  0.4140550000000  0.5133840000000  0.5401940000000 1.0
C      1  0.5741280000000  0.5045820000000  0.4221300000000 1.0
C      1  0.5603200000000  0.4792140000000  0.4140300000000 1.0
C      1  0.5276520000000  0.4407820000000  0.4131310000000 1.0
C      1  0.4983440000000  0.5173920000000  0.4014060000000 1.0
C      1  0.5541060000000  0.5257090000000  0.4151740000000 1.0
C      1  0.4579230000000  0.5582960000000  0.4429860000000 1.0
C      1  0.4398950000000  0.5094090000000  0.4373100000000 1.0
C      1  0.4635490000000  0.4761860000000  0.5070260000000 1.0
C      1  0.4956890000000  0.5842540000000  0.5393690000000 1.0
C      1  0.4956530000000  0.4784270000000  0.4456860000000 1.0
C      1  0.5909670000000  0.5456610000000  0.4960720000000 1.0
C      1  0.4770940000000  0.4176990000000  0.4933370000000 1.0
C      1  0.5629620000000  0.4598980000000  0.5171440000000 1.0
C      1  0.5533340000000  0.5468180000000  0.4354370000000 1.0
C      1  0.5247290000000  0.5264490000000  0.4483790000000 1.0
C      1  0.5236420000000  0.5846740000000  0.5384360000000 1.0
C      1  0.4963110000000  0.4379530000000  0.5569280000000 1.0
C      1  0.5275900000000  0.5091750000000  0.4066920000000 1.0
C      1  0.5023160000000  0.6057570000000  0.4939150000000 1.0
C      1  0.4384780000000  0.5745700000000  0.4555590000000 1.0
C      1  0.4214570000000  0.5577910000000  0.4682760000000 1.0
C      1  0.4736590000000  0.4660280000000  0.5903640000000 1.0
C      1  0.5064000000000  0.5288630000000  0.5153180000000 1.0
C      1  0.4674570000000  0.5497950000000  0.5066080000000 1.0
C      1  0.4320240000000  0.4942300000000  0.5790670000000 1.0
C      1  0.4854430000000  0.4535030000000  0.5062750000000 1.0
C      1  0.4658130000000  0.4796520000000  0.5397900000000 1.0
C      1  0.5054410000000  0.5081670000000  0.4937690000000 1.0
C      1  0.4412580000000  0.5135400000000  0.5258670000000 1.0
C      1  0.5259420000000  0.4316970000000  0.5065950000000 1.0
C      1  0.5015550000000  0.5810550000000  0.4473150000000 1.0
C      1  0.5050920000000  0.5483560000000  0.5781420000000 1.0
C      1  0.5204460000000  0.5062640000000  0.5505510000000 1.0
C      1  0.4024020000000  0.4859490000000  0.5428380000000 1.0
C      1  0.4758760000000  0.5130460000000  0.5951370000000 1.0
C      1  0.4929040000000  0.4629640000000  0.5376510000000 1.0
C      1  0.5640570000000  0.5606730000000  0.4896340000000 1.0
C      1  0.4561600000000  0.5863190000000  0.5125760000000 1.0
C      1  0.5502920000000  0.4195170000000  0.4931280000000 1.0
C      1  0.4593480000000  0.5354430000000  0.5956980000000 1.0
END
