TITL C-3577088-510-99 -1.69692861230469e-07 125000 -58.4170242537313 0 0 11 (C1) n - 1
REM
REM in /home/bkarasulu/work/CARBON/AIRSS/Generating-Clusters/EDIP-Nigel-Params/with-SteepDescent/Higher-Symm/SD-CG/HFTN-CG
REM
REM
REM
REM
REM
REM ./C.cell (12c818d87b63d06a65506943cc24bca4)
REM
REM compiler GCC version 9.2.1 20190827 (Red Hat 9.2.1-1)
REM options -cpp -mtune=generic -march=x86-64 -g -O0 -fpre-include=/usr/include/finclude/math-vector-fortran.h
REM seed -874523694 1989427004 1191065417 -847576156 -1411960990 869638132 -1686086239 1955178817 1725622964 -2067321124 -1442115235 -1195619882 -1787373067 -1075364186 557959143 -1526395707 -169984281 2048210069 429698349 -1827778655 -390605426 401269478 -629469408 780378380 1395258102 318552219 -1872768013 1598484500 -864737034 102958630 -335871468 -624015518 -1990855747
REM
CELL 1.54180   50.00000   50.00000   50.00000   90.00000   90.00000   90.00000
LATT -1
SFAC C  
C      1  0.5469020000000  0.4913750000000  0.5039430000000 1.0
C      1  0.5011720000000  0.4922800000000  0.4773650000000 1.0
C      1  0.4739720000000  0.4847020000000  0.4880520000000 1.0
C      1  0.4684350000000  0.4819280000000  0.5163700000000 1.0
C      1  0.4895190000000  0.4844600000000  0.5356260000000 1.0
C      1  0.5412900000000  0.5165540000000  0.4955690000000 1.0
C      1  0.5016700000000  0.5085440000000  0.5252470000000 1.0
C      1  0.4760650000000  0.5197310000000  0.5138310000000 1.0
C      1  0.4716340000000  0.5231740000000  0.4853990000000 1.0
C      1  0.4926970000000  0.5178110000000  0.4667080000000 1.0
C      1  0.5181640000000  0.4989670000000  0.5016390000000 1.0
END
