TITL C-3578202-4305-448 -2.6863650073379e-07 125000 -919.010239585574 0 0 147 (C1) n - 1
REM
REM in /home/bkarasulu/work/CARBON/AIRSS/Generating-Clusters/EDIP-Nigel-Params/with-SteepDescent/Higher-Symm/SD-CG/HFTN-CG
REM
REM
REM
REM
REM
REM ./C.cell (12c818d87b63d06a65506943cc24bca4)
REM
REM compiler GCC version 9.2.1 20190827 (Red Hat 9.2.1-1)
REM options -cpp -mtune=generic -march=x86-64 -g -O0 -fpre-include=/usr/include/finclude/math-vector-fortran.h
REM seed -129475281 -126704094 1431857638 -875490945 1972827104 -1078573589 -2048049285 280113716 481795251 -1256962353 1307014913 -1013906959 -331460430 -320268376 927033206 -409330980 855318093 -1101450562 518946121 1557963856 11284523 248137543 884901358 -2111005247 -700034331 642255287 -703032441 1334852710 -2115720333 -2081918793 780657577 394706713 1414870208
REM
CELL 1.54180   50.00000   50.00000   50.00000   90.00000   90.00000   90.00000
LATT -1
SFAC C  
C      1  0.5091760000000  0.4185300000000  0.4986060000000 1.0
C      1  0.5819250000000  0.5336350000000  0.4566150000000 1.0
C      1  0.5008720000000  0.5023560000000  0.3946180000000 1.0
C      1  0.5411460000000  0.4081260000000  0.5271760000000 1.0
C      1  0.4028740000000  0.5419850000000  0.5009120000000 1.0
C      1  0.4586850000000  0.4312260000000  0.4548440000000 1.0
C      1  0.4135170000000  0.5254390000000  0.5479510000000 1.0
C      1  0.5335140000000  0.4475120000000  0.4173850000000 1.0
C      1  0.5011180000000  0.4578000000000  0.5841160000000 1.0
C      1  0.5691230000000  0.5161410000000  0.4334080000000 1.0
C      1  0.4208880000000  0.5022080000000  0.5661240000000 1.0
C      1  0.5298750000000  0.5611460000000  0.5037450000000 1.0
C      1  0.4383240000000  0.5537600000000  0.4370860000000 1.0
C      1  0.5074430000000  0.5860430000000  0.5392170000000 1.0
C      1  0.4343170000000  0.4360080000000  0.4386020000000 1.0
C      1  0.5740970000000  0.5788020000000  0.4974590000000 1.0
C      1  0.4489610000000  0.4329680000000  0.5464730000000 1.0
C      1  0.4286560000000  0.5028400000000  0.4417040000000 1.0
C      1  0.5785720000000  0.4483670000000  0.4724020000000 1.0
C      1  0.4671060000000  0.5613470000000  0.4470170000000 1.0
C      1  0.4727020000000  0.5457720000000  0.3971040000000 1.0
C      1  0.5519190000000  0.4465480000000  0.4595190000000 1.0
C      1  0.5888550000000  0.4923630000000  0.4892220000000 1.0
C      1  0.4760120000000  0.5635690000000  0.5647410000000 1.0
C      1  0.5053930000000  0.5899870000000  0.4397720000000 1.0
C      1  0.5748310000000  0.4836590000000  0.4385130000000 1.0
C      1  0.4480310000000  0.5344700000000  0.4850890000000 1.0
C      1  0.6000690000000  0.5685070000000  0.5005460000000 1.0
C      1  0.5172020000000  0.5785890000000  0.4648650000000 1.0
C      1  0.4060450000000  0.4850010000000  0.4836130000000 1.0
C      1  0.4910830000000  0.5473380000000  0.4193700000000 1.0
C      1  0.5625670000000  0.4859370000000  0.5020680000000 1.0
C      1  0.5063000000000  0.4335530000000  0.4549190000000 1.0
C      1  0.5566000000000  0.5496320000000  0.4600270000000 1.0
C      1  0.4788930000000  0.5775680000000  0.5388270000000 1.0
C      1  0.4987400000000  0.4920820000000  0.6122510000000 1.0
C      1  0.5179080000000  0.5055210000000  0.4995990000000 1.0
C      1  0.4633380000000  0.4056890000000  0.5026870000000 1.0
C      1  0.4811450000000  0.4969760000000  0.4769100000000 1.0
C      1  0.4626930000000  0.4278260000000  0.5717630000000 1.0
C      1  0.5056590000000  0.5946400000000  0.4882690000000 1.0
C      1  0.5594240000000  0.4735170000000  0.6032760000000 1.0
C      1  0.4533880000000  0.5468740000000  0.5676650000000 1.0
C      1  0.4123970000000  0.4414850000000  0.4550560000000 1.0
C      1  0.5050360000000  0.4487130000000  0.4975340000000 1.0
C      1  0.5117110000000  0.5141420000000  0.4404790000000 1.0
C      1  0.4965740000000  0.4505990000000  0.5550610000000 1.0
C      1  0.4814770000000  0.4475070000000  0.4445640000000 1.0
C      1  0.5104350000000  0.4603660000000  0.4051280000000 1.0
C      1  0.5425370000000  0.4336050000000  0.5767220000000 1.0
C      1  0.4129730000000  0.5073210000000  0.4657250000000 1.0
C      1  0.4540550000000  0.4987810000000  0.5163350000000 1.0
C      1  0.4696640000000  0.4976430000000  0.6010920000000 1.0
C      1  0.5578620000000  0.4597620000000  0.5787020000000 1.0
C      1  0.3937680000000  0.4731340000000  0.5292400000000 1.0
C      1  0.5526600000000  0.4175790000000  0.5013930000000 1.0
C      1  0.5693930000000  0.5665460000000  0.5426780000000 1.0
C      1  0.4688480000000  0.4083910000000  0.4730490000000 1.0
C      1  0.4648560000000  0.4725590000000  0.5230460000000 1.0
C      1  0.4415680000000  0.4609900000000  0.5425500000000 1.0
C      1  0.5225150000000  0.5099340000000  0.6027330000000 1.0
C      1  0.5110260000000  0.5698070000000  0.4180670000000 1.0
C      1  0.4981870000000  0.4106600000000  0.4722540000000 1.0
C      1  0.5174080000000  0.5421280000000  0.5265100000000 1.0
C      1  0.4542620000000  0.4742170000000  0.5912190000000 1.0
C      1  0.5943720000000  0.4735850000000  0.5304000000000 1.0
C      1  0.4659150000000  0.4710620000000  0.4718470000000 1.0
C      1  0.4776680000000  0.5032760000000  0.6281690000000 1.0
C      1  0.5394570000000  0.5597770000000  0.4201520000000 1.0
C      1  0.5904050000000  0.5224590000000  0.4841280000000 1.0
C      1  0.5130050000000  0.5234490000000  0.4138040000000 1.0
C      1  0.4011280000000  0.5204490000000  0.5205080000000 1.0
C      1  0.5014070000000  0.5005430000000  0.5481100000000 1.0
C      1  0.5379590000000  0.4868440000000  0.4861840000000 1.0
C      1  0.5809110000000  0.5402420000000  0.5348630000000 1.0
C      1  0.6092090000000  0.4831420000000  0.5082390000000 1.0
C      1  0.5011630000000  0.5501440000000  0.5726250000000 1.0
C      1  0.4375010000000  0.4595300000000  0.4200760000000 1.0
C      1  0.4392560000000  0.5263770000000  0.4259940000000 1.0
C      1  0.5556150000000  0.5586430000000  0.4885800000000 1.0
C      1  0.5406100000000  0.4583350000000  0.5354580000000 1.0
C      1  0.4839320000000  0.4501670000000  0.4138290000000 1.0
C      1  0.5265920000000  0.4592630000000  0.4763160000000 1.0
C      1  0.5250700000000  0.5907070000000  0.5151500000000 1.0
C      1  0.5188980000000  0.5609780000000  0.5517480000000 1.0
C      1  0.4305610000000  0.5500540000000  0.5511390000000 1.0
C      1  0.5427910000000  0.4763730000000  0.5596380000000 1.0
C      1  0.4094840000000  0.5669450000000  0.5120130000000 1.0
C      1  0.5011430000000  0.5538540000000  0.4732330000000 1.0
C      1  0.4207990000000  0.4407370000000  0.5032450000000 1.0
C      1  0.4375540000000  0.4782890000000  0.5672880000000 1.0
C      1  0.5679020000000  0.4625170000000  0.5190530000000 1.0
C      1  0.5515840000000  0.4637750000000  0.4352960000000 1.0
C      1  0.5203370000000  0.4381260000000  0.5939850000000 1.0
C      1  0.4503910000000  0.4316410000000  0.5100210000000 1.0
C      1  0.4731990000000  0.4889430000000  0.4322650000000 1.0
C      1  0.3982460000000  0.4931800000000  0.5105170000000 1.0
C      1  0.5442900000000  0.5307340000000  0.4151720000000 1.0
C      1  0.5727860000000  0.4394050000000  0.5005770000000 1.0
C      1  0.4307570000000  0.5696220000000  0.5298480000000 1.0
C      1  0.4602460000000  0.4614140000000  0.4005040000000 1.0
C      1  0.5183570000000  0.3899950000000  0.5227300000000 1.0
C      1  0.4767370000000  0.5235900000000  0.5474560000000 1.0
C      1  0.5899830000000  0.4752240000000  0.4644290000000 1.0
C      1  0.4128170000000  0.4559910000000  0.4791860000000 1.0
C      1  0.5201280000000  0.5387440000000  0.5925570000000 1.0
C      1  0.5214550000000  0.5122810000000  0.5282500000000 1.0
C      1  0.4912940000000  0.4222960000000  0.5472450000000 1.0
C      1  0.5813500000000  0.5185430000000  0.5551650000000 1.0
C      1  0.4464750000000  0.4787100000000  0.4419620000000 1.0
C      1  0.5247270000000  0.4233610000000  0.4332360000000 1.0
C      1  0.5541160000000  0.5716640000000  0.4410340000000 1.0
C      1  0.4703670000000  0.4546770000000  0.4984900000000 1.0
C      1  0.4912930000000  0.4053500000000  0.5217160000000 1.0
C      1  0.4931560000000  0.4735070000000  0.5360460000000 1.0
C      1  0.4177370000000  0.5547860000000  0.4563740000000 1.0
C      1  0.5955360000000  0.5413310000000  0.5081370000000 1.0
C      1  0.5165960000000  0.4865190000000  0.5725840000000 1.0
C      1  0.4191240000000  0.5344260000000  0.4769240000000 1.0
C      1  0.5329420000000  0.5245110000000  0.4577420000000 1.0
C      1  0.5475730000000  0.4992420000000  0.4613910000000 1.0
C      1  0.4161460000000  0.4564190000000  0.5276010000000 1.0
C      1  0.4685130000000  0.5159470000000  0.4977790000000 1.0
C      1  0.4862220000000  0.5067100000000  0.4502980000000 1.0
C      1  0.5530590000000  0.5674470000000  0.5660570000000 1.0
C      1  0.4577640000000  0.5227370000000  0.4034330000000 1.0
C      1  0.4494610000000  0.5115440000000  0.5417710000000 1.0
C      1  0.5922110000000  0.4936630000000  0.5494780000000 1.0
C      1  0.5637710000000  0.5199920000000  0.5787430000000 1.0
C      1  0.5147120000000  0.4799520000000  0.3855110000000 1.0
C      1  0.5507740000000  0.4997670000000  0.5965590000000 1.0
C      1  0.5609290000000  0.5865180000000  0.5224730000000 1.0
C      1  0.4767150000000  0.6020210000000  0.4779120000000 1.0
C      1  0.4549460000000  0.5843230000000  0.5227820000000 1.0
C      1  0.4761750000000  0.5910810000000  0.4487590000000 1.0
C      1  0.5471450000000  0.5435050000000  0.5811410000000 1.0
C      1  0.5349170000000  0.4303080000000  0.5469980000000 1.0
C      1  0.4545100000000  0.5949950000000  0.4957530000000 1.0
C      1  0.4864010000000  0.5386080000000  0.5191180000000 1.0
C      1  0.5160080000000  0.4660180000000  0.5187900000000 1.0
C      1  0.4710430000000  0.4495790000000  0.5909710000000 1.0
C      1  0.5476730000000  0.4175370000000  0.4522160000000 1.0
C      1  0.4725610000000  0.4962350000000  0.4029860000000 1.0
C      1  0.4589390000000  0.5604670000000  0.4784520000000 1.0
C      1  0.4840500000000  0.5630500000000  0.4972140000000 1.0
C      1  0.5451240000000  0.4044010000000  0.4772870000000 1.0
C      1  0.5181280000000  0.5301210000000  0.4820790000000 1.0
END
