TITL C-3577088-510-86 -7.00265444614551e-06 125000 -969.836381668772 0 0 160 (C1) n - 1
REM
REM in /home/bkarasulu/work/CARBON/AIRSS/Generating-Clusters/EDIP-Nigel-Params/with-SteepDescent/Higher-Symm/SD-CG/HFTN-CG
REM
REM
REM
REM
REM
REM ./C.cell (12c818d87b63d06a65506943cc24bca4)
REM
REM compiler GCC version 9.2.1 20190827 (Red Hat 9.2.1-1)
REM options -cpp -mtune=generic -march=x86-64 -g -O0 -fpre-include=/usr/include/finclude/math-vector-fortran.h
REM seed 902430893 -944005545 1121753447 600027132 -679914159 1979705938 -1020953225 -660792165 -90554780 877282187 1232588948 1936028260 -77885196 -1295778450 64674898 1939180588 -1052479442 1184532250 -1663577217 1320069027 484182037 1273585920 1653745129 1063837810 -505760636 2067005960 337923665 241422168 -1240497815 376531479 -736412201 2103837084 1272922984
REM
CELL 1.54180   50.00000   50.00000   50.00000   90.00000   90.00000   90.00000
LATT -1
SFAC C  
C      1  0.4548450000000  0.5175470000000  0.4155520000000 1.0
C      1  0.4041780000000  0.5187030000000  0.5056410000000 1.0
C      1  0.4948320000000  0.5213420000000  0.5984810000000 1.0
C      1  0.5839150000000  0.5185270000000  0.5421960000000 1.0
C      1  0.5683680000000  0.5225350000000  0.4297180000000 1.0
C      1  0.5435140000000  0.5190860000000  0.4151950000000 1.0
C      1  0.5966170000000  0.5193080000000  0.5158500000000 1.0
C      1  0.5224200000000  0.5175290000000  0.5916560000000 1.0
C      1  0.4063530000000  0.5220690000000  0.5340880000000 1.0
C      1  0.4339380000000  0.5168590000000  0.4358310000000 1.0
C      1  0.4850340000000  0.5321420000000  0.5467180000000 1.0
C      1  0.5394310000000  0.5348110000000  0.5247960000000 1.0
C      1  0.5380370000000  0.5244150000000  0.4706320000000 1.0
C      1  0.4863630000000  0.5220150000000  0.4546030000000 1.0
C      1  0.4524250000000  0.5217660000000  0.5008190000000 1.0
C      1  0.5141190000000  0.5321340000000  0.5428430000000 1.0
C      1  0.4612330000000  0.5325490000000  0.5278880000000 1.0
C      1  0.4645510000000  0.5306560000000  0.4727380000000 1.0
C      1  0.5146460000000  0.5309370000000  0.4538870000000 1.0
C      1  0.5512070000000  0.5200500000000  0.4986710000000 1.0
C      1  0.5845230000000  0.4865740000000  0.4889840000000 1.0
C      1  0.5164610000000  0.4843910000000  0.4130210000000 1.0
C      1  0.4313610000000  0.4805360000000  0.4602390000000 1.0
C      1  0.4376630000000  0.5018810000000  0.5573240000000 1.0
C      1  0.5355930000000  0.4797080000000  0.5742540000000 1.0
C      1  0.4206160000000  0.4814880000000  0.4883300000000 1.0
C      1  0.4840230000000  0.4849850000000  0.4125060000000 1.0
C      1  0.5752320000000  0.4911010000000  0.4591690000000 1.0
C      1  0.5600060000000  0.4841990000000  0.5567200000000 1.0
C      1  0.4613280000000  0.5029290000000  0.5772260000000 1.0
C      1  0.4479290000000  0.5774390000000  0.5446170000000 1.0
C      1  0.5134190000000  0.5752630000000  0.5527960000000 1.0
C      1  0.5496060000000  0.5647790000000  0.5021840000000 1.0
C      1  0.5116060000000  0.5778700000000  0.4450990000000 1.0
C      1  0.4625960000000  0.5781770000000  0.4571030000000 1.0
C      1  0.5444000000000  0.5784170000000  0.5297960000000 1.0
C      1  0.4753120000000  0.5816500000000  0.5571860000000 1.0
C      1  0.4464750000000  0.5778630000000  0.5153180000000 1.0
C      1  0.4826530000000  0.5756580000000  0.4365420000000 1.0
C      1  0.5384710000000  0.5739370000000  0.4732990000000 1.0
C      1  0.4485780000000  0.4529680000000  0.5025340000000 1.0
C      1  0.4753030000000  0.4531490000000  0.5594340000000 1.0
C      1  0.5383770000000  0.4545310000000  0.5309480000000 1.0
C      1  0.5434770000000  0.4543800000000  0.4685290000000 1.0
C      1  0.4882240000000  0.4491870000000  0.4467010000000 1.0
C      1  0.5485850000000  0.4525630000000  0.4989160000000 1.0
C      1  0.5125150000000  0.4527190000000  0.5494360000000 1.0
C      1  0.4518110000000  0.4540740000000  0.5392070000000 1.0
C      1  0.4601000000000  0.4510250000000  0.4732800000000 1.0
C      1  0.5186940000000  0.4505780000000  0.4483710000000 1.0
C      1  0.4449220000000  0.4829900000000  0.5348470000000 1.0
C      1  0.5092240000000  0.4814140000000  0.5586610000000 1.0
C      1  0.5568350000000  0.4898500000000  0.5031130000000 1.0
C      1  0.5210240000000  0.4889110000000  0.4445670000000 1.0
C      1  0.4613410000000  0.4799370000000  0.4633470000000 1.0
C      1  0.5469740000000  0.4827000000000  0.5308210000000 1.0
C      1  0.4819600000000  0.4805740000000  0.5698470000000 1.0
C      1  0.4447030000000  0.4914550000000  0.5057750000000 1.0
C      1  0.4847660000000  0.4791270000000  0.4436460000000 1.0
C      1  0.5464080000000  0.4821920000000  0.4611270000000 1.0
C      1  0.5302730000000  0.4568780000000  0.4036140000000 1.0
C      1  0.4193440000000  0.4500560000000  0.4396750000000 1.0
C      1  0.4044960000000  0.4497710000000  0.5500460000000 1.0
C      1  0.5337960000000  0.4496040000000  0.5981380000000 1.0
C      1  0.5988920000000  0.4534280000000  0.5006180000000 1.0
C      1  0.4652140000000  0.4524050000000  0.4025050000000 1.0
C      1  0.5827150000000  0.4576280000000  0.4402630000000 1.0
C      1  0.5821530000000  0.4524250000000  0.5583820000000 1.0
C      1  0.4801430000000  0.4483580000000  0.6069760000000 1.0
C      1  0.3966640000000  0.4516310000000  0.4961940000000 1.0
C      1  0.4330220000000  0.4095450000000  0.5401400000000 1.0
C      1  0.5190090000000  0.4080100000000  0.5711500000000 1.0
C      1  0.5719460000000  0.4078280000000  0.5027630000000 1.0
C      1  0.5277440000000  0.4074720000000  0.4271440000000 1.0
C      1  0.4429510000000  0.4075590000000  0.4543420000000 1.0
C      1  0.5581820000000  0.4111510000000  0.5386010000000 1.0
C      1  0.4807540000000  0.4104610000000  0.5742920000000 1.0
C      1  0.4261640000000  0.4102650000000  0.5022160000000 1.0
C      1  0.4727100000000  0.4084260000000  0.4299670000000 1.0
C      1  0.5573830000000  0.4123810000000  0.4516910000000 1.0
C      1  0.3993940000000  0.4992870000000  0.5508230000000 1.0
C      1  0.5362070000000  0.4977800000000  0.6081360000000 1.0
C      1  0.6152040000000  0.4984660000000  0.5088850000000 1.0
C      1  0.5440810000000  0.5015920000000  0.3922080000000 1.0
C      1  0.4126230000000  0.4979180000000  0.4313710000000 1.0
C      1  0.5951990000000  0.4995480000000  0.5606040000000 1.0
C      1  0.4811480000000  0.4983890000000  0.6103780000000 1.0
C      1  0.3866570000000  0.4981320000000  0.4960070000000 1.0
C      1  0.4527340000000  0.4985060000000  0.3942520000000 1.0
C      1  0.5880660000000  0.5022890000000  0.4245190000000 1.0
C      1  0.3842600000000  0.4731160000000  0.5111690000000 1.0
C      1  0.4933130000000  0.4722720000000  0.6153630000000 1.0
C      1  0.6016400000000  0.4727540000000  0.5498030000000 1.0
C      1  0.5778220000000  0.4758820000000  0.4179750000000 1.0
C      1  0.4435250000000  0.4720830000000  0.4014340000000 1.0
C      1  0.6109340000000  0.4720230000000  0.5206640000000 1.0
C      1  0.5233590000000  0.4717030000000  0.6153350000000 1.0
C      1  0.3934150000000  0.4735240000000  0.5394320000000 1.0
C      1  0.4192110000000  0.4715360000000  0.4193950000000 1.0
C      1  0.5554750000000  0.4744140000000  0.3964750000000 1.0
C      1  0.5845320000000  0.5786840000000  0.4563840000000 1.0
C      1  0.4899440000000  0.5633390000000  0.3906800000000 1.0
C      1  0.4117230000000  0.5812340000000  0.4832990000000 1.0
C      1  0.4522480000000  0.5690070000000  0.5997090000000 1.0
C      1  0.5710080000000  0.5813380000000  0.5718730000000 1.0
C      1  0.4142900000000  0.5810920000000  0.4567320000000 1.0
C      1  0.5140580000000  0.5738710000000  0.3968240000000 1.0
C      1  0.5925660000000  0.5778150000000  0.4821200000000 1.0
C      1  0.5484150000000  0.5779280000000  0.5860100000000 1.0
C      1  0.4310950000000  0.5587930000000  0.5863630000000 1.0
C      1  0.5791760000000  0.5611160000000  0.5000900000000 1.0
C      1  0.5257380000000  0.5659780000000  0.4209810000000 1.0
C      1  0.4368770000000  0.5657210000000  0.4501720000000 1.0
C      1  0.4314310000000  0.5570940000000  0.5583870000000 1.0
C      1  0.5259180000000  0.5642330000000  0.5771180000000 1.0
C      1  0.4230580000000  0.5650860000000  0.5027800000000 1.0
C      1  0.4776730000000  0.5556700000000  0.4150380000000 1.0
C      1  0.5608760000000  0.5634400000000  0.4549300000000 1.0
C      1  0.5677650000000  0.5687020000000  0.5471540000000 1.0
C      1  0.4747080000000  0.5646910000000  0.5833390000000 1.0
C      1  0.5803190000000  0.5322280000000  0.4942630000000 1.0
C      1  0.5202300000000  0.5362560000000  0.4242630000000 1.0
C      1  0.4370540000000  0.5366520000000  0.4591490000000 1.0
C      1  0.4345880000000  0.5309370000000  0.5438110000000 1.0
C      1  0.5315700000000  0.5362640000000  0.5687310000000 1.0
C      1  0.4249850000000  0.5362100000000  0.4926780000000 1.0
C      1  0.4828660000000  0.5264770000000  0.4234180000000 1.0
C      1  0.5650460000000  0.5328790000000  0.4582790000000 1.0
C      1  0.5611860000000  0.5387040000000  0.5479390000000 1.0
C      1  0.4774430000000  0.5344040000000  0.5762990000000 1.0
C      1  0.5235720000000  0.4369480000000  0.5733920000000 1.0
C      1  0.5744640000000  0.4371520000000  0.5003490000000 1.0
C      1  0.5313810000000  0.4367960000000  0.4254600000000 1.0
C      1  0.4382010000000  0.4363890000000  0.4574300000000 1.0
C      1  0.4295670000000  0.4369960000000  0.5496400000000 1.0
C      1  0.4710330000000  0.4359440000000  0.5832530000000 1.0
C      1  0.4223410000000  0.4386350000000  0.4989400000000 1.0
C      1  0.4781870000000  0.4356310000000  0.4223260000000 1.0
C      1  0.5664450000000  0.4397500000000  0.4566780000000 1.0
C      1  0.5589790000000  0.4389380000000  0.5466490000000 1.0
C      1  0.5366690000000  0.6082190000000  0.5265790000000 1.0
C      1  0.5357160000000  0.6043020000000  0.4753180000000 1.0
C      1  0.4903280000000  0.6151750000000  0.4673710000000 1.0
C      1  0.4599300000000  0.6008700000000  0.5027980000000 1.0
C      1  0.4863310000000  0.6090790000000  0.5456670000000 1.0
C      1  0.4767270000000  0.6152150000000  0.5199780000000 1.0
C      1  0.4666140000000  0.6016480000000  0.4743300000000 1.0
C      1  0.5144950000000  0.6063640000000  0.4556790000000 1.0
C      1  0.5293180000000  0.6151630000000  0.5004340000000 1.0
C      1  0.5158060000000  0.6057700000000  0.5491760000000 1.0
C      1  0.5333380000000  0.4052580000000  0.5248040000000 1.0
C      1  0.5364790000000  0.4053450000000  0.4707240000000 1.0
C      1  0.4868120000000  0.4029970000000  0.4549340000000 1.0
C      1  0.4546450000000  0.4039930000000  0.5008110000000 1.0
C      1  0.4829310000000  0.4065800000000  0.5456180000000 1.0
C      1  0.4590660000000  0.3998600000000  0.5298960000000 1.0
C      1  0.4634840000000  0.3971200000000  0.4731020000000 1.0
C      1  0.5156600000000  0.3969440000000  0.4520660000000 1.0
C      1  0.5446890000000  0.3977320000000  0.4982310000000 1.0
C      1  0.5114650000000  0.3987040000000  0.5439850000000 1.0
END
