TITL C-3577083-591-265 -3.30932567871085e-06 125000 -354.290665938706 0 0 59 (C1) n - 1
REM
REM in /home/bkarasulu/work/CARBON/AIRSS/Generating-Clusters/EDIP-Nigel-Params/with-SteepDescent/Higher-Symm/SD-CG/HFTN-CG
REM
REM
REM
REM
REM
REM ./C.cell (12c818d87b63d06a65506943cc24bca4)
REM
REM compiler GCC version 9.2.1 20190827 (Red Hat 9.2.1-1)
REM options -cpp -mtune=generic -march=x86-64 -g -O0 -fpre-include=/usr/include/finclude/math-vector-fortran.h
REM seed 1293051912 -1066879553 -903839294 1960258096 -1124870366 1712053281 -1003495550 -1731075266 -772207357 352185550 261160719 -1846795456 -579030534 122867132 -55707085 854927503 1024444120 -56305124 439311239 128371050 -362719821 -368790656 -1895033754 1406218544 2141325964 1691494649 1704919120 822738411 -1166690408 235934189 -385872467 -1441520713 -1817815777
REM
CELL 1.54180   50.00000   50.00000   50.00000   90.00000   90.00000   90.00000
LATT -1
SFAC C  
C      1  0.4883030000000  0.5446900000000  0.4654790000000 1.0
C      1  0.4453830000000  0.4465060000000  0.5020610000000 1.0
C      1  0.4962520000000  0.5083490000000  0.4885980000000 1.0
C      1  0.5189500000000  0.5279530000000  0.5442280000000 1.0
C      1  0.4885340000000  0.5320180000000  0.4403460000000 1.0
C      1  0.4911260000000  0.5181290000000  0.5367230000000 1.0
C      1  0.4192290000000  0.4871280000000  0.5006850000000 1.0
C      1  0.4534690000000  0.5415020000000  0.5499880000000 1.0
C      1  0.4636940000000  0.5083040000000  0.4676080000000 1.0
C      1  0.5562200000000  0.5005410000000  0.4880110000000 1.0
C      1  0.4821620000000  0.5704770000000  0.5048660000000 1.0
C      1  0.4333570000000  0.5085590000000  0.4648650000000 1.0
C      1  0.4721890000000  0.4908020000000  0.4436020000000 1.0
C      1  0.5399560000000  0.5409010000000  0.4687250000000 1.0
C      1  0.5016690000000  0.4561630000000  0.5520680000000 1.0
C      1  0.4722400000000  0.5410120000000  0.5272300000000 1.0
C      1  0.5573370000000  0.5684150000000  0.5109240000000 1.0
C      1  0.4525260000000  0.4646480000000  0.4777500000000 1.0
C      1  0.5713220000000  0.5221870000000  0.5010860000000 1.0
C      1  0.4707960000000  0.4379450000000  0.5152690000000 1.0
C      1  0.5365330000000  0.4834010000000  0.5472280000000 1.0
C      1  0.4509570000000  0.4982190000000  0.5565290000000 1.0
C      1  0.4257240000000  0.5226120000000  0.4887230000000 1.0
C      1  0.5603120000000  0.4559500000000  0.5083570000000 1.0
C      1  0.4629490000000  0.4900290000000  0.4947100000000 1.0
C      1  0.5158500000000  0.4260360000000  0.4943830000000 1.0
C      1  0.5140670000000  0.5539470000000  0.4746290000000 1.0
C      1  0.4260550000000  0.4806650000000  0.4722590000000 1.0
C      1  0.4546990000000  0.4779010000000  0.5361610000000 1.0
C      1  0.4749910000000  0.4569310000000  0.5381070000000 1.0
C      1  0.5095020000000  0.5717170000000  0.4965900000000 1.0
C      1  0.5444850000000  0.4589670000000  0.5329780000000 1.0
C      1  0.5304010000000  0.5793810000000  0.5139430000000 1.0
C      1  0.5618080000000  0.5477490000000  0.4884620000000 1.0
C      1  0.4328590000000  0.4684530000000  0.5189410000000 1.0
C      1  0.5419140000000  0.5092060000000  0.4630530000000 1.0
C      1  0.4339610000000  0.5207660000000  0.5514900000000 1.0
C      1  0.4912940000000  0.4406850000000  0.4945870000000 1.0
C      1  0.5036200000000  0.4542430000000  0.4433920000000 1.0
C      1  0.5671300000000  0.4738260000000  0.4863120000000 1.0
C      1  0.5236300000000  0.4713280000000  0.4288720000000 1.0
C      1  0.5357770000000  0.4432050000000  0.4815170000000 1.0
C      1  0.4758690000000  0.5123290000000  0.5615940000000 1.0
C      1  0.5076990000000  0.4621090000000  0.5091700000000 1.0
C      1  0.4753570000000  0.4623740000000  0.4480450000000 1.0
C      1  0.5129480000000  0.4978440000000  0.4655480000000 1.0
C      1  0.4678580000000  0.5544560000000  0.4853810000000 1.0
C      1  0.5584650000000  0.5532620000000  0.5365590000000 1.0
C      1  0.5474960000000  0.4828350000000  0.4417580000000 1.0
C      1  0.5167710000000  0.4657220000000  0.4683590000000 1.0
C      1  0.4974690000000  0.5052010000000  0.4399780000000 1.0
C      1  0.5222950000000  0.4411930000000  0.5380900000000 1.0
C      1  0.5391470000000  0.5096010000000  0.5354440000000 1.0
C      1  0.4909600000000  0.4904640000000  0.5139150000000 1.0
C      1  0.5128050000000  0.4799020000000  0.5627120000000 1.0
C      1  0.5647420000000  0.5240630000000  0.5303920000000 1.0
C      1  0.5598720000000  0.4637410000000  0.4598870000000 1.0
C      1  0.5298360000000  0.5546620000000  0.5435970000000 1.0
C      1  0.4471800000000  0.5387920000000  0.4982340000000 1.0
END
