TITL C-3577088-510-155 -2.02958891043858e-07 125000 -120.924620466459 0 0 21 (D2d) n - 1
REM
REM in /home/bkarasulu/work/CARBON/AIRSS/Generating-Clusters/EDIP-Nigel-Params/with-SteepDescent/Higher-Symm/SD-CG/HFTN-CG
REM
REM
REM
REM
REM
REM ./C.cell (12c818d87b63d06a65506943cc24bca4)
REM
REM compiler GCC version 9.2.1 20190827 (Red Hat 9.2.1-1)
REM options -cpp -mtune=generic -march=x86-64 -g -O0 -fpre-include=/usr/include/finclude/math-vector-fortran.h
REM seed -1154450810 -1574762020 768372449 -1440302097 980606356 1869623563 -625096270 -613004932 732151772 38623631 -148473164 400323372 1506843291 -1062551041 1859068630 1983275064 -1264768758 817077604 -749354291 -1501016433 1439884395 -1794271100 1772341968 -1393456041 1972674431 416948719 1914837469 -273532726 -632976777 -1940748234 1639194991 1710612730 -576263134
REM
CELL 1.54180   50.00000   50.00000   50.00000   90.00000   90.00000   90.00000
LATT -1
SFAC C  
C      1  0.5173330000000  0.4833990000000  0.4809430000000 1.0
C      1  0.4824200000000  0.5183970000000  0.4807750000000 1.0
C      1  0.4823160000000  0.4836760000000  0.5158360000000 1.0
C      1  0.5174410000000  0.5184610000000  0.5156650000000 1.0
C      1  0.4687810000000  0.5384720000000  0.4941770000000 1.0
C      1  0.5309730000000  0.4634560000000  0.4945380000000 1.0
C      1  0.5312020000000  0.5383210000000  0.5020690000000 1.0
C      1  0.4685540000000  0.4636840000000  0.5024360000000 1.0
C      1  0.5413630000000  0.4613500000000  0.5191470000000 1.0
C      1  0.4583950000000  0.5408170000000  0.5187660000000 1.0
C      1  0.4581510000000  0.4614020000000  0.4778480000000 1.0
C      1  0.5416010000000  0.5403630000000  0.4774580000000 1.0
C      1  0.5310730000000  0.4967580000000  0.4609090000000 1.0
C      1  0.4686770000000  0.5048440000000  0.4608740000000 1.0
C      1  0.4686580000000  0.4973130000000  0.5357390000000 1.0
C      1  0.5311020000000  0.5050180000000  0.5356970000000 1.0
C      1  0.5414220000000  0.4803980000000  0.5380100000000 1.0
C      1  0.4583380000000  0.5219540000000  0.5378130000000 1.0
C      1  0.4582080000000  0.4802650000000  0.4588000000000 1.0
C      1  0.5415420000000  0.5213150000000  0.4585950000000 1.0
C      1  0.4998770000000  0.5009830000000  0.4983050000000 1.0
END
