TITL C-3577081-279-71 -7.86416155862311e-06 125000 -1156.17552935656 0 0 180 (C1) n - 1
REM
REM in /home/bkarasulu/work/CARBON/AIRSS/Generating-Clusters/EDIP-Nigel-Params/with-SteepDescent/Higher-Symm/SD-CG/HFTN-CG
REM
REM
REM
REM
REM
REM ./C.cell (12c818d87b63d06a65506943cc24bca4)
REM
REM compiler GCC version 9.2.1 20190827 (Red Hat 9.2.1-1)
REM options -cpp -mtune=generic -march=x86-64 -g -O0 -fpre-include=/usr/include/finclude/math-vector-fortran.h
REM seed 1601536440 1432164526 148563120 -920623422 -1364775051 -200684387 -609414156 -1213645824 -308027748 1823216589 -1732855933 388169680 -1793053835 2006707411 545800860 1351042417 -1962714622 1194975139 -657963853 -1643260894 191820224 942882722 404922199 743950787 -608453730 -1723369932 -1668514481 -99303952 605191268 -32938432 -722609686 1902918798 -2021584082
REM
CELL 1.54180   50.00000   50.00000   50.00000   90.00000   90.00000   90.00000
LATT -1
SFAC C  
C      1  0.5569300000000  0.4433460000000  0.5756500000000 1.0
C      1  0.5917760000000  0.4445870000000  0.4829280000000 1.0
C      1  0.5355900000000  0.4404350000000  0.4074430000000 1.0
C      1  0.4429920000000  0.4422670000000  0.4249070000000 1.0
C      1  0.4053710000000  0.4412940000000  0.5162650000000 1.0
C      1  0.4622280000000  0.4440300000000  0.5889580000000 1.0
C      1  0.5586710000000  0.5578510000000  0.5745800000000 1.0
C      1  0.5936960000000  0.5584580000000  0.4824870000000 1.0
C      1  0.5366660000000  0.5563730000000  0.4106320000000 1.0
C      1  0.4439710000000  0.5573740000000  0.4250280000000 1.0
C      1  0.4070770000000  0.5558780000000  0.5168340000000 1.0
C      1  0.4663010000000  0.5597290000000  0.5935530000000 1.0
C      1  0.4887060000000  0.5162520000000  0.5937000000000 1.0
C      1  0.5696790000000  0.5149190000000  0.5539880000000 1.0
C      1  0.5775340000000  0.5160150000000  0.4625760000000 1.0
C      1  0.5111740000000  0.5147230000000  0.4017640000000 1.0
C      1  0.4343020000000  0.5139770000000  0.4460730000000 1.0
C      1  0.4203970000000  0.5126830000000  0.5364950000000 1.0
C      1  0.4863350000000  0.4866710000000  0.5931470000000 1.0
C      1  0.5680280000000  0.4861900000000  0.5547540000000 1.0
C      1  0.5763540000000  0.4872390000000  0.4632020000000 1.0
C      1  0.5117810000000  0.4834620000000  0.4027610000000 1.0
C      1  0.4340210000000  0.4853980000000  0.4463040000000 1.0
C      1  0.4195460000000  0.4837790000000  0.5370270000000 1.0
C      1  0.5328670000000  0.4305950000000  0.4449860000000 1.0
C      1  0.4746990000000  0.4309100000000  0.4430930000000 1.0
C      1  0.4368640000000  0.4309330000000  0.4973510000000 1.0
C      1  0.4650300000000  0.4286340000000  0.5534310000000 1.0
C      1  0.5247870000000  0.4321150000000  0.5580540000000 1.0
C      1  0.5614030000000  0.4329660000000  0.5029860000000 1.0
C      1  0.5335710000000  0.5715960000000  0.4462260000000 1.0
C      1  0.4760380000000  0.5685330000000  0.4425770000000 1.0
C      1  0.4380680000000  0.5670300000000  0.4974330000000 1.0
C      1  0.4662970000000  0.5684680000000  0.5559290000000 1.0
C      1  0.5268660000000  0.5693210000000  0.5564640000000 1.0
C      1  0.5627690000000  0.5693210000000  0.5021010000000 1.0
C      1  0.5524400000000  0.6082320000000  0.5193390000000 1.0
C      1  0.5438090000000  0.6109620000000  0.4631540000000 1.0
C      1  0.4917220000000  0.6083040000000  0.4434640000000 1.0
C      1  0.4484200000000  0.6061390000000  0.4806090000000 1.0
C      1  0.4572030000000  0.6072310000000  0.5367060000000 1.0
C      1  0.5091750000000  0.6091640000000  0.5559720000000 1.0
C      1  0.5514460000000  0.3937680000000  0.5197370000000 1.0
C      1  0.5430870000000  0.3917980000000  0.4634720000000 1.0
C      1  0.4914120000000  0.3910070000000  0.4436380000000 1.0
C      1  0.4479190000000  0.3922440000000  0.4800090000000 1.0
C      1  0.4558440000000  0.3890760000000  0.5363000000000 1.0
C      1  0.5079450000000  0.3919010000000  0.5563950000000 1.0
C      1  0.4265430000000  0.6035660000000  0.4988600000000 1.0
C      1  0.4612520000000  0.6056090000000  0.5647740000000 1.0
C      1  0.5355260000000  0.6058190000000  0.5655020000000 1.0
C      1  0.5743110000000  0.6059880000000  0.5013520000000 1.0
C      1  0.5394720000000  0.6081550000000  0.4350970000000 1.0
C      1  0.4654120000000  0.6045160000000  0.4338080000000 1.0
C      1  0.4257680000000  0.3941370000000  0.4976740000000 1.0
C      1  0.4602440000000  0.3918480000000  0.5644040000000 1.0
C      1  0.5340660000000  0.3956870000000  0.5662730000000 1.0
C      1  0.5733570000000  0.3965650000000  0.5015970000000 1.0
C      1  0.5392130000000  0.3936860000000  0.4354050000000 1.0
C      1  0.4652070000000  0.3947160000000  0.4338250000000 1.0
C      1  0.5299410000000  0.5172730000000  0.4467440000000 1.0
C      1  0.4780370000000  0.5149950000000  0.4409450000000 1.0
C      1  0.4362340000000  0.5151110000000  0.4955710000000 1.0
C      1  0.4541150000000  0.5073260000000  0.5704540000000 1.0
C      1  0.5266670000000  0.5140860000000  0.5587510000000 1.0
C      1  0.5639410000000  0.5159130000000  0.5041010000000 1.0
C      1  0.5379830000000  0.4902020000000  0.4314840000000 1.0
C      1  0.4777620000000  0.4840650000000  0.4419460000000 1.0
C      1  0.4347370000000  0.4842500000000  0.4959990000000 1.0
C      1  0.4666760000000  0.4824540000000  0.5542100000000 1.0
C      1  0.5199590000000  0.4847100000000  0.5552600000000 1.0
C      1  0.5624900000000  0.4850950000000  0.5049060000000 1.0
C      1  0.5595430000000  0.5593230000000  0.4485420000000 1.0
C      1  0.4934630000000  0.5565620000000  0.4218010000000 1.0
C      1  0.4311670000000  0.5560350000000  0.4711210000000 1.0
C      1  0.4400840000000  0.5552360000000  0.5524010000000 1.0
C      1  0.5117040000000  0.5579310000000  0.5788060000000 1.0
C      1  0.5710140000000  0.5576760000000  0.5280150000000 1.0
C      1  0.5584370000000  0.4443270000000  0.4477920000000 1.0
C      1  0.4910310000000  0.4425890000000  0.4214260000000 1.0
C      1  0.4296410000000  0.4428020000000  0.4712620000000 1.0
C      1  0.4387220000000  0.4403910000000  0.5511840000000 1.0
C      1  0.5079200000000  0.4436880000000  0.5793820000000 1.0
C      1  0.5688440000000  0.4440980000000  0.5291140000000 1.0
C      1  0.4658400000000  0.4737450000000  0.5005270000000 1.0
C      1  0.4820090000000  0.4863320000000  0.5255210000000 1.0
C      1  0.5113550000000  0.4737920000000  0.5284120000000 1.0
C      1  0.5298420000000  0.4738470000000  0.5019840000000 1.0
C      1  0.5125350000000  0.4851480000000  0.4801860000000 1.0
C      1  0.4852770000000  0.4735210000000  0.4728180000000 1.0
C      1  0.4692140000000  0.5262580000000  0.4984910000000 1.0
C      1  0.4867650000000  0.5149970000000  0.5205370000000 1.0
C      1  0.5148750000000  0.5261900000000  0.5276590000000 1.0
C      1  0.5328360000000  0.5267740000000  0.5001450000000 1.0
C      1  0.5160480000000  0.5138850000000  0.4751870000000 1.0
C      1  0.4866850000000  0.5263030000000  0.4711920000000 1.0
C      1  0.4427030000000  0.5172010000000  0.6062000000000 1.0
C      1  0.5460250000000  0.5122100000000  0.5917660000000 1.0
C      1  0.6029190000000  0.5152340000000  0.5019310000000 1.0
C      1  0.5575710000000  0.5100940000000  0.4049000000000 1.0
C      1  0.4591070000000  0.5140730000000  0.4070110000000 1.0
C      1  0.3971890000000  0.5129870000000  0.4967360000000 1.0
C      1  0.4395910000000  0.4894440000000  0.6007850000000 1.0
C      1  0.5544430000000  0.4868290000000  0.5997780000000 1.0
C      1  0.6014300000000  0.4872900000000  0.5022380000000 1.0
C      1  0.5570330000000  0.4838290000000  0.3956690000000 1.0
C      1  0.4592750000000  0.4857730000000  0.4076330000000 1.0
C      1  0.3957350000000  0.4849310000000  0.4968370000000 1.0
C      1  0.5129890000000  0.3972710000000  0.4244700000000 1.0
C      1  0.4440100000000  0.4005050000000  0.4520430000000 1.0
C      1  0.4298850000000  0.3981530000000  0.5258610000000 1.0
C      1  0.4861810000000  0.3975620000000  0.5756820000000 1.0
C      1  0.5551150000000  0.4017080000000  0.5478940000000 1.0
C      1  0.5687800000000  0.4014130000000  0.4734170000000 1.0
C      1  0.5134880000000  0.6031220000000  0.4237390000000 1.0
C      1  0.4446880000000  0.5982350000000  0.4524470000000 1.0
C      1  0.4310510000000  0.5985420000000  0.5270430000000 1.0
C      1  0.4878050000000  0.6018450000000  0.5748820000000 1.0
C      1  0.5568430000000  0.6002550000000  0.5473080000000 1.0
C      1  0.5697920000000  0.6017950000000  0.4732450000000 1.0
C      1  0.4668840000000  0.5325610000000  0.6037010000000 1.0
C      1  0.5634000000000  0.5295430000000  0.5773190000000 1.0
C      1  0.5964060000000  0.5301640000000  0.4789690000000 1.0
C      1  0.5368540000000  0.5291180000000  0.3987300000000 1.0
C      1  0.4408430000000  0.5289140000000  0.4226880000000 1.0
C      1  0.4027000000000  0.5277670000000  0.5200540000000 1.0
C      1  0.4623410000000  0.4716560000000  0.5998850000000 1.0
C      1  0.5642760000000  0.4710840000000  0.5789040000000 1.0
C      1  0.5950810000000  0.4726450000000  0.4790990000000 1.0
C      1  0.5350130000000  0.4665280000000  0.3943100000000 1.0
C      1  0.4406580000000  0.4708320000000  0.4229430000000 1.0
C      1  0.4015230000000  0.4695640000000  0.5198220000000 1.0
C      1  0.5578080000000  0.4734000000000  0.4471330000000 1.0
C      1  0.4987080000000  0.4703870000000  0.4255140000000 1.0
C      1  0.4281510000000  0.4713290000000  0.4700710000000 1.0
C      1  0.4409060000000  0.4686200000000  0.5481070000000 1.0
C      1  0.4994500000000  0.4713480000000  0.5720320000000 1.0
C      1  0.5709100000000  0.4723200000000  0.5303680000000 1.0
C      1  0.5565200000000  0.5310290000000  0.4510330000000 1.0
C      1  0.5026100000000  0.5279990000000  0.4272060000000 1.0
C      1  0.4288110000000  0.5278480000000  0.4698560000000 1.0
C      1  0.4379100000000  0.5260320000000  0.5537820000000 1.0
C      1  0.5080450000000  0.5293740000000  0.5772090000000 1.0
C      1  0.5712860000000  0.5291710000000  0.5295100000000 1.0
C      1  0.5226440000000  0.6194390000000  0.4814790000000 1.0
C      1  0.4957890000000  0.6185510000000  0.4709060000000 1.0
C      1  0.4735600000000  0.6171370000000  0.4896320000000 1.0
C      1  0.4775520000000  0.6180210000000  0.5184450000000 1.0
C      1  0.5045080000000  0.6185380000000  0.5287090000000 1.0
C      1  0.5268630000000  0.6184150000000  0.5102320000000 1.0
C      1  0.5224930000000  0.3815910000000  0.4816920000000 1.0
C      1  0.4956910000000  0.3812850000000  0.4710000000000 1.0
C      1  0.4732430000000  0.3817150000000  0.4893620000000 1.0
C      1  0.4772190000000  0.3806820000000  0.5181910000000 1.0
C      1  0.5039780000000  0.3816590000000  0.5290690000000 1.0
C      1  0.5263370000000  0.3827810000000  0.5105420000000 1.0
C      1  0.4873370000000  0.4419480000000  0.4706000000000 1.0
C      1  0.4666290000000  0.4424680000000  0.5025060000000 1.0
C      1  0.4815740000000  0.4347930000000  0.5279930000000 1.0
C      1  0.5108680000000  0.4424320000000  0.5302290000000 1.0
C      1  0.5313400000000  0.4427990000000  0.4978970000000 1.0
C      1  0.5168460000000  0.4352420000000  0.4718740000000 1.0
C      1  0.4883210000000  0.5576160000000  0.4701620000000 1.0
C      1  0.4680420000000  0.5571180000000  0.5028980000000 1.0
C      1  0.4827420000000  0.5639540000000  0.5291730000000 1.0
C      1  0.5127000000000  0.5576620000000  0.5298340000000 1.0
C      1  0.5327960000000  0.5579500000000  0.4974340000000 1.0
C      1  0.5175190000000  0.5651960000000  0.4720530000000 1.0
C      1  0.4905630000000  0.5750810000000  0.5895180000000 1.0
C      1  0.5689340000000  0.5732730000000  0.5521870000000 1.0
C      1  0.5795280000000  0.5747670000000  0.4634910000000 1.0
C      1  0.5131610000000  0.5742160000000  0.4097480000000 1.0
C      1  0.4329100000000  0.5717880000000  0.4472790000000 1.0
C      1  0.4213650000000  0.5712500000000  0.5363980000000 1.0
C      1  0.4863390000000  0.4266310000000  0.5893200000000 1.0
C      1  0.5669920000000  0.4283640000000  0.5530520000000 1.0
C      1  0.5776550000000  0.4288230000000  0.4637910000000 1.0
C      1  0.5111450000000  0.4246620000000  0.4099220000000 1.0
C      1  0.4321510000000  0.4273180000000  0.4471350000000 1.0
C      1  0.4193600000000  0.4249030000000  0.5355630000000 1.0
END
