TITL C-3578207-9274-72 -1.8851764676882e-06 125000 -1010.67781780632 0 0 160 (C1) n - 1
REM
REM in /home/bkarasulu/work/CARBON/AIRSS/Generating-Clusters/EDIP-Nigel-Params/with-SteepDescent/Higher-Symm/SD-CG/HFTN-CG
REM
REM
REM
REM
REM
REM ./C.cell (12c818d87b63d06a65506943cc24bca4)
REM
REM compiler GCC version 9.2.1 20190827 (Red Hat 9.2.1-1)
REM options -cpp -mtune=generic -march=x86-64 -g -O0 -fpre-include=/usr/include/finclude/math-vector-fortran.h
REM seed 2010517735 -1510967915 -1976254369 -229504789 532675700 1401218473 1039450871 -1339170313 -1471247113 520382126 -459869459 -1107100651 247547163 2088953679 -1529558657 -1584768227 -1614713077 1111515116 734136267 567686370 -612715400 -1162281173 -1248370022 -702096958 922598898 -853000140 575201823 -718897250 -848359908 -824040801 1923504919 1016738628 -2031465169
REM
CELL 1.54180   50.00000   50.00000   50.00000   90.00000   90.00000   90.00000
LATT -1
SFAC C  
C      1  0.5425270000000  0.5395760000000  0.5565520000000 1.0
C      1  0.4565930000000  0.4595820000000  0.4463970000000 1.0
C      1  0.4369390000000  0.4398760000000  0.4205810000000 1.0
C      1  0.5611120000000  0.5566290000000  0.5754460000000 1.0
C      1  0.4509720000000  0.5885600000000  0.5106850000000 1.0
C      1  0.5487500000000  0.4121120000000  0.4902520000000 1.0
C      1  0.4989830000000  0.5361930000000  0.4507800000000 1.0
C      1  0.4987160000000  0.4634900000000  0.5480240000000 1.0
C      1  0.6028860000000  0.5291150000000  0.4705550000000 1.0
C      1  0.3993200000000  0.4733530000000  0.5263040000000 1.0
C      1  0.5705360000000  0.5015150000000  0.4967700000000 1.0
C      1  0.4356940000000  0.5061040000000  0.4997750000000 1.0
C      1  0.5169650000000  0.3952210000000  0.4602240000000 1.0
C      1  0.4831700000000  0.6050300000000  0.5403510000000 1.0
C      1  0.5313030000000  0.5132670000000  0.3978960000000 1.0
C      1  0.4665910000000  0.4866300000000  0.6019530000000 1.0
C      1  0.5923640000000  0.5222430000000  0.5678090000000 1.0
C      1  0.4085210000000  0.4762270000000  0.4307130000000 1.0
C      1  0.4525280000000  0.5266640000000  0.4819040000000 1.0
C      1  0.5428320000000  0.4679470000000  0.5260560000000 1.0
C      1  0.4858670000000  0.5082000000000  0.4387620000000 1.0
C      1  0.5135080000000  0.4907020000000  0.5614970000000 1.0
C      1  0.4964500000000  0.4275260000000  0.4207350000000 1.0
C      1  0.5027870000000  0.5710880000000  0.5797060000000 1.0
C      1  0.4344790000000  0.5636390000000  0.5096880000000 1.0
C      1  0.5663030000000  0.4368680000000  0.4907210000000 1.0
C      1  0.4392740000000  0.4188390000000  0.4639810000000 1.0
C      1  0.5614500000000  0.5811590000000  0.5349950000000 1.0
C      1  0.4794230000000  0.4717240000000  0.5247790000000 1.0
C      1  0.5168590000000  0.5276510000000  0.4743890000000 1.0
C      1  0.4174300000000  0.5455210000000  0.5393560000000 1.0
C      1  0.5832210000000  0.4558210000000  0.4612370000000 1.0
C      1  0.5170360000000  0.4545570000000  0.4892140000000 1.0
C      1  0.4829580000000  0.5424380000000  0.5098310000000 1.0
C      1  0.4832320000000  0.5321970000000  0.5953250000000 1.0
C      1  0.5159640000000  0.4677760000000  0.4068010000000 1.0
C      1  0.4995270000000  0.4039330000000  0.5374700000000 1.0
C      1  0.4989690000000  0.5952640000000  0.4635170000000 1.0
C      1  0.5076300000000  0.5459060000000  0.5905520000000 1.0
C      1  0.4922330000000  0.4538980000000  0.4128580000000 1.0
C      1  0.4876300000000  0.5700260000000  0.5553520000000 1.0
C      1  0.5121560000000  0.4298840000000  0.4447390000000 1.0
C      1  0.5973700000000  0.5047540000000  0.4546820000000 1.0
C      1  0.4030990000000  0.4966480000000  0.5435020000000 1.0
C      1  0.4691180000000  0.4688550000000  0.4939470000000 1.0
C      1  0.5355540000000  0.5338110000000  0.5095270000000 1.0
C      1  0.5427260000000  0.4653440000000  0.5829720000000 1.0
C      1  0.4561780000000  0.5330060000000  0.4176370000000 1.0
C      1  0.4284680000000  0.4656770000000  0.4102380000000 1.0
C      1  0.5734850000000  0.5332970000000  0.5895070000000 1.0
C      1  0.5837470000000  0.5516550000000  0.4694010000000 1.0
C      1  0.4168920000000  0.4501160000000  0.5285600000000 1.0
C      1  0.5219430000000  0.4482080000000  0.5352550000000 1.0
C      1  0.4756160000000  0.5500940000000  0.4645500000000 1.0
C      1  0.4371540000000  0.4471800000000  0.5490780000000 1.0
C      1  0.5617110000000  0.5531500000000  0.4503710000000 1.0
C      1  0.4757540000000  0.4994080000000  0.5304400000000 1.0
C      1  0.5286550000000  0.5030430000000  0.4633050000000 1.0
C      1  0.4472860000000  0.5379350000000  0.5356190000000 1.0
C      1  0.5536920000000  0.4627450000000  0.4655770000000 1.0
C      1  0.5024470000000  0.4530680000000  0.4634340000000 1.0
C      1  0.4973470000000  0.5462860000000  0.5368130000000 1.0
C      1  0.5921360000000  0.5424210000000  0.5443640000000 1.0
C      1  0.4065410000000  0.4553430000000  0.4528400000000 1.0
C      1  0.4737400000000  0.4734760000000  0.4261080000000 1.0
C      1  0.5256280000000  0.5260240000000  0.5770830000000 1.0
C      1  0.4767780000000  0.4040620000000  0.4828860000000 1.0
C      1  0.5229120000000  0.5946090000000  0.5172770000000 1.0
C      1  0.4576460000000  0.5733350000000  0.5583480000000 1.0
C      1  0.5424110000000  0.4273320000000  0.4426010000000 1.0
C      1  0.5361150000000  0.5364890000000  0.4153850000000 1.0
C      1  0.4619450000000  0.4634070000000  0.5846280000000 1.0
C      1  0.5790800000000  0.4456390000000  0.5629480000000 1.0
C      1  0.4192570000000  0.5536810000000  0.4352490000000 1.0
C      1  0.4596640000000  0.5476870000000  0.5865130000000 1.0
C      1  0.5401800000000  0.4527520000000  0.4144860000000 1.0
C      1  0.4270700000000  0.5124490000000  0.5842730000000 1.0
C      1  0.5717390000000  0.4881720000000  0.4157450000000 1.0
C      1  0.5087940000000  0.4960080000000  0.4032570000000 1.0
C      1  0.4891010000000  0.5034900000000  0.5961520000000 1.0
C      1  0.5441140000000  0.4047650000000  0.4618570000000 1.0
C      1  0.4558050000000  0.5959680000000  0.5391600000000 1.0
C      1  0.4959220000000  0.6028300000000  0.5152050000000 1.0
C      1  0.5037990000000  0.3956500000000  0.4853680000000 1.0
C      1  0.5410480000000  0.4901840000000  0.5465960000000 1.0
C      1  0.4570010000000  0.5098410000000  0.4551830000000 1.0
C      1  0.4839970000000  0.4426850000000  0.5675290000000 1.0
C      1  0.5144630000000  0.5570730000000  0.4320740000000 1.0
C      1  0.4333480000000  0.5506830000000  0.4831520000000 1.0
C      1  0.5672880000000  0.4504870000000  0.5170560000000 1.0
C      1  0.5199940000000  0.4078390000000  0.5074800000000 1.0
C      1  0.4786680000000  0.5911050000000  0.4936670000000 1.0
C      1  0.4354940000000  0.5379710000000  0.5726740000000 1.0
C      1  0.5642610000000  0.4628690000000  0.4281480000000 1.0
C      1  0.4526800000000  0.4864930000000  0.4054800000000 1.0
C      1  0.5490060000000  0.5133640000000  0.5959380000000 1.0
C      1  0.4612260000000  0.4124080000000  0.5050140000000 1.0
C      1  0.5383500000000  0.5874310000000  0.4947420000000 1.0
C      1  0.4905600000000  0.5821350000000  0.4379470000000 1.0
C      1  0.5068770000000  0.4172950000000  0.5635520000000 1.0
C      1  0.5571840000000  0.5158250000000  0.5431370000000 1.0
C      1  0.4410670000000  0.4826090000000  0.4589810000000 1.0
C      1  0.5369670000000  0.5688080000000  0.4487550000000 1.0
C      1  0.4613420000000  0.4305640000000  0.5512910000000 1.0
C      1  0.4655920000000  0.4099820000000  0.4575360000000 1.0
C      1  0.5352730000000  0.5899690000000  0.5423720000000 1.0
C      1  0.5828190000000  0.5612230000000  0.4962830000000 1.0
C      1  0.4187560000000  0.4407330000000  0.5017780000000 1.0
C      1  0.5475340000000  0.4884000000000  0.4809660000000 1.0
C      1  0.4498630000000  0.5107210000000  0.5255400000000 1.0
C      1  0.4857400000000  0.5621700000000  0.4893790000000 1.0
C      1  0.5117820000000  0.4363820000000  0.5103990000000 1.0
C      1  0.5781970000000  0.5662230000000  0.5539940000000 1.0
C      1  0.4224080000000  0.4322130000000  0.4441500000000 1.0
C      1  0.4379170000000  0.5110310000000  0.4155530000000 1.0
C      1  0.5613380000000  0.4875710000000  0.5858690000000 1.0
C      1  0.4714490000000  0.4115240000000  0.5320260000000 1.0
C      1  0.5269530000000  0.5873600000000  0.4682700000000 1.0
C      1  0.4771040000000  0.5317490000000  0.3991230000000 1.0
C      1  0.5195740000000  0.4664890000000  0.5984070000000 1.0
C      1  0.5625690000000  0.5345690000000  0.4288530000000 1.0
C      1  0.4361250000000  0.4659770000000  0.5704290000000 1.0
C      1  0.6201990000000  0.5014790000000  0.5076470000000 1.0
C      1  0.3823450000000  0.5008740000000  0.4898780000000 1.0
C      1  0.5653580000000  0.5249690000000  0.5141890000000 1.0
C      1  0.4392790000000  0.4777200000000  0.4890820000000 1.0
C      1  0.5968610000000  0.4862440000000  0.4996840000000 1.0
C      1  0.4047160000000  0.5168470000000  0.4991660000000 1.0
C      1  0.5028350000000  0.4874670000000  0.4565750000000 1.0
C      1  0.4959550000000  0.5134210000000  0.5473200000000 1.0
C      1  0.5990540000000  0.5448000000000  0.5143740000000 1.0
C      1  0.4052600000000  0.4588200000000  0.4832570000000 1.0
C      1  0.3999670000000  0.5233320000000  0.5291210000000 1.0
C      1  0.6009150000000  0.4783240000000  0.4700640000000 1.0
C      1  0.4815270000000  0.5041670000000  0.3959040000000 1.0
C      1  0.5158440000000  0.4939300000000  0.6030260000000 1.0
C      1  0.4456040000000  0.5584850000000  0.4261550000000 1.0
C      1  0.5530960000000  0.4401800000000  0.5730880000000 1.0
C      1  0.5271110000000  0.5534520000000  0.5327840000000 1.0
C      1  0.4735130000000  0.4459500000000  0.4694880000000 1.0
C      1  0.5629990000000  0.5782970000000  0.5064920000000 1.0
C      1  0.4369030000000  0.4214900000000  0.4924880000000 1.0
C      1  0.5285800000000  0.4799140000000  0.5021570000000 1.0
C      1  0.4959360000000  0.5180920000000  0.4954390000000 1.0
C      1  0.5163160000000  0.5080130000000  0.5146350000000 1.0
C      1  0.4825460000000  0.4941950000000  0.4802900000000 1.0
C      1  0.6153610000000  0.5267500000000  0.4975500000000 1.0
C      1  0.3876530000000  0.4757740000000  0.4993850000000 1.0
C      1  0.5925040000000  0.4641390000000  0.5214430000000 1.0
C      1  0.4071400000000  0.5390870000000  0.4782190000000 1.0
C      1  0.5764490000000  0.5089830000000  0.4343620000000 1.0
C      1  0.4226200000000  0.4918290000000  0.5651480000000 1.0
C      1  0.5812690000000  0.4933990000000  0.5641420000000 1.0
C      1  0.4176770000000  0.5053220000000  0.4368360000000 1.0
C      1  0.5927970000000  0.4677990000000  0.5514000000000 1.0
C      1  0.4062570000000  0.5323350000000  0.4486540000000 1.0
C      1  0.4638370000000  0.5713480000000  0.4460570000000 1.0
C      1  0.5336570000000  0.4271200000000  0.5541320000000 1.0
C      1  0.4436380000000  0.5025150000000  0.6042910000000 1.0
C      1  0.5543080000000  0.4973640000000  0.3960770000000 1.0
END
