TITL C-3578194-7807-273 5.10398261765471e-08 125000 -31.2216891031496 0 0 6 (Cs) n - 1
REM
REM in /home/bkarasulu/work/CARBON/AIRSS/Generating-Clusters/EDIP-Nigel-Params/with-SteepDescent/Higher-Symm/SD-CG/HFTN-CG
REM
REM
REM
REM
REM
REM ./C.cell (12c818d87b63d06a65506943cc24bca4)
REM
REM compiler GCC version 9.2.1 20190827 (Red Hat 9.2.1-1)
REM options -cpp -mtune=generic -march=x86-64 -g -O0 -fpre-include=/usr/include/finclude/math-vector-fortran.h
REM seed 879301502 -1263139432 -152964596 1767835429 -322989393 -72855583 -2091288487 1442147950 -597386246 2074969479 -1932767296 -1557868388 967467078 658709958 316639307 2072259245 -985666491 -572023355 2071148638 1112958161 -2137856335 -810071177 668996148 2143328740 1154204267 1204716268 1689604453 704172702 -1342270872 484054571 -1426974658 1511703221 -2065592978
REM
CELL 1.54180   50.00000   50.00000   50.00000   90.00000   90.00000   90.00000
LATT -1
SFAC C  
C      1  0.5018760000000  0.4708340000000  0.4987940000000 1.0
C      1  0.5018760000000  0.5111250000000  0.4807810000000 1.0
C      1  0.5018760000000  0.5242280000000  0.5052230000000 1.0
C      1  0.5018760000000  0.4845920000000  0.4753880000000 1.0
C      1  0.5018760000000  0.5148620000000  0.5311120000000 1.0
C      1  0.5018760000000  0.4895820000000  0.5196830000000 1.0
END
