TITL C-3577080-309-236 -1.12503726361714e-05 125000 -917.57332032881 0 0 149 (C1) n - 1
REM
REM in /home/bkarasulu/work/CARBON/AIRSS/Generating-Clusters/EDIP-Nigel-Params/with-SteepDescent/Higher-Symm/SD-CG/HFTN-CG
REM
REM
REM
REM
REM
REM ./C.cell (12c818d87b63d06a65506943cc24bca4)
REM
REM compiler GCC version 9.2.1 20190827 (Red Hat 9.2.1-1)
REM options -cpp -mtune=generic -march=x86-64 -g -O0 -fpre-include=/usr/include/finclude/math-vector-fortran.h
REM seed -949364726 73589868 -514000509 -608939094 1585030559 450265225 -495448541 1024405399 754256051 -1329070509 240201085 306801484 -575943879 -287716196 1322453835 -343482265 1057750712 -1832061230 -1796383646 471635772 769916762 -1439996404 318602372 1365631558 -785568281 -1170909114 1630814939 -1179356234 -1593563053 -1598005791 -1016889404 -1743533532 -1453090145
REM
CELL 1.54180   50.00000   50.00000   50.00000   90.00000   90.00000   90.00000
LATT -1
SFAC C  
C      1  0.5059530000000  0.3966890000000  0.4847640000000 1.0
C      1  0.4098710000000  0.5504400000000  0.4884580000000 1.0
C      1  0.5813790000000  0.5508220000000  0.4850240000000 1.0
C      1  0.5038640000000  0.3931820000000  0.5152850000000 1.0
C      1  0.4143700000000  0.5381140000000  0.5168640000000 1.0
C      1  0.5823440000000  0.5518690000000  0.5152740000000 1.0
C      1  0.5653810000000  0.4889510000000  0.4256260000000 1.0
C      1  0.4596680000000  0.4529460000000  0.4373040000000 1.0
C      1  0.4728960000000  0.5585150000000  0.4160620000000 1.0
C      1  0.5584860000000  0.4901700000000  0.5648590000000 1.0
C      1  0.4573470000000  0.4484890000000  0.5800650000000 1.0
C      1  0.4771650000000  0.5608370000000  0.5678710000000 1.0
C      1  0.4987480000000  0.4548610000000  0.5993170000000 1.0
C      1  0.4738420000000  0.5210710000000  0.5959690000000 1.0
C      1  0.5260270000000  0.5219440000000  0.5815000000000 1.0
C      1  0.4953240000000  0.4603140000000  0.4037020000000 1.0
C      1  0.4778730000000  0.5119690000000  0.4115870000000 1.0
C      1  0.5416120000000  0.5229140000000  0.4012750000000 1.0
C      1  0.4198850000000  0.5121850000000  0.5692790000000 1.0
C      1  0.5502670000000  0.5819010000000  0.5755190000000 1.0
C      1  0.5282270000000  0.4219000000000  0.5766240000000 1.0
C      1  0.4099510000000  0.5087040000000  0.4293130000000 1.0
C      1  0.5434060000000  0.5673370000000  0.4295540000000 1.0
C      1  0.5417990000000  0.4204760000000  0.4259480000000 1.0
C      1  0.4714230000000  0.5051710000000  0.4556690000000 1.0
C      1  0.5109370000000  0.5315990000000  0.4489480000000 1.0
C      1  0.5104690000000  0.4775330000000  0.4504410000000 1.0
C      1  0.4655860000000  0.5056450000000  0.5445830000000 1.0
C      1  0.5139450000000  0.5194340000000  0.5533390000000 1.0
C      1  0.5098630000000  0.4717150000000  0.5462470000000 1.0
C      1  0.4586890000000  0.5413840000000  0.5153290000000 1.0
C      1  0.5525560000000  0.5209030000000  0.5113830000000 1.0
C      1  0.5045280000000  0.4377030000000  0.5147160000000 1.0
C      1  0.4508570000000  0.5341340000000  0.4864870000000 1.0
C      1  0.5400130000000  0.5365880000000  0.4867900000000 1.0
C      1  0.5041080000000  0.4408250000000  0.4834050000000 1.0
C      1  0.5955840000000  0.4801370000000  0.4633870000000 1.0
C      1  0.4554280000000  0.4041010000000  0.4673040000000 1.0
C      1  0.4543220000000  0.5847810000000  0.4758320000000 1.0
C      1  0.5917560000000  0.4992430000000  0.5198650000000 1.0
C      1  0.4569660000000  0.4127080000000  0.5207380000000 1.0
C      1  0.4562500000000  0.5821040000000  0.5352220000000 1.0
C      1  0.4120320000000  0.4607030000000  0.5178890000000 1.0
C      1  0.5176430000000  0.5993190000000  0.5135960000000 1.0
C      1  0.5600260000000  0.4451790000000  0.5143700000000 1.0
C      1  0.4197980000000  0.4628710000000  0.4895890000000 1.0
C      1  0.5200670000000  0.5941350000000  0.4842970000000 1.0
C      1  0.5670300000000  0.4342640000000  0.4876670000000 1.0
C      1  0.3962290000000  0.5179590000000  0.5551110000000 1.0
C      1  0.5661510000000  0.5651960000000  0.5595230000000 1.0
C      1  0.5184210000000  0.3988080000000  0.5619100000000 1.0
C      1  0.4078060000000  0.5340230000000  0.4425490000000 1.0
C      1  0.5689620000000  0.5642420000000  0.4406580000000 1.0
C      1  0.5208870000000  0.4138570000000  0.4432890000000 1.0
C      1  0.5171000000000  0.5590400000000  0.4351390000000 1.0
C      1  0.5528390000000  0.4436940000000  0.4380150000000 1.0
C      1  0.4302700000000  0.4939840000000  0.4444190000000 1.0
C      1  0.5252130000000  0.5821150000000  0.5629480000000 1.0
C      1  0.5343180000000  0.4434310000000  0.5581860000000 1.0
C      1  0.4257210000000  0.4836950000000  0.5653010000000 1.0
C      1  0.4602250000000  0.5397950000000  0.5787460000000 1.0
C      1  0.5552690000000  0.5161970000000  0.5779640000000 1.0
C      1  0.4834880000000  0.4377860000000  0.5808500000000 1.0
C      1  0.4588240000000  0.5349170000000  0.4173390000000 1.0
C      1  0.5606780000000  0.5167040000000  0.4222370000000 1.0
C      1  0.4844880000000  0.4433750000000  0.4252470000000 1.0
C      1  0.5860510000000  0.5276690000000  0.4661500000000 1.0
C      1  0.4844950000000  0.4088130000000  0.4679890000000 1.0
C      1  0.4379590000000  0.5597240000000  0.4735060000000 1.0
C      1  0.5869930000000  0.5266540000000  0.5291190000000 1.0
C      1  0.4858910000000  0.4144360000000  0.5261580000000 1.0
C      1  0.4366980000000  0.5478720000000  0.5354440000000 1.0
C      1  0.5146730000000  0.5515020000000  0.4937510000000 1.0
C      1  0.5365240000000  0.4701010000000  0.4780180000000 1.0
C      1  0.4415340000000  0.4842450000000  0.4864890000000 1.0
C      1  0.5140080000000  0.5561310000000  0.5234580000000 1.0
C      1  0.5492450000000  0.4729050000000  0.5077300000000 1.0
C      1  0.4513480000000  0.4877660000000  0.5238900000000 1.0
C      1  0.4801640000000  0.5768820000000  0.4902490000000 1.0
C      1  0.5767090000000  0.4994980000000  0.4725430000000 1.0
C      1  0.4629810000000  0.4378450000000  0.4822400000000 1.0
C      1  0.4715730000000  0.5666170000000  0.5165100000000 1.0
C      1  0.5690350000000  0.4962930000000  0.5019870000000 1.0
C      1  0.4507200000000  0.4410330000000  0.5106070000000 1.0
C      1  0.4188770000000  0.4345880000000  0.4807100000000 1.0
C      1  0.4994710000000  0.6099220000000  0.4685870000000 1.0
C      1  0.5955000000000  0.4411100000000  0.4843990000000 1.0
C      1  0.4100860000000  0.4307830000000  0.5240340000000 1.0
C      1  0.4903900000000  0.6110140000000  0.5166570000000 1.0
C      1  0.5860850000000  0.4487300000000  0.5299200000000 1.0
C      1  0.5318170000000  0.5110530000000  0.5305680000000 1.0
C      1  0.4934820000000  0.4623360000000  0.5245120000000 1.0
C      1  0.4779620000000  0.5239430000000  0.5265960000000 1.0
C      1  0.5333610000000  0.5195910000000  0.4644470000000 1.0
C      1  0.4931550000000  0.4685360000000  0.4745860000000 1.0
C      1  0.4752550000000  0.5249300000000  0.4756250000000 1.0
C      1  0.5957500000000  0.4757750000000  0.5359820000000 1.0
C      1  0.4335920000000  0.4190720000000  0.5373400000000 1.0
C      1  0.4719140000000  0.6053370000000  0.5376900000000 1.0
C      1  0.6034610000000  0.4545510000000  0.4611630000000 1.0
C      1  0.4354560000000  0.4234610000000  0.4596780000000 1.0
C      1  0.4730590000000  0.5988150000000  0.4564510000000 1.0
C      1  0.5298600000000  0.5789000000000  0.5330130000000 1.0
C      1  0.5338430000000  0.4313210000000  0.5288410000000 1.0
C      1  0.4223320000000  0.4852810000000  0.5339750000000 1.0
C      1  0.5382990000000  0.5728130000000  0.4713810000000 1.0
C      1  0.5449590000000  0.4413360000000  0.4680760000000 1.0
C      1  0.4299440000000  0.5120640000000  0.4788620000000 1.0
C      1  0.5688190000000  0.5385260000000  0.5679430000000 1.0
C      1  0.4916610000000  0.4116710000000  0.5696980000000 1.0
C      1  0.4442130000000  0.5264040000000  0.5579830000000 1.0
C      1  0.5768230000000  0.5357220000000  0.4391410000000 1.0
C      1  0.5058760000000  0.4391960000000  0.4445820000000 1.0
C      1  0.4397540000000  0.5311270000000  0.4405820000000 1.0
C      1  0.5487070000000  0.4941050000000  0.4602800000000 1.0
C      1  0.4652640000000  0.4778880000000  0.4659820000000 1.0
C      1  0.4937150000000  0.5461410000000  0.4706200000000 1.0
C      1  0.5360990000000  0.4832650000000  0.5345550000000 1.0
C      1  0.4649930000000  0.4620860000000  0.5259210000000 1.0
C      1  0.4967930000000  0.5408150000000  0.5420260000000 1.0
C      1  0.5690160000000  0.5730220000000  0.4696170000000 1.0
C      1  0.5287550000000  0.4068800000000  0.4703450000000 1.0
C      1  0.3984110000000  0.5314800000000  0.4698560000000 1.0
C      1  0.5657400000000  0.5708120000000  0.5307980000000 1.0
C      1  0.5280720000000  0.4003380000000  0.5325050000000 1.0
C      1  0.4034750000000  0.5121940000000  0.5282180000000 1.0
C      1  0.5002220000000  0.5626970000000  0.4113440000000 1.0
C      1  0.5448660000000  0.4690870000000  0.4243360000000 1.0
C      1  0.4462280000000  0.4758440000000  0.4260800000000 1.0
C      1  0.5045330000000  0.5658170000000  0.5774230000000 1.0
C      1  0.5438520000000  0.4669500000000  0.5746770000000 1.0
C      1  0.4508050000000  0.4760240000000  0.5783080000000 1.0
C      1  0.5205470000000  0.4758320000000  0.4081070000000 1.0
C      1  0.4610520000000  0.4884040000000  0.4035770000000 1.0
C      1  0.5114800000000  0.5443850000000  0.3917190000000 1.0
C      1  0.5196100000000  0.4729150000000  0.5893330000000 1.0
C      1  0.4638350000000  0.4928630000000  0.5988880000000 1.0
C      1  0.5145930000000  0.5458530000000  0.5968580000000 1.0
C      1  0.4929560000000  0.5346530000000  0.6122130000000 1.0
C      1  0.5126330000000  0.4994890000000  0.5948640000000 1.0
C      1  0.4811420000000  0.4742380000000  0.6112200000000 1.0
C      1  0.4987580000000  0.5180500000000  0.3900270000000 1.0
C      1  0.5228240000000  0.5015770000000  0.3936400000000 1.0
C      1  0.4749650000000  0.4703520000000  0.3870190000000 1.0
C      1  0.6068690000000  0.4489670000000  0.5098910000000 1.0
C      1  0.4800120000000  0.6179700000000  0.4901520000000 1.0
C      1  0.4055920000000  0.4172870000000  0.4990050000000 1.0
C      1  0.4952890000000  0.4955840000000  0.5603860000000 1.0
C      1  0.4948550000000  0.5055890000000  0.4384890000000 1.0
END
