TITL C-3578205-846-109 -1.09414588631414e-06 125000 -446.315616104985 0 0 73 (C2) n - 1
REM
REM in /home/bkarasulu/work/CARBON/AIRSS/Generating-Clusters/EDIP-Nigel-Params/with-SteepDescent/Higher-Symm/SD-CG/HFTN-CG
REM
REM
REM
REM
REM
REM ./C.cell (12c818d87b63d06a65506943cc24bca4)
REM
REM compiler GCC version 9.2.1 20190827 (Red Hat 9.2.1-1)
REM options -cpp -mtune=generic -march=x86-64 -g -O0 -fpre-include=/usr/include/finclude/math-vector-fortran.h
REM seed 1006433825 222136290 92486566 -990345842 1086441061 -1240857418 1473898425 1908596968 167272539 -371989707 -728003226 1818519802 -582744376 -274809532 -548458307 807432470 295165226 -1809649547 1477597622 -1440487599 1286566526 -1089737749 -1485531823 233354466 1062051540 149475116 -2131382313 -1585129880 -762484779 784678033 1712814034 157631851 1587319887
REM
CELL 1.54180   50.00000   50.00000   50.00000   90.00000   90.00000   90.00000
LATT -1
SFAC C  
C      1  0.5111190000000  0.5246040000000  0.5231580000000 1.0
C      1  0.4884730000000  0.5249240000000  0.4769630000000 1.0
C      1  0.5129720000000  0.5137910000000  0.4662900000000 1.0
C      1  0.4866200000000  0.5133250000000  0.5336760000000 1.0
C      1  0.5137820000000  0.5698550000000  0.4754470000000 1.0
C      1  0.4858100000000  0.5695100000000  0.5252960000000 1.0
C      1  0.5140880000000  0.5708100000000  0.5317630000000 1.0
C      1  0.4855030000000  0.5712440000000  0.4689980000000 1.0
C      1  0.4689370000000  0.5035520000000  0.4870430000000 1.0
C      1  0.5306560000000  0.5033750000000  0.5127830000000 1.0
C      1  0.4634680000000  0.5147020000000  0.5159070000000 1.0
C      1  0.5361250000000  0.5149230000000  0.4840770000000 1.0
C      1  0.4662120000000  0.5119690000000  0.5755620000000 1.0
C      1  0.5333810000000  0.5130160000000  0.4243890000000 1.0
C      1  0.4682190000000  0.5170480000000  0.4318930000000 1.0
C      1  0.5313730000000  0.5161060000000  0.5681140000000 1.0
C      1  0.5192460000000  0.5375790000000  0.5505720000000 1.0
C      1  0.4803460000000  0.5382760000000  0.4497310000000 1.0
C      1  0.5170520000000  0.5289850000000  0.4420560000000 1.0
C      1  0.4825400000000  0.5281810000000  0.5581170000000 1.0
C      1  0.4874670000000  0.4949690000000  0.4283830000000 1.0
C      1  0.5121260000000  0.4939810000000  0.5713190000000 1.0
C      1  0.4855270000000  0.4912640000000  0.5843240000000 1.0
C      1  0.5140660000000  0.4924330000000  0.4153410000000 1.0
C      1  0.4618710000000  0.5589680000000  0.5121650000000 1.0
C      1  0.5377210000000  0.5591330000000  0.4884300000000 1.0
C      1  0.4625130000000  0.5606320000000  0.4833830000000 1.0
C      1  0.5370790000000  0.5603980000000  0.5172320000000 1.0
C      1  0.5303400000000  0.4718550000000  0.5694280000000 1.0
C      1  0.4692530000000  0.4728190000000  0.4299670000000 1.0
C      1  0.5283320000000  0.4690140000000  0.4254790000000 1.0
C      1  0.4712620000000  0.4679870000000  0.5738640000000 1.0
C      1  0.5161060000000  0.4234920000000  0.5140680000000 1.0
C      1  0.4834880000000  0.4236960000000  0.4846530000000 1.0
C      1  0.5145860000000  0.4233870000000  0.4831680000000 1.0
C      1  0.4850090000000  0.4231620000000  0.5155490000000 1.0
C      1  0.4823550000000  0.4748710000000  0.4861730000000 1.0
C      1  0.5172390000000  0.4746840000000  0.5132560000000 1.0
C      1  0.4857130000000  0.4727690000000  0.5165090000000 1.0
C      1  0.5138800000000  0.4730010000000  0.4828940000000 1.0
C      1  0.4433750000000  0.4495580000000  0.5163990000000 1.0
C      1  0.5562190000000  0.4497920000000  0.4826830000000 1.0
C      1  0.4420830000000  0.4495200000000  0.4838990000000 1.0
C      1  0.5575110000000  0.4493050000000  0.5151790000000 1.0
C      1  0.4405090000000  0.5447270000000  0.5248480000000 1.0
C      1  0.5590830000000  0.5450690000000  0.4755520000000 1.0
C      1  0.4399070000000  0.5498890000000  0.4710980000000 1.0
C      1  0.5596850000000  0.5494870000000  0.5293680000000 1.0
C      1  0.5132730000000  0.4517090000000  0.4438530000000 1.0
C      1  0.4863200000000  0.4509380000000  0.5552520000000 1.0
C      1  0.5177460000000  0.4506960000000  0.5543990000000 1.0
C      1  0.4818480000000  0.4514550000000  0.4447020000000 1.0
C      1  0.4462610000000  0.5000470000000  0.4433950000000 1.0
C      1  0.5533320000000  0.4992660000000  0.5563780000000 1.0
C      1  0.4480460000000  0.4943860000000  0.5596150000000 1.0
C      1  0.5515470000000  0.4952130000000  0.4400910000000 1.0
C      1  0.5724300000000  0.5266080000000  0.5189000000000 1.0
C      1  0.4271620000000  0.5268670000000  0.4812480000000 1.0
C      1  0.5772090000000  0.5285940000000  0.4899990000000 1.0
C      1  0.4223830000000  0.5284530000000  0.5101740000000 1.0
C      1  0.5713520000000  0.4769300000000  0.5141390000000 1.0
C      1  0.4282410000000  0.4771280000000  0.4853210000000 1.0
C      1  0.5709870000000  0.4767040000000  0.4833540000000 1.0
C      1  0.4286060000000  0.4764770000000  0.5161000000000 1.0
C      1  0.4393200000000  0.5010040000000  0.5306700000000 1.0
C      1  0.5602730000000  0.5014310000000  0.4691250000000 1.0
C      1  0.4418150000000  0.5017710000000  0.4730930000000 1.0
C      1  0.5577780000000  0.5014010000000  0.5267070000000 1.0
C      1  0.5262160000000  0.4485960000000  0.4716820000000 1.0
C      1  0.4733780000000  0.4482100000000  0.5273820000000 1.0
C      1  0.5286760000000  0.4486370000000  0.5254450000000 1.0
C      1  0.4709170000000  0.4489950000000  0.4736250000000 1.0
C      1  0.4997960000000  0.5432770000000  0.5001890000000 1.0
END
