TITL C-3577080-309-465 -2.73291233805323e-06 125000 -1210.51829998789 0 0 193 (C1) n - 1
REM
REM in /home/bkarasulu/work/CARBON/AIRSS/Generating-Clusters/EDIP-Nigel-Params/with-SteepDescent/Higher-Symm/SD-CG/HFTN-CG
REM
REM
REM
REM
REM
REM ./C.cell (12c818d87b63d06a65506943cc24bca4)
REM
REM compiler GCC version 9.2.1 20190827 (Red Hat 9.2.1-1)
REM options -cpp -mtune=generic -march=x86-64 -g -O0 -fpre-include=/usr/include/finclude/math-vector-fortran.h
REM seed 1208676525 146213912 632341079 -1898419520 -89493668 -480074654 -429746544 -1784928372 1636929639 -1389438536 -1020017849 -1149040980 -812531124 472636163 94465803 -498576115 1539918326 -1632321041 309143397 -1336823899 1929279975 1659038374 -1843268113 -1010422594 -1752894882 -285789784 -1988503286 -1537459635 -74806579 -1366154784 -148315578 1157412624 -907033279
REM
CELL 1.54180   50.00000   50.00000   50.00000   90.00000   90.00000   90.00000
LATT -1
SFAC C  
C      1  0.5202870000000  0.5920840000000  0.4481800000000 1.0
C      1  0.4254070000000  0.4349230000000  0.5174120000000 1.0
C      1  0.6075330000000  0.4832550000000  0.4603950000000 1.0
C      1  0.5669440000000  0.4963170000000  0.4114370000000 1.0
C      1  0.4971870000000  0.3866210000000  0.4723490000000 1.0
C      1  0.3825010000000  0.4763170000000  0.5183000000000 1.0
C      1  0.5687340000000  0.5391470000000  0.5451530000000 1.0
C      1  0.5690610000000  0.5211320000000  0.5907760000000 1.0
C      1  0.6017030000000  0.4672890000000  0.5097370000000 1.0
C      1  0.4767970000000  0.4830010000000  0.3997530000000 1.0
C      1  0.5169230000000  0.4981330000000  0.4867780000000 1.0
C      1  0.5610280000000  0.4139560000000  0.5368830000000 1.0
C      1  0.4486540000000  0.4321740000000  0.5880980000000 1.0
C      1  0.5625340000000  0.5546820000000  0.4024980000000 1.0
C      1  0.5884240000000  0.5158620000000  0.4225100000000 1.0
C      1  0.3755820000000  0.4917310000000  0.4962110000000 1.0
C      1  0.4667380000000  0.5877520000000  0.4978870000000 1.0
C      1  0.5592340000000  0.5682310000000  0.5798630000000 1.0
C      1  0.5435090000000  0.4105040000000  0.4404910000000 1.0
C      1  0.3837490000000  0.4922330000000  0.4694740000000 1.0
C      1  0.5378540000000  0.4038500000000  0.4682620000000 1.0
C      1  0.5489540000000  0.6001290000000  0.4878230000000 1.0
C      1  0.6127990000000  0.4848750000000  0.4889850000000 1.0
C      1  0.5171900000000  0.4618840000000  0.3998940000000 1.0
C      1  0.5723600000000  0.4718800000000  0.5907950000000 1.0
C      1  0.4889420000000  0.4571330000000  0.3986630000000 1.0
C      1  0.4429450000000  0.5497500000000  0.4597130000000 1.0
C      1  0.4616490000000  0.6027290000000  0.5463660000000 1.0
C      1  0.5110790000000  0.5223250000000  0.5055500000000 1.0
C      1  0.5645860000000  0.4758210000000  0.4562570000000 1.0
C      1  0.4411790000000  0.4613960000000  0.5131390000000 1.0
C      1  0.4170650000000  0.5398730000000  0.4329790000000 1.0
C      1  0.5540040000000  0.5935450000000  0.5355570000000 1.0
C      1  0.5467380000000  0.5516730000000  0.4655560000000 1.0
C      1  0.4740860000000  0.4513910000000  0.4444490000000 1.0
C      1  0.5903850000000  0.5475760000000  0.5252770000000 1.0
C      1  0.4181660000000  0.5873000000000  0.4892600000000 1.0
C      1  0.5393710000000  0.5470880000000  0.5404750000000 1.0
C      1  0.4083570000000  0.5639250000000  0.4680040000000 1.0
C      1  0.4712030000000  0.4174440000000  0.5950840000000 1.0
C      1  0.5342870000000  0.4541060000000  0.5271530000000 1.0
C      1  0.4950750000000  0.4698250000000  0.6176640000000 1.0
C      1  0.4993930000000  0.4270820000000  0.5105770000000 1.0
C      1  0.5058290000000  0.5686210000000  0.5811830000000 1.0
C      1  0.6040340000000  0.5096770000000  0.4484240000000 1.0
C      1  0.5453610000000  0.4081590000000  0.5124660000000 1.0
C      1  0.5238550000000  0.3790690000000  0.4710590000000 1.0
C      1  0.4837000000000  0.3882330000000  0.4983250000000 1.0
C      1  0.4135700000000  0.4442810000000  0.4688900000000 1.0
C      1  0.4853010000000  0.4984030000000  0.4335910000000 1.0
C      1  0.4512480000000  0.5926150000000  0.4522410000000 1.0
C      1  0.4286720000000  0.4890040000000  0.5109650000000 1.0
C      1  0.4486000000000  0.4843390000000  0.3968190000000 1.0
C      1  0.3958120000000  0.5393120000000  0.4815540000000 1.0
C      1  0.4386970000000  0.4224490000000  0.5621580000000 1.0
C      1  0.4919620000000  0.4778700000000  0.5740520000000 1.0
C      1  0.4326060000000  0.4681030000000  0.4143870000000 1.0
C      1  0.5874870000000  0.4276100000000  0.5311370000000 1.0
C      1  0.4166650000000  0.5382530000000  0.5027160000000 1.0
C      1  0.4625600000000  0.4074970000000  0.4950920000000 1.0
C      1  0.4215040000000  0.5368540000000  0.5499110000000 1.0
C      1  0.4599800000000  0.5316110000000  0.3941100000000 1.0
C      1  0.4927840000000  0.4140920000000  0.4272050000000 1.0
C      1  0.5737580000000  0.5431620000000  0.4528480000000 1.0
C      1  0.4666380000000  0.4871790000000  0.5608130000000 1.0
C      1  0.4213910000000  0.5128290000000  0.4223450000000 1.0
C      1  0.5928460000000  0.4477450000000  0.5522330000000 1.0
C      1  0.4394310000000  0.4788940000000  0.4641970000000 1.0
C      1  0.4967580000000  0.5295290000000  0.5515900000000 1.0
C      1  0.6027190000000  0.4718510000000  0.5388960000000 1.0
C      1  0.5418530000000  0.4337650000000  0.5510140000000 1.0
C      1  0.5377070000000  0.4986560000000  0.5534280000000 1.0
C      1  0.5262390000000  0.5258900000000  0.5610650000000 1.0
C      1  0.5673600000000  0.4266700000000  0.4341950000000 1.0
C      1  0.4981550000000  0.6091490000000  0.4880990000000 1.0
C      1  0.5179790000000  0.4862530000000  0.4368120000000 1.0
C      1  0.5652330000000  0.5885500000000  0.5608530000000 1.0
C      1  0.4891750000000  0.4915110000000  0.4767280000000 1.0
C      1  0.5527290000000  0.4749730000000  0.4279760000000 1.0
C      1  0.4596140000000  0.5059520000000  0.6048280000000 1.0
C      1  0.4910800000000  0.5575610000000  0.5410010000000 1.0
C      1  0.5291660000000  0.5775090000000  0.5351440000000 1.0
C      1  0.5328220000000  0.5299360000000  0.5906910000000 1.0
C      1  0.5699560000000  0.4508640000000  0.5701240000000 1.0
C      1  0.5077570000000  0.4558060000000  0.4428590000000 1.0
C      1  0.4557470000000  0.4111270000000  0.4669340000000 1.0
C      1  0.4903950000000  0.5660790000000  0.4872930000000 1.0
C      1  0.4662910000000  0.4770820000000  0.6104170000000 1.0
C      1  0.5305820000000  0.5060090000000  0.4605320000000 1.0
C      1  0.4954810000000  0.4377560000000  0.4802330000000 1.0
C      1  0.5808400000000  0.5452920000000  0.4220610000000 1.0
C      1  0.4527360000000  0.4607380000000  0.4854280000000 1.0
C      1  0.4869700000000  0.4699060000000  0.5154900000000 1.0
C      1  0.5587530000000  0.4476920000000  0.4147450000000 1.0
C      1  0.5350230000000  0.4719290000000  0.5674250000000 1.0
C      1  0.5095230000000  0.4171340000000  0.5647580000000 1.0
C      1  0.5604060000000  0.4072790000000  0.4872310000000 1.0
C      1  0.5491220000000  0.4572590000000  0.4779830000000 1.0
C      1  0.4596080000000  0.4140190000000  0.5429040000000 1.0
C      1  0.5841530000000  0.4974970000000  0.5809810000000 1.0
C      1  0.4205780000000  0.5806610000000  0.5203770000000 1.0
C      1  0.4706470000000  0.5149720000000  0.4858730000000 1.0
C      1  0.4985370000000  0.3908580000000  0.5229040000000 1.0
C      1  0.5283840000000  0.4323420000000  0.5086910000000 1.0
C      1  0.4016600000000  0.5150380000000  0.4655880000000 1.0
C      1  0.4552810000000  0.5661730000000  0.5712910000000 1.0
C      1  0.4411660000000  0.4349260000000  0.4586160000000 1.0
C      1  0.5109050000000  0.5637310000000  0.4085690000000 1.0
C      1  0.5851330000000  0.4362820000000  0.4557170000000 1.0
C      1  0.4986810000000  0.5115920000000  0.5292680000000 1.0
C      1  0.5715050000000  0.5142860000000  0.4927730000000 1.0
C      1  0.4490740000000  0.4611160000000  0.5920770000000 1.0
C      1  0.4286560000000  0.5052450000000  0.4754380000000 1.0
C      1  0.4401910000000  0.5115770000000  0.4001120000000 1.0
C      1  0.4618140000000  0.5585260000000  0.5415190000000 1.0
C      1  0.4196700000000  0.5288380000000  0.5880490000000 1.0
C      1  0.4814020000000  0.5276670000000  0.6007240000000 1.0
C      1  0.4535860000000  0.5953490000000  0.5722990000000 1.0
C      1  0.5558900000000  0.5414250000000  0.4942070000000 1.0
C      1  0.4307760000000  0.5611980000000  0.4195250000000 1.0
C      1  0.5918670000000  0.4977250000000  0.5500160000000 1.0
C      1  0.4135910000000  0.4841780000000  0.4289130000000 1.0
C      1  0.4072600000000  0.4866530000000  0.5322430000000 1.0
C      1  0.4762430000000  0.4937910000000  0.5280720000000 1.0
C      1  0.4266730000000  0.5542640000000  0.5751560000000 1.0
C      1  0.5284100000000  0.4840730000000  0.3873040000000 1.0
C      1  0.4553490000000  0.4579620000000  0.5432040000000 1.0
C      1  0.4452330000000  0.5970050000000  0.4796700000000 1.0
C      1  0.5390280000000  0.4751090000000  0.5026890000000 1.0
C      1  0.5215900000000  0.4235330000000  0.4256270000000 1.0
C      1  0.5921880000000  0.4404580000000  0.5046660000000 1.0
C      1  0.5089130000000  0.5167310000000  0.6041510000000 1.0
C      1  0.6116190000000  0.5294520000000  0.4702950000000 1.0
C      1  0.4761680000000  0.6018970000000  0.4419210000000 1.0
C      1  0.5003950000000  0.5734710000000  0.4348510000000 1.0
C      1  0.4593520000000  0.4777020000000  0.4393050000000 1.0
C      1  0.5336510000000  0.5396180000000  0.5127360000000 1.0
C      1  0.4390190000000  0.5549860000000  0.4905150000000 1.0
C      1  0.6146390000000  0.5133140000000  0.4953400000000 1.0
C      1  0.4093740000000  0.5530810000000  0.5269720000000 1.0
C      1  0.5431680000000  0.5058420000000  0.3967640000000 1.0
C      1  0.4191490000000  0.4679150000000  0.5537970000000 1.0
C      1  0.4510720000000  0.5216230000000  0.4645650000000 1.0
C      1  0.5627370000000  0.5071070000000  0.4633760000000 1.0
C      1  0.5439220000000  0.4745200000000  0.5970070000000 1.0
C      1  0.5789970000000  0.5606520000000  0.5014000000000 1.0
C      1  0.5598600000000  0.4949230000000  0.5113100000000 1.0
C      1  0.5239330000000  0.4407250000000  0.4658950000000 1.0
C      1  0.4696640000000  0.5194710000000  0.5640280000000 1.0
C      1  0.4970950000000  0.5353500000000  0.4056710000000 1.0
C      1  0.5320140000000  0.5591600000000  0.5907340000000 1.0
C      1  0.5255010000000  0.6143620000000  0.4993350000000 1.0
C      1  0.4020900000000  0.4715760000000  0.4553060000000 1.0
C      1  0.4795980000000  0.5554980000000  0.5875040000000 1.0
C      1  0.5246730000000  0.5349240000000  0.4534180000000 1.0
C      1  0.5628410000000  0.5046900000000  0.5391500000000 1.0
C      1  0.5994760000000  0.5201180000000  0.5197040000000 1.0
C      1  0.5086080000000  0.4873980000000  0.5981070000000 1.0
C      1  0.4993310000000  0.6105000000000  0.4582960000000 1.0
C      1  0.3839310000000  0.4499720000000  0.5085520000000 1.0
C      1  0.5388770000000  0.5809400000000  0.4677500000000 1.0
C      1  0.5947560000000  0.5544380000000  0.4729030000000 1.0
C      1  0.4881270000000  0.4044560000000  0.5463600000000 1.0
C      1  0.5676210000000  0.5891370000000  0.5086210000000 1.0
C      1  0.4359900000000  0.5052590000000  0.5875100000000 1.0
C      1  0.5266550000000  0.5231050000000  0.4148350000000 1.0
C      1  0.4763770000000  0.4370730000000  0.4179380000000 1.0
C      1  0.4173140000000  0.4380630000000  0.5473500000000 1.0
C      1  0.5988120000000  0.4598850000000  0.4471210000000 1.0
C      1  0.4899430000000  0.5956860000000  0.5426690000000 1.0
C      1  0.5036210000000  0.4435180000000  0.6111460000000 1.0
C      1  0.4872640000000  0.4473600000000  0.5340560000000 1.0
C      1  0.4803160000000  0.5305650000000  0.4327760000000 1.0
C      1  0.4457540000000  0.4127080000000  0.5173140000000 1.0
C      1  0.4497200000000  0.5303320000000  0.5404460000000 1.0
C      1  0.5724180000000  0.4346040000000  0.4828790000000 1.0
C      1  0.5375610000000  0.5511920000000  0.4146090000000 1.0
C      1  0.4882320000000  0.5373170000000  0.4945210000000 1.0
C      1  0.4042980000000  0.4355720000000  0.4960720000000 1.0
C      1  0.4977800000000  0.4243040000000  0.5915570000000 1.0
C      1  0.4511490000000  0.5825620000000  0.5251060000000 1.0
C      1  0.5331730000000  0.4390630000000  0.4035550000000 1.0
C      1  0.5050960000000  0.4552440000000  0.5602560000000 1.0
C      1  0.4284180000000  0.4777240000000  0.5808310000000 1.0
C      1  0.4816640000000  0.4650570000000  0.4874670000000 1.0
C      1  0.5751560000000  0.5442030000000  0.5741290000000 1.0
C      1  0.4842300000000  0.4084070000000  0.4563040000000 1.0
C      1  0.4969620000000  0.5486550000000  0.4530930000000 1.0
C      1  0.5152540000000  0.5785160000000  0.5046420000000 1.0
C      1  0.5080940000000  0.5911300000000  0.5638020000000 1.0
C      1  0.4570630000000  0.5531850000000  0.4116410000000 1.0
C      1  0.4532870000000  0.5086220000000  0.5139770000000 1.0
C      1  0.4308440000000  0.5839600000000  0.4354790000000 1.0
END
