TITL C-3577084-3642-256 6.42673644816391e-07 125000 -710.502660036582 0 0 114 (C1) n - 1
REM
REM in /home/bkarasulu/work/CARBON/AIRSS/Generating-Clusters/EDIP-Nigel-Params/with-SteepDescent/Higher-Symm/SD-CG/HFTN-CG
REM
REM
REM
REM
REM
REM ./C.cell (12c818d87b63d06a65506943cc24bca4)
REM
REM compiler GCC version 9.2.1 20190827 (Red Hat 9.2.1-1)
REM options -cpp -mtune=generic -march=x86-64 -g -O0 -fpre-include=/usr/include/finclude/math-vector-fortran.h
REM seed -1430330451 883695723 -771219956 -1098451875 1102213383 -1807345161 -162345028 -670737671 953818771 -198225029 1158144122 936622002 624735989 -987572312 583129240 -36429359 1282093727 648968659 505797316 -808406281 -1309819128 1003440336 -350429418 -403047530 -2006158163 1955019825 -177959335 507707186 805751226 -935715309 2067682339 2114235296 -1491066009
REM
CELL 1.54180   50.00000   50.00000   50.00000   90.00000   90.00000   90.00000
LATT -1
SFAC C  
C      1  0.5729270000000  0.5297170000000  0.4393050000000 1.0
C      1  0.4302380000000  0.4705020000000  0.4408140000000 1.0
C      1  0.5722310000000  0.5296840000000  0.5594120000000 1.0
C      1  0.4303180000000  0.4711790000000  0.5577500000000 1.0
C      1  0.5731180000000  0.4694130000000  0.4401160000000 1.0
C      1  0.4259510000000  0.5297350000000  0.4380830000000 1.0
C      1  0.5715740000000  0.4706790000000  0.5574660000000 1.0
C      1  0.4261060000000  0.5298920000000  0.5610070000000 1.0
C      1  0.5198850000000  0.4867990000000  0.4574830000000 1.0
C      1  0.4689330000000  0.5231930000000  0.4622900000000 1.0
C      1  0.5225120000000  0.4870310000000  0.5361350000000 1.0
C      1  0.4688760000000  0.5236060000000  0.5367660000000 1.0
C      1  0.5289930000000  0.5164270000000  0.4631880000000 1.0
C      1  0.4787330000000  0.4948890000000  0.4633150000000 1.0
C      1  0.5290530000000  0.5162450000000  0.5354940000000 1.0
C      1  0.4771840000000  0.4950760000000  0.5356720000000 1.0
C      1  0.5279610000000  0.4673150000000  0.4200930000000 1.0
C      1  0.4718310000000  0.5312940000000  0.4249870000000 1.0
C      1  0.5272690000000  0.4667770000000  0.5803090000000 1.0
C      1  0.4719200000000  0.5315770000000  0.5740990000000 1.0
C      1  0.5265310000000  0.5287640000000  0.4266910000000 1.0
C      1  0.4762290000000  0.4695120000000  0.4223230000000 1.0
C      1  0.5254370000000  0.5288350000000  0.5715670000000 1.0
C      1  0.4744600000000  0.4678290000000  0.5800590000000 1.0
C      1  0.5125680000000  0.5290340000000  0.5141180000000 1.0
C      1  0.4839950000000  0.4732780000000  0.5183870000000 1.0
C      1  0.5119190000000  0.5274790000000  0.4848130000000 1.0
C      1  0.4856490000000  0.4740800000000  0.4820090000000 1.0
C      1  0.5122220000000  0.4689870000000  0.5167960000000 1.0
C      1  0.4860800000000  0.5389860000000  0.5186460000000 1.0
C      1  0.5132810000000  0.4671410000000  0.4791660000000 1.0
C      1  0.4859610000000  0.5385390000000  0.4803030000000 1.0
C      1  0.5199910000000  0.5906540000000  0.5283480000000 1.0
C      1  0.4818030000000  0.4083470000000  0.5295120000000 1.0
C      1  0.5201070000000  0.5904130000000  0.4704150000000 1.0
C      1  0.4822570000000  0.4079370000000  0.4695730000000 1.0
C      1  0.5204250000000  0.4080680000000  0.5294480000000 1.0
C      1  0.4787040000000  0.5899270000000  0.5272590000000 1.0
C      1  0.5207610000000  0.4071610000000  0.4693150000000 1.0
C      1  0.4788710000000  0.5894590000000  0.4717370000000 1.0
C      1  0.5132930000000  0.5747350000000  0.4476360000000 1.0
C      1  0.4870920000000  0.4213390000000  0.4441400000000 1.0
C      1  0.5131530000000  0.5751230000000  0.5512070000000 1.0
C      1  0.4867220000000  0.4218790000000  0.5548230000000 1.0
C      1  0.5161080000000  0.4203870000000  0.4436480000000 1.0
C      1  0.4851500000000  0.5716210000000  0.4509170000000 1.0
C      1  0.5156800000000  0.4210990000000  0.5551430000000 1.0
C      1  0.4850190000000  0.5720580000000  0.5480420000000 1.0
C      1  0.5315700000000  0.5534790000000  0.4397100000000 1.0
C      1  0.4710670000000  0.4450040000000  0.4374170000000 1.0
C      1  0.5311040000000  0.5534510000000  0.5585680000000 1.0
C      1  0.4694600000000  0.4437650000000  0.5643490000000 1.0
C      1  0.5327700000000  0.4435930000000  0.4368820000000 1.0
C      1  0.4656580000000  0.5573340000000  0.4345850000000 1.0
C      1  0.5327840000000  0.4431680000000  0.5640070000000 1.0
C      1  0.4656720000000  0.5576680000000  0.5645220000000 1.0
C      1  0.4169910000000  0.5199320000000  0.5337990000000 1.0
C      1  0.5803800000000  0.4803320000000  0.5295960000000 1.0
C      1  0.4172590000000  0.5193330000000  0.4652530000000 1.0
C      1  0.5802070000000  0.4799180000000  0.4678450000000 1.0
C      1  0.4198110000000  0.4811560000000  0.5305470000000 1.0
C      1  0.5812370000000  0.5193090000000  0.5321160000000 1.0
C      1  0.4201090000000  0.4805520000000  0.4679230000000 1.0
C      1  0.5813130000000  0.5189960000000  0.4665530000000 1.0
C      1  0.5432300000000  0.4176020000000  0.4848590000000 1.0
C      1  0.4542680000000  0.5822190000000  0.4851410000000 1.0
C      1  0.5431730000000  0.4176060000000  0.5138490000000 1.0
C      1  0.4541620000000  0.5824850000000  0.5138790000000 1.0
C      1  0.5432880000000  0.5813300000000  0.4850910000000 1.0
C      1  0.4597860000000  0.4184740000000  0.4850260000000 1.0
C      1  0.5433130000000  0.5816060000000  0.5137390000000 1.0
C      1  0.4593900000000  0.4182970000000  0.5139300000000 1.0
C      1  0.5514700000000  0.5140860000000  0.4253080000000 1.0
C      1  0.4521350000000  0.4860810000000  0.4291300000000 1.0
C      1  0.5503890000000  0.5142470000000  0.5735510000000 1.0
C      1  0.4520580000000  0.4859470000000  0.5709880000000 1.0
C      1  0.5514230000000  0.4845230000000  0.4269120000000 1.0
C      1  0.4482800000000  0.5148740000000  0.4242310000000 1.0
C      1  0.5494350000000  0.4848690000000  0.5711310000000 1.0
C      1  0.4484420000000  0.5149910000000  0.5749480000000 1.0
C      1  0.4119210000000  0.5496280000000  0.4850790000000 1.0
C      1  0.5832170000000  0.4530560000000  0.4843620000000 1.0
C      1  0.4115050000000  0.5500280000000  0.5142910000000 1.0
C      1  0.5836120000000  0.4527770000000  0.5139660000000 1.0
C      1  0.4204360000000  0.4544700000000  0.4847150000000 1.0
C      1  0.5839270000000  0.5458190000000  0.4845230000000 1.0
C      1  0.4205280000000  0.4547410000000  0.5139340000000 1.0
C      1  0.5840560000000  0.5460280000000  0.5144070000000 1.0
C      1  0.4441620000000  0.5215600000000  0.5188470000000 1.0
C      1  0.5529010000000  0.4841970000000  0.5127780000000 1.0
C      1  0.4442260000000  0.5206910000000  0.4801350000000 1.0
C      1  0.5524700000000  0.4846940000000  0.4812750000000 1.0
C      1  0.4446940000000  0.4919350000000  0.5144190000000 1.0
C      1  0.5541730000000  0.5138470000000  0.5183570000000 1.0
C      1  0.4454560000000  0.4910670000000  0.4835590000000 1.0
C      1  0.5540670000000  0.5136760000000  0.4797310000000 1.0
C      1  0.5651630000000  0.5656530000000  0.4721650000000 1.0
C      1  0.4386660000000  0.4348430000000  0.4721780000000 1.0
C      1  0.5651570000000  0.5658620000000  0.5267500000000 1.0
C      1  0.4389920000000  0.4355680000000  0.5265580000000 1.0
C      1  0.5651170000000  0.4330310000000  0.4717330000000 1.0
C      1  0.4349220000000  0.5635230000000  0.4727190000000 1.0
C      1  0.5641160000000  0.4341180000000  0.5266820000000 1.0
C      1  0.4345580000000  0.5641720000000  0.5266090000000 1.0
C      1  0.5598810000000  0.5563910000000  0.4449590000000 1.0
C      1  0.4430380000000  0.4439290000000  0.4449530000000 1.0
C      1  0.5594840000000  0.5564050000000  0.5538200000000 1.0
C      1  0.4424030000000  0.4443480000000  0.5539170000000 1.0
C      1  0.5608540000000  0.4423030000000  0.4442560000000 1.0
C      1  0.4379920000000  0.5565790000000  0.4445970000000 1.0
C      1  0.5600220000000  0.4435740000000  0.5539270000000 1.0
C      1  0.4379530000000  0.5568590000000  0.5546610000000 1.0
C      1  0.5009160000000  0.4735440000000  0.5874160000000 1.0
C      1  0.5026970000000  0.4811500000000  0.4234870000000 1.0
END
