TITL C-3577087-600-231 1.23226610209301e-06 125000 -232.174661751463 0 0 39 (C1) n - 1
REM
REM in /home/bkarasulu/work/CARBON/AIRSS/Generating-Clusters/EDIP-Nigel-Params/with-SteepDescent/Higher-Symm/SD-CG/HFTN-CG
REM
REM
REM
REM
REM
REM ./C.cell (12c818d87b63d06a65506943cc24bca4)
REM
REM compiler GCC version 9.2.1 20190827 (Red Hat 9.2.1-1)
REM options -cpp -mtune=generic -march=x86-64 -g -O0 -fpre-include=/usr/include/finclude/math-vector-fortran.h
REM seed 388555133 1399919835 -1402117980 -1380427524 2013601474 967218623 30638816 3583941 1695450814 -1701216803 33571279 -1966191393 -1462980066 1553184502 -86268552 -12880792 -334996080 -214790312 682958050 860536616 170073354 -337652234 -564380247 522474113 1720837328 -115134782 -1456140431 -971335633 -1963559661 -1010598549 -422546529 -1575227770 227782268
REM
CELL 1.54180   50.00000   50.00000   50.00000   90.00000   90.00000   90.00000
LATT -1
SFAC C  
C      1  0.4457460000000  0.4810830000000  0.5332880000000 1.0
C      1  0.4484840000000  0.4725300000000  0.4643710000000 1.0
C      1  0.4527060000000  0.5462660000000  0.4978800000000 1.0
C      1  0.4922620000000  0.4788790000000  0.4858270000000 1.0
C      1  0.4879640000000  0.5250750000000  0.4954320000000 1.0
C      1  0.4967760000000  0.4988390000000  0.5048580000000 1.0
C      1  0.5126730000000  0.5591910000000  0.5150260000000 1.0
C      1  0.5086630000000  0.4664780000000  0.5415940000000 1.0
C      1  0.5120930000000  0.4806010000000  0.4447010000000 1.0
C      1  0.5416700000000  0.4997540000000  0.5257860000000 1.0
C      1  0.5407560000000  0.4800760000000  0.4867180000000 1.0
C      1  0.5391230000000  0.5237270000000  0.4897030000000 1.0
C      1  0.5135720000000  0.5415320000000  0.4898880000000 1.0
C      1  0.5119430000000  0.4951990000000  0.5305100000000 1.0
C      1  0.5159510000000  0.4679680000000  0.4727630000000 1.0
C      1  0.4871550000000  0.5698060000000  0.5198970000000 1.0
C      1  0.4832420000000  0.4589380000000  0.5503550000000 1.0
C      1  0.4857060000000  0.4775840000000  0.4353810000000 1.0
C      1  0.5453640000000  0.4522370000000  0.5128240000000 1.0
C      1  0.5450860000000  0.5158030000000  0.4531100000000 1.0
C      1  0.5486860000000  0.5352430000000  0.5372870000000 1.0
C      1  0.5207160000000  0.5438230000000  0.5398220000000 1.0
C      1  0.5184080000000  0.4463920000000  0.5216760000000 1.0
C      1  0.5178700000000  0.5101500000000  0.4446790000000 1.0
C      1  0.4519250000000  0.4551800000000  0.4847310000000 1.0
C      1  0.4518810000000  0.5254210000000  0.4794190000000 1.0
C      1  0.4526550000000  0.5065570000000  0.5384040000000 1.0
C      1  0.4635010000000  0.4893790000000  0.4477600000000 1.0
C      1  0.4658960000000  0.5516700000000  0.5223930000000 1.0
C      1  0.4622760000000  0.4586380000000  0.5320470000000 1.0
C      1  0.5010440000000  0.5204660000000  0.5449010000000 1.0
C      1  0.4990620000000  0.4437670000000  0.4986030000000 1.0
C      1  0.4965680000000  0.5273800000000  0.4574730000000 1.0
C      1  0.4689270000000  0.4471640000000  0.5056200000000 1.0
C      1  0.4682380000000  0.5169180000000  0.4573670000000 1.0
C      1  0.4724000000000  0.5265490000000  0.5368110000000 1.0
C      1  0.5577580000000  0.4759380000000  0.5212310000000 1.0
C      1  0.5573580000000  0.4962140000000  0.4691750000000 1.0
C      1  0.5578970000000  0.5315820000000  0.5106860000000 1.0
END
