TITL C-3577085-527-660 9.29024426617681e-07 125000 -212.643494742364 0 0 36 (C1) n - 1
REM
REM in /home/bkarasulu/work/CARBON/AIRSS/Generating-Clusters/EDIP-Nigel-Params/with-SteepDescent/Higher-Symm/SD-CG/HFTN-CG
REM
REM
REM
REM
REM
REM ./C.cell (12c818d87b63d06a65506943cc24bca4)
REM
REM compiler GCC version 9.2.1 20190827 (Red Hat 9.2.1-1)
REM options -cpp -mtune=generic -march=x86-64 -g -O0 -fpre-include=/usr/include/finclude/math-vector-fortran.h
REM seed -1640800330 1879804544 -1619570669 -204645497 2047836614 -428088973 1315999988 -1915422835 -2130923259 1846670880 2041378214 -407107861 -1714720496 922937978 -1907281070 -176802252 -1535477610 280943134 -541144424 1739877349 152518437 -738952805 -857930056 -966633823 -2019895527 1502046580 1118213281 1810329958 815224718 -1889656373 -1508598012 144515863 411309719
REM
CELL 1.54180   50.00000   50.00000   50.00000   90.00000   90.00000   90.00000
LATT -1
SFAC C  
C      1  0.5427180000000  0.4718620000000  0.4941320000000 1.0
C      1  0.4355690000000  0.4989910000000  0.5108640000000 1.0
C      1  0.4743030000000  0.4683300000000  0.4740300000000 1.0
C      1  0.5386920000000  0.5522200000000  0.4748260000000 1.0
C      1  0.5496960000000  0.4766620000000  0.5231410000000 1.0
C      1  0.4914780000000  0.5402210000000  0.4702990000000 1.0
C      1  0.5311340000000  0.5566250000000  0.5016500000000 1.0
C      1  0.4874750000000  0.5649300000000  0.4834970000000 1.0
C      1  0.4729500000000  0.5188990000000  0.4781810000000 1.0
C      1  0.5031500000000  0.5628450000000  0.5066790000000 1.0
C      1  0.4532330000000  0.4433160000000  0.4953870000000 1.0
C      1  0.5356080000000  0.5016090000000  0.5313530000000 1.0
C      1  0.5753830000000  0.4957810000000  0.4672530000000 1.0
C      1  0.4382690000000  0.4835150000000  0.5337820000000 1.0
C      1  0.5503150000000  0.4943080000000  0.4760480000000 1.0
C      1  0.4303860000000  0.5268510000000  0.5087610000000 1.0
C      1  0.4904470000000  0.5515480000000  0.5287590000000 1.0
C      1  0.5117460000000  0.4636370000000  0.5422770000000 1.0
C      1  0.5198450000000  0.5332410000000  0.4656190000000 1.0
C      1  0.4683430000000  0.4562370000000  0.5161450000000 1.0
C      1  0.4532970000000  0.4491040000000  0.4682730000000 1.0
C      1  0.5471820000000  0.5484980000000  0.5227940000000 1.0
C      1  0.5114210000000  0.4732960000000  0.4452660000000 1.0
C      1  0.5140620000000  0.4640420000000  0.4931420000000 1.0
C      1  0.5283140000000  0.5052380000000  0.4585100000000 1.0
C      1  0.4979230000000  0.4565010000000  0.5167010000000 1.0
C      1  0.4759620000000  0.5278740000000  0.5303540000000 1.0
C      1  0.5391610000000  0.4555310000000  0.5394680000000 1.0
C      1  0.5495450000000  0.5252910000000  0.5358420000000 1.0
C      1  0.5016570000000  0.4581420000000  0.4677390000000 1.0
C      1  0.5121900000000  0.4932990000000  0.5468390000000 1.0
C      1  0.4726000000000  0.4954310000000  0.4606780000000 1.0
C      1  0.4592700000000  0.5210060000000  0.5059570000000 1.0
C      1  0.4880940000000  0.5071770000000  0.5441920000000 1.0
C      1  0.4539800000000  0.4621650000000  0.5396070000000 1.0
C      1  0.4946000000000  0.4957750000000  0.4419550000000 1.0
END
