TITL C-3577089-586-656 8.69156239244627e-08 125000 -163.045843959844 0 0 27 (C1) n - 1
REM
REM in /home/bkarasulu/work/CARBON/AIRSS/Generating-Clusters/EDIP-Nigel-Params/with-SteepDescent/Higher-Symm/SD-CG/HFTN-CG
REM
REM
REM
REM
REM
REM ./C.cell (12c818d87b63d06a65506943cc24bca4)
REM
REM compiler GCC version 9.2.1 20190827 (Red Hat 9.2.1-1)
REM options -cpp -mtune=generic -march=x86-64 -g -O0 -fpre-include=/usr/include/finclude/math-vector-fortran.h
REM seed -1772464501 1081167884 1192615610 715959831 -1600127197 -998597430 -596738518 2122328306 88187116 454934810 -499509866 1157712556 -1776395699 -100892374 493586059 -1718716739 -1037567158 -639806737 1792132379 -1800739106 -1660899530 2123912153 -519341783 1423459013 1015683637 -1345980221 -1857877135 -378036124 32701240 924917211 -1495514618 -642660343 -480844185
REM
CELL 1.54180   50.00000   50.00000   50.00000   90.00000   90.00000   90.00000
LATT -1
SFAC C  
C      1  0.5253590000000  0.4639260000000  0.5239800000000 1.0
C      1  0.4760210000000  0.4606310000000  0.5167460000000 1.0
C      1  0.4476310000000  0.5025690000000  0.5175950000000 1.0
C      1  0.5059390000000  0.5511840000000  0.5194880000000 1.0
C      1  0.5440290000000  0.5201750000000  0.5152010000000 1.0
C      1  0.5209810000000  0.5353320000000  0.4743380000000 1.0
C      1  0.4734610000000  0.5419130000000  0.4828750000000 1.0
C      1  0.4433820000000  0.4863090000000  0.4750520000000 1.0
C      1  0.5068090000000  0.4486270000000  0.4792670000000 1.0
C      1  0.5430500000000  0.4815830000000  0.4817530000000 1.0
C      1  0.4696980000000  0.4772110000000  0.4701540000000 1.0
C      1  0.4470870000000  0.5323900000000  0.4796880000000 1.0
C      1  0.4953060000000  0.5245440000000  0.4702150000000 1.0
C      1  0.5565950000000  0.5046530000000  0.4713360000000 1.0
C      1  0.5158130000000  0.4745760000000  0.4714820000000 1.0
C      1  0.4717040000000  0.5186700000000  0.5258520000000 1.0
C      1  0.4520330000000  0.4749340000000  0.5219440000000 1.0
C      1  0.4998730000000  0.4751570000000  0.5281770000000 1.0
C      1  0.5590410000000  0.4975520000000  0.5244500000000 1.0
C      1  0.5176740000000  0.5265190000000  0.5278960000000 1.0
C      1  0.4370470000000  0.5086550000000  0.4905100000000 1.0
C      1  0.5446860000000  0.5256970000000  0.4857550000000 1.0
C      1  0.5469660000000  0.4760790000000  0.5108270000000 1.0
C      1  0.4795240000000  0.4537980000000  0.4865510000000 1.0
C      1  0.4787220000000  0.5450820000000  0.5128140000000 1.0
C      1  0.4972830000000  0.5048320000000  0.5296050000000 1.0
C      1  0.4935930000000  0.4945420000000  0.4716560000000 1.0
END
