TITL C-3577087-600-636 -3.10424603092683e-06 125000 -610.782092883715 0 0 99 (C1) n - 1
REM
REM in /home/bkarasulu/work/CARBON/AIRSS/Generating-Clusters/EDIP-Nigel-Params/with-SteepDescent/Higher-Symm/SD-CG/HFTN-CG
REM
REM
REM
REM
REM
REM ./C.cell (12c818d87b63d06a65506943cc24bca4)
REM
REM compiler GCC version 9.2.1 20190827 (Red Hat 9.2.1-1)
REM options -cpp -mtune=generic -march=x86-64 -g -O0 -fpre-include=/usr/include/finclude/math-vector-fortran.h
REM seed 762486612 1200198769 1300989146 33622869 1542596059 -2030031239 1973582661 1044389376 1499159712 1488660223 -1812607907 -2007896373 -1714137587 -384928785 -1974518816 1870234278 -108751744 2127990004 438153800 -2121203797 131862033 -985381339 1719932043 -1165012592 -827186386 1236040673 1844900942 856005287 -127581478 -2011526371 875821791 517845002 1269734231
REM
CELL 1.54180   50.00000   50.00000   50.00000   90.00000   90.00000   90.00000
LATT -1
SFAC C  
C      1  0.4228170000000  0.5107640000000  0.5107430000000 1.0
C      1  0.4268620000000  0.5120310000000  0.4832390000000 1.0
C      1  0.5646270000000  0.4686990000000  0.4670140000000 1.0
C      1  0.5717870000000  0.4720020000000  0.5432040000000 1.0
C      1  0.4152910000000  0.4866420000000  0.5526850000000 1.0
C      1  0.4252150000000  0.4862330000000  0.4402480000000 1.0
C      1  0.5348910000000  0.4305410000000  0.4745910000000 1.0
C      1  0.5413100000000  0.4349240000000  0.5310990000000 1.0
C      1  0.5511430000000  0.5516500000000  0.4485770000000 1.0
C      1  0.5532080000000  0.5448580000000  0.5466860000000 1.0
C      1  0.4358790000000  0.5391890000000  0.4788610000000 1.0
C      1  0.4342560000000  0.5327040000000  0.5228900000000 1.0
C      1  0.4729960000000  0.4795000000000  0.4103270000000 1.0
C      1  0.4825040000000  0.4698010000000  0.5752620000000 1.0
C      1  0.5491310000000  0.4969990000000  0.5604860000000 1.0
C      1  0.5488400000000  0.5041100000000  0.4362980000000 1.0
C      1  0.5065300000000  0.5340750000000  0.5592150000000 1.0
C      1  0.5023490000000  0.5361860000000  0.4450880000000 1.0
C      1  0.4182900000000  0.4888560000000  0.4683360000000 1.0
C      1  0.4131820000000  0.4871930000000  0.5235060000000 1.0
C      1  0.5290490000000  0.5725990000000  0.5218320000000 1.0
C      1  0.5272900000000  0.5759780000000  0.4791880000000 1.0
C      1  0.4936060000000  0.4926600000000  0.5133660000000 1.0
C      1  0.4831270000000  0.4810450000000  0.4871170000000 1.0
C      1  0.4965080000000  0.4195750000000  0.5131690000000 1.0
C      1  0.4936440000000  0.4043910000000  0.4880050000000 1.0
C      1  0.5385850000000  0.5307640000000  0.4336580000000 1.0
C      1  0.5354940000000  0.5234170000000  0.5558750000000 1.0
C      1  0.4917820000000  0.4261070000000  0.4497240000000 1.0
C      1  0.4982830000000  0.4278400000000  0.5563330000000 1.0
C      1  0.5070650000000  0.5584280000000  0.5742380000000 1.0
C      1  0.4960240000000  0.5565630000000  0.4250250000000 1.0
C      1  0.5136760000000  0.5499300000000  0.4855790000000 1.0
C      1  0.5192470000000  0.5372270000000  0.5112700000000 1.0
C      1  0.4427460000000  0.4622260000000  0.4430320000000 1.0
C      1  0.4362610000000  0.4653670000000  0.5540840000000 1.0
C      1  0.5068380000000  0.4700600000000  0.4742170000000 1.0
C      1  0.5057920000000  0.4697990000000  0.5320770000000 1.0
C      1  0.5197240000000  0.4501570000000  0.4911880000000 1.0
C      1  0.5300780000000  0.4599000000000  0.5170510000000 1.0
C      1  0.4419590000000  0.5360920000000  0.4328260000000 1.0
C      1  0.4388110000000  0.5332880000000  0.5672990000000 1.0
C      1  0.5336240000000  0.4571520000000  0.5728200000000 1.0
C      1  0.5274440000000  0.4587720000000  0.4334900000000 1.0
C      1  0.4545710000000  0.4389580000000  0.4854550000000 1.0
C      1  0.4511120000000  0.4369580000000  0.5143500000000 1.0
C      1  0.4658500000000  0.5724580000000  0.4591570000000 1.0
C      1  0.4671450000000  0.5648030000000  0.5393650000000 1.0
C      1  0.4903710000000  0.5011880000000  0.4128440000000 1.0
C      1  0.4926000000000  0.4942380000000  0.5884170000000 1.0
C      1  0.4950010000000  0.5392560000000  0.5307880000000 1.0
C      1  0.4885690000000  0.5444180000000  0.4718890000000 1.0
C      1  0.4448640000000  0.5523520000000  0.4553690000000 1.0
C      1  0.4438820000000  0.5481830000000  0.5434150000000 1.0
C      1  0.5661740000000  0.5152630000000  0.4808370000000 1.0
C      1  0.5672920000000  0.5099880000000  0.5105220000000 1.0
C      1  0.5757050000000  0.4640320000000  0.4928890000000 1.0
C      1  0.5811110000000  0.4802200000000  0.5157940000000 1.0
C      1  0.5162830000000  0.4172980000000  0.5352720000000 1.0
C      1  0.5139590000000  0.4109080000000  0.4645950000000 1.0
C      1  0.4717590000000  0.4989460000000  0.4647310000000 1.0
C      1  0.4637830000000  0.5094100000000  0.5521280000000 1.0
C      1  0.5410060000000  0.5719880000000  0.5489970000000 1.0
C      1  0.5349760000000  0.5762270000000  0.4497530000000 1.0
C      1  0.5052730000000  0.5906330000000  0.5166170000000 1.0
C      1  0.5048870000000  0.5966210000000  0.4863870000000 1.0
C      1  0.5546870000000  0.4494370000000  0.5532260000000 1.0
C      1  0.5478990000000  0.4479150000000  0.4532380000000 1.0
C      1  0.4756890000000  0.5844050000000  0.4844240000000 1.0
C      1  0.4782320000000  0.5766760000000  0.5153270000000 1.0
C      1  0.4224270000000  0.5110050000000  0.5651180000000 1.0
C      1  0.4357830000000  0.5099850000000  0.4290510000000 1.0
C      1  0.5608470000000  0.5434520000000  0.4749930000000 1.0
C      1  0.5622830000000  0.5399790000000  0.5193900000000 1.0
C      1  0.4860620000000  0.5160600000000  0.5706950000000 1.0
C      1  0.4902720000000  0.5101480000000  0.4409000000000 1.0
C      1  0.5239140000000  0.4951690000000  0.4763430000000 1.0
C      1  0.5195930000000  0.5062080000000  0.5046470000000 1.0
C      1  0.4726170000000  0.4241780000000  0.5289130000000 1.0
C      1  0.4709100000000  0.4183040000000  0.4714460000000 1.0
C      1  0.5351350000000  0.4843420000000  0.4193250000000 1.0
C      1  0.5400330000000  0.4827750000000  0.5846040000000 1.0
C      1  0.5257780000000  0.5774550000000  0.5719530000000 1.0
C      1  0.5143910000000  0.5759660000000  0.4306060000000 1.0
C      1  0.5408370000000  0.4948530000000  0.5224860000000 1.0
C      1  0.5514480000000  0.4954520000000  0.4646310000000 1.0
C      1  0.4315960000000  0.4535910000000  0.5277080000000 1.0
C      1  0.4360750000000  0.4549830000000  0.4702240000000 1.0
C      1  0.5610590000000  0.4208800000000  0.5157270000000 1.0
C      1  0.5547500000000  0.4171950000000  0.4900790000000 1.0
C      1  0.4624490000000  0.4790260000000  0.5554020000000 1.0
C      1  0.4710120000000  0.4706170000000  0.4377950000000 1.0
C      1  0.4982810000000  0.4558110000000  0.4468780000000 1.0
C      1  0.5050730000000  0.4564480000000  0.5600880000000 1.0
C      1  0.5185530000000  0.4934370000000  0.5985750000000 1.0
C      1  0.5157270000000  0.4960640000000  0.4022160000000 1.0
C      1  0.4698640000000  0.5228080000000  0.4859850000000 1.0
C      1  0.4755140000000  0.5166630000000  0.5221840000000 1.0
C      1  0.5582840000000  0.5616750000000  0.4983200000000 1.0
END
