TITL C-3578200-9634-400 -3.22766433689547e-06 125000 -400.511734090174 0 0 64 (C1) n - 1
REM
REM in /home/bkarasulu/work/CARBON/AIRSS/Generating-Clusters/EDIP-Nigel-Params/with-SteepDescent/Higher-Symm/SD-CG/HFTN-CG
REM
REM
REM
REM
REM
REM ./C.cell (12c818d87b63d06a65506943cc24bca4)
REM
REM compiler GCC version 9.2.1 20190827 (Red Hat 9.2.1-1)
REM options -cpp -mtune=generic -march=x86-64 -g -O0 -fpre-include=/usr/include/finclude/math-vector-fortran.h
REM seed -2120681526 -280923843 -152512946 1795734100 1452463944 -1219310439 -1602428354 -1857166388 491661804 1574042873 184842767 2059871857 1051368409 1719056006 -1769059305 -993121502 -1716301047 118605685 -1018613440 -161762308 -703529160 523399898 -1021370130 71078471 971038195 344238287 335664944 -38388755 -1916708927 1676405041 1794582408 584112120 -512375004
REM
CELL 1.54180   50.00000   50.00000   50.00000   90.00000   90.00000   90.00000
LATT -1
SFAC C  
C      1  0.5273260000000  0.4347990000000  0.4625920000000 1.0
C      1  0.5623440000000  0.5038620000000  0.4701620000000 1.0
C      1  0.5158280000000  0.5610610000000  0.4679660000000 1.0
C      1  0.4564260000000  0.5244820000000  0.4731780000000 1.0
C      1  0.4567130000000  0.4610450000000  0.4680280000000 1.0
C      1  0.4470840000000  0.5452600000000  0.4932180000000 1.0
C      1  0.4385280000000  0.4627750000000  0.4910060000000 1.0
C      1  0.5185830000000  0.4250870000000  0.4900640000000 1.0
C      1  0.5726160000000  0.4902130000000  0.4948550000000 1.0
C      1  0.5288810000000  0.5665120000000  0.4947070000000 1.0
C      1  0.5252670000000  0.4912390000000  0.4385450000000 1.0
C      1  0.5149650000000  0.5173580000000  0.4450900000000 1.0
C      1  0.4873750000000  0.5198520000000  0.4363660000000 1.0
C      1  0.4762420000000  0.4913780000000  0.4316520000000 1.0
C      1  0.5026740000000  0.4718460000000  0.4323870000000 1.0
C      1  0.4803440000000  0.5577600000000  0.5418760000000 1.0
C      1  0.4589870000000  0.4895540000000  0.5570090000000 1.0
C      1  0.4934250000000  0.4527100000000  0.5452120000000 1.0
C      1  0.5422670000000  0.4698840000000  0.5482420000000 1.0
C      1  0.5368350000000  0.5276840000000  0.5479340000000 1.0
C      1  0.4364820000000  0.5036330000000  0.4643600000000 1.0
C      1  0.4808000000000  0.4443870000000  0.4690610000000 1.0
C      1  0.5500580000000  0.4572670000000  0.4662920000000 1.0
C      1  0.5548390000000  0.5335450000000  0.4711220000000 1.0
C      1  0.4851230000000  0.5605830000000  0.4669350000000 1.0
C      1  0.5474750000000  0.5437270000000  0.4982900000000 1.0
C      1  0.4707500000000  0.5638050000000  0.4929230000000 1.0
C      1  0.4248700000000  0.4902760000000  0.4893690000000 1.0
C      1  0.4904180000000  0.4342840000000  0.4946320000000 1.0
C      1  0.5656110000000  0.4616980000000  0.4924800000000 1.0
C      1  0.4515130000000  0.4826060000000  0.4485870000000 1.0
C      1  0.5019920000000  0.4450720000000  0.4485360000000 1.0
C      1  0.5499930000000  0.4834150000000  0.4513830000000 1.0
C      1  0.5315470000000  0.5399470000000  0.4532730000000 1.0
C      1  0.4704270000000  0.5393320000000  0.4509750000000 1.0
C      1  0.5343740000000  0.4967980000000  0.5592180000000 1.0
C      1  0.5042130000000  0.5468470000000  0.5576470000000 1.0
C      1  0.4631730000000  0.5189100000000  0.5641500000000 1.0
C      1  0.4852490000000  0.4755920000000  0.5628690000000 1.0
C      1  0.5221680000000  0.4490240000000  0.5469030000000 1.0
C      1  0.5168310000000  0.4736160000000  0.4786200000000 1.0
C      1  0.5267930000000  0.5031660000000  0.4853040000000 1.0
C      1  0.5070080000000  0.5290430000000  0.4879000000000 1.0
C      1  0.4814330000000  0.5100440000000  0.4852340000000 1.0
C      1  0.4787730000000  0.4990820000000  0.5129410000000 1.0
C      1  0.5541800000000  0.5285010000000  0.5232190000000 1.0
C      1  0.4860870000000  0.5718780000000  0.5170560000000 1.0
C      1  0.4306350000000  0.5040060000000  0.5168740000000 1.0
C      1  0.4789290000000  0.4470310000000  0.5192830000000 1.0
C      1  0.5546240000000  0.4499760000000  0.5172870000000 1.0
C      1  0.4594380000000  0.5373360000000  0.5411640000000 1.0
C      1  0.4543780000000  0.4880710000000  0.5270910000000 1.0
C      1  0.5186580000000  0.4639720000000  0.5110610000000 1.0
C      1  0.5275820000000  0.4941410000000  0.5153290000000 1.0
C      1  0.5109910000000  0.5360490000000  0.5212600000000 1.0
C      1  0.4390110000000  0.5334070000000  0.5193730000000 1.0
C      1  0.4519610000000  0.4596490000000  0.5177770000000 1.0
C      1  0.5378400000000  0.4273370000000  0.5112420000000 1.0
C      1  0.5653570000000  0.5022040000000  0.5198980000000 1.0
C      1  0.5131160000000  0.5789630000000  0.5141500000000 1.0
C      1  0.4911320000000  0.4871260000000  0.4664020000000 1.0
C      1  0.5037980000000  0.4994260000000  0.5584850000000 1.0
C      1  0.5029060000000  0.5065210000000  0.5281690000000 1.0
C      1  0.4923280000000  0.5234320000000  0.5723880000000 1.0
END
