TITL C-3577083-591-243 -6.21149080466588e-07 125000 -1123.07492975204 0 0 181 (C1) n - 1
REM
REM in /home/bkarasulu/work/CARBON/AIRSS/Generating-Clusters/EDIP-Nigel-Params/with-SteepDescent/Higher-Symm/SD-CG/HFTN-CG
REM
REM
REM
REM
REM
REM ./C.cell (12c818d87b63d06a65506943cc24bca4)
REM
REM compiler GCC version 9.2.1 20190827 (Red Hat 9.2.1-1)
REM options -cpp -mtune=generic -march=x86-64 -g -O0 -fpre-include=/usr/include/finclude/math-vector-fortran.h
REM seed -806767472 -92304401 1333449915 -1171171737 317182818 -1869153562 1526649819 -998204990 442498509 -2125734273 1218477216 -1461727680 414704697 1392533634 1947875411 -269712548 -966231491 -1312323035 571831889 574125312 1355956983 866557698 -1453785103 -1572700765 1530357472 -1904275636 -156025060 -1023645400 75530252 -2017670605 479981988 970023094 -1567557308
REM
CELL 1.54180   50.00000   50.00000   50.00000   90.00000   90.00000   90.00000
LATT -1
SFAC C  
C      1  0.5218860000000  0.5829480000000  0.4010620000000 1.0
C      1  0.4631990000000  0.4514360000000  0.4863540000000 1.0
C      1  0.4714310000000  0.5724240000000  0.5244290000000 1.0
C      1  0.4276620000000  0.5116030000000  0.4070070000000 1.0
C      1  0.5163880000000  0.4100470000000  0.5681330000000 1.0
C      1  0.5357850000000  0.4159300000000  0.4472140000000 1.0
C      1  0.4503790000000  0.5609030000000  0.4369520000000 1.0
C      1  0.4697190000000  0.4129260000000  0.5654610000000 1.0
C      1  0.4741240000000  0.4571190000000  0.6097640000000 1.0
C      1  0.5094150000000  0.4298730000000  0.4649260000000 1.0
C      1  0.3887800000000  0.5198730000000  0.4894210000000 1.0
C      1  0.5746480000000  0.5074640000000  0.5489310000000 1.0
C      1  0.4137550000000  0.4345980000000  0.4450700000000 1.0
C      1  0.5254650000000  0.4809390000000  0.4554120000000 1.0
C      1  0.4807560000000  0.5907620000000  0.5452820000000 1.0
C      1  0.4836770000000  0.4393070000000  0.5073140000000 1.0
C      1  0.6042540000000  0.5046610000000  0.5493880000000 1.0
C      1  0.4464380000000  0.4291100000000  0.5709540000000 1.0
C      1  0.6110440000000  0.5295570000000  0.5356880000000 1.0
C      1  0.5252190000000  0.4600340000000  0.5962860000000 1.0
C      1  0.5868520000000  0.4615850000000  0.4880270000000 1.0
C      1  0.5649940000000  0.5015850000000  0.5199670000000 1.0
C      1  0.4601730000000  0.4022070000000  0.5126200000000 1.0
C      1  0.4462700000000  0.4279320000000  0.4728650000000 1.0
C      1  0.4201440000000  0.4383000000000  0.5192310000000 1.0
C      1  0.5301430000000  0.5719230000000  0.4277060000000 1.0
C      1  0.4342850000000  0.4460030000000  0.5459650000000 1.0
C      1  0.3996750000000  0.5462760000000  0.4860950000000 1.0
C      1  0.6101330000000  0.4910520000000  0.4200100000000 1.0
C      1  0.4893810000000  0.5536840000000  0.5697970000000 1.0
C      1  0.4987100000000  0.4448920000000  0.5989890000000 1.0
C      1  0.5247720000000  0.4888500000000  0.6056410000000 1.0
C      1  0.5294400000000  0.4648660000000  0.4314110000000 1.0
C      1  0.4235030000000  0.5582460000000  0.4963360000000 1.0
C      1  0.5316630000000  0.5878150000000  0.4538940000000 1.0
C      1  0.4030310000000  0.5581640000000  0.5519220000000 1.0
C      1  0.6046060000000  0.5161030000000  0.4304650000000 1.0
C      1  0.5720290000000  0.5131140000000  0.4683660000000 1.0
C      1  0.5348810000000  0.4171260000000  0.4180020000000 1.0
C      1  0.5150390000000  0.4933120000000  0.5208410000000 1.0
C      1  0.4869880000000  0.4216930000000  0.4476960000000 1.0
C      1  0.4977850000000  0.5302460000000  0.6080640000000 1.0
C      1  0.5021140000000  0.4609690000000  0.4191860000000 1.0
C      1  0.4093500000000  0.4918360000000  0.5519080000000 1.0
C      1  0.4774760000000  0.4076160000000  0.5374900000000 1.0
C      1  0.5065760000000  0.5988880000000  0.4669870000000 1.0
C      1  0.5735960000000  0.4635360000000  0.5738960000000 1.0
C      1  0.4549500000000  0.4461920000000  0.4169330000000 1.0
C      1  0.4987100000000  0.5054270000000  0.3911920000000 1.0
C      1  0.5074890000000  0.4613470000000  0.4696730000000 1.0
C      1  0.4197690000000  0.5234520000000  0.4324810000000 1.0
C      1  0.4961240000000  0.5472790000000  0.4807340000000 1.0
C      1  0.5247810000000  0.5110400000000  0.4993340000000 1.0
C      1  0.5480730000000  0.4994400000000  0.6168400000000 1.0
C      1  0.6112230000000  0.5298630000000  0.4985080000000 1.0
C      1  0.4707430000000  0.5773410000000  0.5685860000000 1.0
C      1  0.4243920000000  0.5855130000000  0.5105470000000 1.0
C      1  0.4638760000000  0.5149070000000  0.4528210000000 1.0
C      1  0.4522450000000  0.5041450000000  0.5318820000000 1.0
C      1  0.5516340000000  0.5694680000000  0.5491620000000 1.0
C      1  0.4764420000000  0.4688730000000  0.5625240000000 1.0
C      1  0.5009860000000  0.4172170000000  0.4924770000000 1.0
C      1  0.5059640000000  0.4565870000000  0.5571460000000 1.0
C      1  0.5028920000000  0.5180010000000  0.4804350000000 1.0
C      1  0.5089530000000  0.5092700000000  0.5889510000000 1.0
C      1  0.5878350000000  0.5475880000000  0.5360140000000 1.0
C      1  0.5043210000000  0.5564030000000  0.5967450000000 1.0
C      1  0.4766180000000  0.5226960000000  0.3995740000000 1.0
C      1  0.4601050000000  0.4602810000000  0.5383140000000 1.0
C      1  0.5945160000000  0.5516370000000  0.4895920000000 1.0
C      1  0.5490090000000  0.5267550000000  0.5090490000000 1.0
C      1  0.5555070000000  0.4588350000000  0.4178060000000 1.0
C      1  0.4580460000000  0.4803690000000  0.5177020000000 1.0
C      1  0.4980450000000  0.5124370000000  0.5390480000000 1.0
C      1  0.5497070000000  0.4461280000000  0.5819980000000 1.0
C      1  0.4677710000000  0.5306440000000  0.5709530000000 1.0
C      1  0.5283850000000  0.5228280000000  0.5697520000000 1.0
C      1  0.4813410000000  0.4410670000000  0.4269090000000 1.0
C      1  0.4375390000000  0.4989990000000  0.5886790000000 1.0
C      1  0.5508550000000  0.4902380000000  0.4703800000000 1.0
C      1  0.4392970000000  0.4292090000000  0.4349620000000 1.0
C      1  0.6012250000000  0.4822740000000  0.5033650000000 1.0
C      1  0.4088060000000  0.4656710000000  0.5063600000000 1.0
C      1  0.4815760000000  0.5906780000000  0.4523210000000 1.0
C      1  0.5325180000000  0.5727940000000  0.5091740000000 1.0
C      1  0.4849210000000  0.5024050000000  0.5659200000000 1.0
C      1  0.5700430000000  0.5499420000000  0.5601230000000 1.0
C      1  0.4315110000000  0.5438210000000  0.5222740000000 1.0
C      1  0.4689590000000  0.5297170000000  0.6019960000000 1.0
C      1  0.4571700000000  0.5211890000000  0.4801300000000 1.0
C      1  0.5352890000000  0.4313810000000  0.5603850000000 1.0
C      1  0.5779820000000  0.5243710000000  0.4392110000000 1.0
C      1  0.5013410000000  0.6010940000000  0.4058830000000 1.0
C      1  0.4885770000000  0.4787600000000  0.3809450000000 1.0
C      1  0.5598830000000  0.4293660000000  0.4568150000000 1.0
C      1  0.4418360000000  0.5717530000000  0.5674610000000 1.0
C      1  0.5135560000000  0.5565590000000  0.3882630000000 1.0
C      1  0.4780180000000  0.5070230000000  0.4948660000000 1.0
C      1  0.4180360000000  0.5032170000000  0.4543730000000 1.0
C      1  0.4173640000000  0.5818170000000  0.5394130000000 1.0
C      1  0.4646250000000  0.4855590000000  0.4473940000000 1.0
C      1  0.5843700000000  0.4341050000000  0.5010550000000 1.0
C      1  0.4881370000000  0.5507820000000  0.4065710000000 1.0
C      1  0.4657230000000  0.5507330000000  0.4866070000000 1.0
C      1  0.6114010000000  0.4817760000000  0.4460460000000 1.0
C      1  0.4574620000000  0.4550850000000  0.5849880000000 1.0
C      1  0.4592960000000  0.5477010000000  0.5364790000000 1.0
C      1  0.5067950000000  0.5043110000000  0.4479890000000 1.0
C      1  0.5077560000000  0.5510820000000  0.4319620000000 1.0
C      1  0.4326220000000  0.4711950000000  0.5867060000000 1.0
C      1  0.4659730000000  0.4076120000000  0.4632800000000 1.0
C      1  0.3961840000000  0.4683440000000  0.4780420000000 1.0
C      1  0.5054460000000  0.3973770000000  0.5432500000000 1.0
C      1  0.5254280000000  0.4375890000000  0.5231580000000 1.0
C      1  0.4717110000000  0.6121310000000  0.5000810000000 1.0
C      1  0.6046380000000  0.4789340000000  0.5332760000000 1.0
C      1  0.5019450000000  0.4563720000000  0.5248030000000 1.0
C      1  0.4906780000000  0.5597610000000  0.4544010000000 1.0
C      1  0.5092600000000  0.5946950000000  0.5447890000000 1.0
C      1  0.5846580000000  0.5660490000000  0.5127660000000 1.0
C      1  0.5130790000000  0.5381240000000  0.5488070000000 1.0
C      1  0.5495500000000  0.4341560000000  0.4008310000000 1.0
C      1  0.4733270000000  0.4836690000000  0.6193640000000 1.0
C      1  0.3923990000000  0.4975690000000  0.4692580000000 1.0
C      1  0.4544020000000  0.5030410000000  0.3999000000000 1.0
C      1  0.5740500000000  0.4384850000000  0.5291160000000 1.0
C      1  0.5898990000000  0.4555300000000  0.5479670000000 1.0
C      1  0.4557310000000  0.5877260000000  0.5038270000000 1.0
C      1  0.5568890000000  0.5784870000000  0.4658660000000 1.0
C      1  0.5722770000000  0.5612140000000  0.4477810000000 1.0
C      1  0.5586320000000  0.5762580000000  0.4958310000000 1.0
C      1  0.3840060000000  0.5121490000000  0.5173430000000 1.0
C      1  0.4790380000000  0.4705910000000  0.4702800000000 1.0
C      1  0.5736030000000  0.4490330000000  0.4411490000000 1.0
C      1  0.5641540000000  0.5391610000000  0.4842890000000 1.0
C      1  0.3952760000000  0.4863250000000  0.5262260000000 1.0
C      1  0.5301110000000  0.4804030000000  0.5628000000000 1.0
C      1  0.4666470000000  0.5715960000000  0.4146180000000 1.0
C      1  0.4328970000000  0.4790450000000  0.4457410000000 1.0
C      1  0.4213370000000  0.5149120000000  0.5697780000000 1.0
C      1  0.5496530000000  0.3941360000000  0.4834210000000 1.0
C      1  0.4746020000000  0.5211530000000  0.5235100000000 1.0
C      1  0.4781430000000  0.3976900000000  0.4885700000000 1.0
C      1  0.5495280000000  0.4547570000000  0.5201140000000 1.0
C      1  0.4614890000000  0.4750140000000  0.3934790000000 1.0
C      1  0.4360590000000  0.4769490000000  0.4960340000000 1.0
C      1  0.5961760000000  0.5073860000000  0.4892120000000 1.0
C      1  0.4364090000000  0.4190600000000  0.5016410000000 1.0
C      1  0.5411400000000  0.4828190000000  0.5330710000000 1.0
C      1  0.5334500000000  0.5619210000000  0.5922840000000 1.0
C      1  0.4568590000000  0.5046900000000  0.6095200000000 1.0
C      1  0.5619450000000  0.4916720000000  0.5715430000000 1.0
C      1  0.3972890000000  0.5314880000000  0.5365240000000 1.0
C      1  0.5571060000000  0.5595870000000  0.4235570000000 1.0
C      1  0.5509160000000  0.5371670000000  0.5825330000000 1.0
C      1  0.4177280000000  0.4582910000000  0.4599360000000 1.0
C      1  0.5919910000000  0.4641270000000  0.4578000000000 1.0
C      1  0.4174410000000  0.4658650000000  0.5624340000000 1.0
C      1  0.4311970000000  0.5075390000000  0.4880200000000 1.0
C      1  0.4277550000000  0.5144890000000  0.5189640000000 1.0
C      1  0.4791680000000  0.5968170000000  0.4223740000000 1.0
C      1  0.5271670000000  0.4060160000000  0.5252750000000 1.0
C      1  0.4266430000000  0.5451890000000  0.5664280000000 1.0
C      1  0.5276730000000  0.3913860000000  0.5011290000000 1.0
C      1  0.5363580000000  0.5517220000000  0.5300290000000 1.0
C      1  0.5067100000000  0.4570050000000  0.3901120000000 1.0
C      1  0.5339990000000  0.5808360000000  0.5694290000000 1.0
C      1  0.5644400000000  0.4201390000000  0.4836760000000 1.0
C      1  0.5402390000000  0.3887210000000  0.4569360000000 1.0
C      1  0.4495370000000  0.5313940000000  0.4324560000000 1.0
C      1  0.4993450000000  0.6061090000000  0.4950750000000 1.0
C      1  0.5210570000000  0.5248850000000  0.4323540000000 1.0
C      1  0.5350220000000  0.4538240000000  0.3849060000000 1.0
C      1  0.5181160000000  0.5969050000000  0.5167090000000 1.0
C      1  0.4935230000000  0.4216480000000  0.5812170000000 1.0
C      1  0.4879010000000  0.4884480000000  0.4246870000000 1.0
C      1  0.5621080000000  0.5105750000000  0.5956530000000 1.0
C      1  0.5594270000000  0.4735930000000  0.4937760000000 1.0
C      1  0.5574340000000  0.5343380000000  0.4093670000000 1.0
C      1  0.4528700000000  0.5726990000000  0.4665370000000 1.0
C      1  0.5285860000000  0.5286380000000  0.3998900000000 1.0
END
