TITL C-3578208-4450-463 -7.46488825523039e-07 125000 -427.60920310559 0 0 68 (S4) n - 1
REM
REM in /home/bkarasulu/work/CARBON/AIRSS/Generating-Clusters/EDIP-Nigel-Params/with-SteepDescent/Higher-Symm/SD-CG/HFTN-CG
REM
REM
REM
REM
REM
REM ./C.cell (12c818d87b63d06a65506943cc24bca4)
REM
REM compiler GCC version 9.2.1 20190827 (Red Hat 9.2.1-1)
REM options -cpp -mtune=generic -march=x86-64 -g -O0 -fpre-include=/usr/include/finclude/math-vector-fortran.h
REM seed -137454689 1244926671 -165319771 1148307011 2007152138 1172708162 -934975847 -1112312325 -512075043 52194748 510186561 -144371190 -1379652291 1044780261 -1161860291 1803355983 -2072310321 785549888 49156524 -2047008954 -2041028422 -1819433789 -1045518502 237406891 -530872450 1100719811 1139314469 -322620989 615549253 -213148030 786287876 -1510805876 232023806
REM
CELL 1.54180   50.00000   50.00000   50.00000   90.00000   90.00000   90.00000
LATT -1
SFAC C  
C      1  0.5604300000000  0.4733740000000  0.5086880000000 1.0
C      1  0.4395690000000  0.4913110000000  0.4733750000000 1.0
C      1  0.5604300000000  0.5266250000000  0.4913110000000 1.0
C      1  0.4395700000000  0.5086890000000  0.5266260000000 1.0
C      1  0.4887170000000  0.4938290000000  0.5305420000000 1.0
C      1  0.5112830000000  0.4694580000000  0.4938290000000 1.0
C      1  0.4887170000000  0.5061710000000  0.4694580000000 1.0
C      1  0.5112830000000  0.5305420000000  0.5061710000000 1.0
C      1  0.4630680000000  0.5329530000000  0.4385360000000 1.0
C      1  0.5369320000000  0.5614640000000  0.5329530000000 1.0
C      1  0.4630690000000  0.4670470000000  0.5614640000000 1.0
C      1  0.5369310000000  0.4385360000000  0.4670470000000 1.0
C      1  0.5039570000000  0.4243560000000  0.5015570000000 1.0
C      1  0.4960420000000  0.4984430000000  0.4243560000000 1.0
C      1  0.5039580000000  0.5756440000000  0.4984430000000 1.0
C      1  0.4960430000000  0.5015570000000  0.5756440000000 1.0
C      1  0.5085260000000  0.4836760000000  0.4673410000000 1.0
C      1  0.4914740000000  0.5326590000000  0.4836760000000 1.0
C      1  0.5085260000000  0.5163240000000  0.5326590000000 1.0
C      1  0.4914740000000  0.4673410000000  0.5163240000000 1.0
C      1  0.5379230000000  0.4810970000000  0.4426510000000 1.0
C      1  0.4620760000000  0.5573480000000  0.4810970000000 1.0
C      1  0.5379240000000  0.5189030000000  0.5573480000000 1.0
C      1  0.4620760000000  0.4426520000000  0.5189030000000 1.0
C      1  0.5533080000000  0.4619730000000  0.4581100000000 1.0
C      1  0.4466910000000  0.5418890000000  0.4619740000000 1.0
C      1  0.5533090000000  0.5380260000000  0.5418890000000 1.0
C      1  0.4466920000000  0.4581110000000  0.5380270000000 1.0
C      1  0.5084020000000  0.5262270000000  0.4249030000000 1.0
C      1  0.4915980000000  0.5750970000000  0.5262270000000 1.0
C      1  0.5084030000000  0.4737730000000  0.5750970000000 1.0
C      1  0.4915970000000  0.4249030000000  0.4737730000000 1.0
C      1  0.4525070000000  0.5157980000000  0.5522750000000 1.0
C      1  0.5474930000000  0.4477250000000  0.5157970000000 1.0
C      1  0.4525060000000  0.4842030000000  0.4477250000000 1.0
C      1  0.5474930000000  0.5522750000000  0.4842020000000 1.0
C      1  0.4738120000000  0.4947720000000  0.5562880000000 1.0
C      1  0.5261880000000  0.4437120000000  0.4947720000000 1.0
C      1  0.4738120000000  0.5052280000000  0.4437130000000 1.0
C      1  0.5261880000000  0.5562880000000  0.5052280000000 1.0
C      1  0.4333740000000  0.5290300000000  0.5063450000000 1.0
C      1  0.5666270000000  0.4936550000000  0.5290290000000 1.0
C      1  0.4333730000000  0.4709710000000  0.4936560000000 1.0
C      1  0.5666260000000  0.5063440000000  0.4709700000000 1.0
C      1  0.4669880000000  0.4412720000000  0.4704610000000 1.0
C      1  0.5330110000000  0.5295390000000  0.4412720000000 1.0
C      1  0.4669890000000  0.5587280000000  0.5295400000000 1.0
C      1  0.5330120000000  0.4704600000000  0.5587270000000 1.0
C      1  0.4893540000000  0.4522720000000  0.5639010000000 1.0
C      1  0.5106460000000  0.4360990000000  0.4522720000000 1.0
C      1  0.4893530000000  0.5477280000000  0.4360990000000 1.0
C      1  0.5106470000000  0.5639010000000  0.5477280000000 1.0
C      1  0.5016800000000  0.5567290000000  0.4644840000000 1.0
C      1  0.4983210000000  0.5355160000000  0.5567290000000 1.0
C      1  0.5016800000000  0.4432710000000  0.5355160000000 1.0
C      1  0.4983200000000  0.4644840000000  0.4432710000000 1.0
C      1  0.5316950000000  0.5529310000000  0.4589940000000 1.0
C      1  0.4683060000000  0.5410060000000  0.5529310000000 1.0
C      1  0.5316950000000  0.4470690000000  0.5410060000000 1.0
C      1  0.4683050000000  0.4589940000000  0.4470690000000 1.0
C      1  0.4327280000000  0.5199200000000  0.4778610000000 1.0
C      1  0.5672720000000  0.5221390000000  0.5199190000000 1.0
C      1  0.4327280000000  0.4800800000000  0.5221400000000 1.0
C      1  0.5672720000000  0.4778600000000  0.4800800000000 1.0
C      1  0.5503970000000  0.5066670000000  0.4462770000000 1.0
C      1  0.4496030000000  0.5537230000000  0.5066680000000 1.0
C      1  0.5503980000000  0.4933320000000  0.5537230000000 1.0
C      1  0.4496020000000  0.4462770000000  0.4933330000000 1.0
END
