TITL C-3577082-504-413 -8.37772161643237e-07 125000 -776.504079566345 0 0 129 (C1) n - 1
REM
REM in /home/bkarasulu/work/CARBON/AIRSS/Generating-Clusters/EDIP-Nigel-Params/with-SteepDescent/Higher-Symm/SD-CG/HFTN-CG
REM
REM
REM
REM
REM
REM ./C.cell (12c818d87b63d06a65506943cc24bca4)
REM
REM compiler GCC version 9.2.1 20190827 (Red Hat 9.2.1-1)
REM options -cpp -mtune=generic -march=x86-64 -g -O0 -fpre-include=/usr/include/finclude/math-vector-fortran.h
REM seed -788138840 -2084991892 789648934 1880885530 -1057890926 966480616 1903245396 1571280795 756332444 1408091649 -2107309509 1870608547 -2026176603 824909570 -2016823521 2077556155 -231643645 1019107588 773922644 873087982 -309309830 1055080601 -894061767 669392513 -1706301031 -736275474 1015716901 2029278358 254353262 -218979225 1082067653 1307900970 -339687650
REM
CELL 1.54180   50.00000   50.00000   50.00000   90.00000   90.00000   90.00000
LATT -1
SFAC C  
C      1  0.4476600000000  0.4862360000000  0.5379940000000 1.0
C      1  0.5250920000000  0.4840830000000  0.5719230000000 1.0
C      1  0.5840900000000  0.4824870000000  0.4923950000000 1.0
C      1  0.5146610000000  0.4890710000000  0.4330320000000 1.0
C      1  0.4593590000000  0.4863220000000  0.4627000000000 1.0
C      1  0.4419550000000  0.5159040000000  0.5386790000000 1.0
C      1  0.5241740000000  0.5096900000000  0.5837780000000 1.0
C      1  0.5746170000000  0.5103070000000  0.4963510000000 1.0
C      1  0.5166990000000  0.5179850000000  0.4382600000000 1.0
C      1  0.4568740000000  0.5150790000000  0.4559480000000 1.0
C      1  0.4179900000000  0.4714080000000  0.4996500000000 1.0
C      1  0.4627690000000  0.4748870000000  0.5618970000000 1.0
C      1  0.5518060000000  0.4709270000000  0.5621490000000 1.0
C      1  0.5798790000000  0.4688410000000  0.4658800000000 1.0
C      1  0.4884340000000  0.4747250000000  0.4166920000000 1.0
C      1  0.4110730000000  0.5210340000000  0.4970130000000 1.0
C      1  0.4552270000000  0.5329910000000  0.5606330000000 1.0
C      1  0.5541880000000  0.5243210000000  0.5632060000000 1.0
C      1  0.5777530000000  0.5263710000000  0.4657740000000 1.0
C      1  0.4872350000000  0.5268070000000  0.4142770000000 1.0
C      1  0.4599030000000  0.4281630000000  0.5581600000000 1.0
C      1  0.5354280000000  0.4246110000000  0.5589660000000 1.0
C      1  0.5708300000000  0.4216630000000  0.4836480000000 1.0
C      1  0.5086610000000  0.4301460000000  0.4197270000000 1.0
C      1  0.4370190000000  0.4318060000000  0.4789800000000 1.0
C      1  0.4541150000000  0.5806040000000  0.5524220000000 1.0
C      1  0.5393430000000  0.5713080000000  0.5622700000000 1.0
C      1  0.5737140000000  0.5708480000000  0.4847970000000 1.0
C      1  0.5045670000000  0.5695560000000  0.4281280000000 1.0
C      1  0.4308780000000  0.5585670000000  0.4772470000000 1.0
C      1  0.5435990000000  0.4448070000000  0.5791270000000 1.0
C      1  0.5937220000000  0.4406880000000  0.4811460000000 1.0
C      1  0.5096070000000  0.4558210000000  0.4041240000000 1.0
C      1  0.4199670000000  0.4558930000000  0.4747320000000 1.0
C      1  0.4469460000000  0.4508940000000  0.5714520000000 1.0
C      1  0.5474250000000  0.5492920000000  0.5805450000000 1.0
C      1  0.5929200000000  0.5481480000000  0.4817360000000 1.0
C      1  0.5076750000000  0.5481470000000  0.4074070000000 1.0
C      1  0.4123250000000  0.5360790000000  0.4712870000000 1.0
C      1  0.4401790000000  0.5585760000000  0.5668900000000 1.0
C      1  0.4481800000000  0.4235980000000  0.4526610000000 1.0
C      1  0.4411470000000  0.4155610000000  0.5386880000000 1.0
C      1  0.5077670000000  0.4150300000000  0.5631260000000 1.0
C      1  0.5623080000000  0.4189050000000  0.5123040000000 1.0
C      1  0.5356810000000  0.4262600000000  0.4292520000000 1.0
C      1  0.4422040000000  0.5701970000000  0.4531970000000 1.0
C      1  0.4372890000000  0.5815480000000  0.5266500000000 1.0
C      1  0.5116710000000  0.5801850000000  0.5669250000000 1.0
C      1  0.5668150000000  0.5756980000000  0.5132000000000 1.0
C      1  0.5308430000000  0.5765640000000  0.4381380000000 1.0
C      1  0.5454910000000  0.5114060000000  0.5070060000000 1.0
C      1  0.5310660000000  0.5099110000000  0.4787490000000 1.0
C      1  0.5060840000000  0.5266900000000  0.4747240000000 1.0
C      1  0.4821040000000  0.5189150000000  0.5039150000000 1.0
C      1  0.4955310000000  0.5197600000000  0.5318820000000 1.0
C      1  0.5323360000000  0.4837530000000  0.5145070000000 1.0
C      1  0.5248180000000  0.4796660000000  0.4749880000000 1.0
C      1  0.4919160000000  0.4724790000000  0.4777240000000 1.0
C      1  0.4841410000000  0.4882810000000  0.5025860000000 1.0
C      1  0.5029970000000  0.4876490000000  0.5271950000000 1.0
C      1  0.3912160000000  0.4746700000000  0.5097290000000 1.0
C      1  0.4658070000000  0.4914740000000  0.5867230000000 1.0
C      1  0.5787600000000  0.4818980000000  0.5711760000000 1.0
C      1  0.5954280000000  0.4819020000000  0.4433070000000 1.0
C      1  0.4700060000000  0.4847760000000  0.3943410000000 1.0
C      1  0.3855170000000  0.5124360000000  0.5064480000000 1.0
C      1  0.4575740000000  0.5194760000000  0.5870500000000 1.0
C      1  0.5808770000000  0.5129030000000  0.5702260000000 1.0
C      1  0.5946630000000  0.5134700000000  0.4440410000000 1.0
C      1  0.4720620000000  0.5153310000000  0.3912800000000 1.0
C      1  0.4382890000000  0.4611870000000  0.5190940000000 1.0
C      1  0.4910990000000  0.4656870000000  0.5517420000000 1.0
C      1  0.5493950000000  0.4627570000000  0.5322120000000 1.0
C      1  0.5499380000000  0.4614680000000  0.4603780000000 1.0
C      1  0.4755040000000  0.4597600000000  0.4394950000000 1.0
C      1  0.4297220000000  0.5345970000000  0.5168600000000 1.0
C      1  0.4833370000000  0.5412210000000  0.5507040000000 1.0
C      1  0.5518090000000  0.5343370000000  0.5335770000000 1.0
C      1  0.5498620000000  0.5374030000000  0.4577400000000 1.0
C      1  0.4696590000000  0.5372200000000  0.4367510000000 1.0
C      1  0.4915310000000  0.4352260000000  0.4434670000000 1.0
C      1  0.4580590000000  0.4382450000000  0.5000160000000 1.0
C      1  0.4804270000000  0.4389650000000  0.5381210000000 1.0
C      1  0.5303380000000  0.4401360000000  0.5343340000000 1.0
C      1  0.5463260000000  0.4360270000000  0.4750750000000 1.0
C      1  0.4877540000000  0.5574300000000  0.4490470000000 1.0
C      1  0.4499910000000  0.5477340000000  0.4979420000000 1.0
C      1  0.4787440000000  0.5686700000000  0.5361020000000 1.0
C      1  0.5326710000000  0.5579040000000  0.5352180000000 1.0
C      1  0.5473880000000  0.5610710000000  0.4761830000000 1.0
C      1  0.4131800000000  0.5571580000000  0.5577800000000 1.0
C      1  0.5214450000000  0.5379950000000  0.5891600000000 1.0
C      1  0.5924500000000  0.5333880000000  0.5079220000000 1.0
C      1  0.5318130000000  0.5342990000000  0.4173700000000 1.0
C      1  0.4285610000000  0.5249810000000  0.4482190000000 1.0
C      1  0.4198100000000  0.4501130000000  0.5624700000000 1.0
C      1  0.5170830000000  0.4587270000000  0.5868710000000 1.0
C      1  0.5934670000000  0.4576960000000  0.5065590000000 1.0
C      1  0.5326200000000  0.4722540000000  0.4157640000000 1.0
C      1  0.4347180000000  0.4701490000000  0.4530830000000 1.0
C      1  0.5479980000000  0.5533920000000  0.4324010000000 1.0
C      1  0.4410670000000  0.5493720000000  0.4327260000000 1.0
C      1  0.4167400000000  0.5593820000000  0.5296270000000 1.0
C      1  0.5003540000000  0.5533210000000  0.5745250000000 1.0
C      1  0.5762180000000  0.5499350000000  0.5264950000000 1.0
C      1  0.5482560000000  0.4528700000000  0.4313250000000 1.0
C      1  0.4473880000000  0.4491980000000  0.4362560000000 1.0
C      1  0.4234080000000  0.4400270000000  0.5359270000000 1.0
C      1  0.4979180000000  0.4389550000000  0.5779510000000 1.0
C      1  0.5733210000000  0.4449050000000  0.5243110000000 1.0
C      1  0.5261960000000  0.4187150000000  0.4651480000000 1.0
C      1  0.4757200000000  0.4139210000000  0.4552060000000 1.0
C      1  0.4616420000000  0.4123570000000  0.5167280000000 1.0
C      1  0.4971140000000  0.4119620000000  0.5326490000000 1.0
C      1  0.5286240000000  0.4195360000000  0.5120430000000 1.0
C      1  0.5264470000000  0.5830640000000  0.4756810000000 1.0
C      1  0.4770960000000  0.5756740000000  0.4685190000000 1.0
C      1  0.4616110000000  0.5718200000000  0.5098040000000 1.0
C      1  0.5048750000000  0.5852920000000  0.5377610000000 1.0
C      1  0.5351570000000  0.5802830000000  0.5138010000000 1.0
C      1  0.5847100000000  0.4980500000000  0.4221390000000 1.0
C      1  0.3828930000000  0.4944330000000  0.5272900000000 1.0
C      1  0.4653830000000  0.5062300000000  0.6112570000000 1.0
C      1  0.4470790000000  0.5018540000000  0.3955940000000 1.0
C      1  0.5963120000000  0.4955840000000  0.5532590000000 1.0
C      1  0.4853570000000  0.4438560000000  0.4865210000000 1.0
C      1  0.5049950000000  0.5481920000000  0.4951200000000 1.0
C      1  0.5026940000000  0.4190510000000  0.4829930000000 1.0
C      1  0.4997160000000  0.5758140000000  0.4876960000000 1.0
END
