TITL C-3578209-2550-128 -1.99634714471525e-06 125000 -340.293449929171 0 0 56 (C1) n - 1
REM
REM in /home/bkarasulu/work/CARBON/AIRSS/Generating-Clusters/EDIP-Nigel-Params/with-SteepDescent/Higher-Symm/SD-CG/HFTN-CG
REM
REM
REM
REM
REM
REM ./C.cell (12c818d87b63d06a65506943cc24bca4)
REM
REM compiler GCC version 9.2.1 20190827 (Red Hat 9.2.1-1)
REM options -cpp -mtune=generic -march=x86-64 -g -O0 -fpre-include=/usr/include/finclude/math-vector-fortran.h
REM seed -390414039 217203667 931106742 -370940725 2009291840 -1694235883 711379007 -879722028 -1221557234 567858929 -1148003754 2036766385 71251846 -1506818536 961996722 -2080403853 -1375359088 540582206 -1307742545 -1379312846 1667128649 1499161777 1512750597 -450555957 355577514 -746882624 -2055556976 -735942180 7781648 -1752732839 -1855158406 1430590733 738099993
REM
CELL 1.54180   50.00000   50.00000   50.00000   90.00000   90.00000   90.00000
LATT -1
SFAC C  
C      1  0.4522750000000  0.4529920000000  0.4840610000000 1.0
C      1  0.5169350000000  0.4443240000000  0.5345680000000 1.0
C      1  0.5242880000000  0.4393010000000  0.4913820000000 1.0
C      1  0.4568520000000  0.5408670000000  0.4934870000000 1.0
C      1  0.5201210000000  0.5571380000000  0.5329530000000 1.0
C      1  0.5252640000000  0.5609330000000  0.4892830000000 1.0
C      1  0.5364590000000  0.4341960000000  0.5164780000000 1.0
C      1  0.4899480000000  0.4372540000000  0.5258080000000 1.0
C      1  0.4793270000000  0.4483110000000  0.4793230000000 1.0
C      1  0.5390200000000  0.5659640000000  0.5135680000000 1.0
C      1  0.4925630000000  0.5642010000000  0.5248010000000 1.0
C      1  0.4784790000000  0.5541630000000  0.4789340000000 1.0
C      1  0.5292700000000  0.4851270000000  0.5581520000000 1.0
C      1  0.5407820000000  0.4800430000000  0.4619910000000 1.0
C      1  0.4380170000000  0.4754270000000  0.4750240000000 1.0
C      1  0.5301220000000  0.5155870000000  0.5576590000000 1.0
C      1  0.5395180000000  0.5192800000000  0.4604910000000 1.0
C      1  0.4341660000000  0.5317290000000  0.4781260000000 1.0
C      1  0.4698380000000  0.4863160000000  0.5546930000000 1.0
C      1  0.4405250000000  0.4868320000000  0.4486400000000 1.0
C      1  0.5688660000000  0.4894010000000  0.4717510000000 1.0
C      1  0.4693970000000  0.5175110000000  0.5540020000000 1.0
C      1  0.4447890000000  0.5152700000000  0.4459510000000 1.0
C      1  0.5698620000000  0.5188780000000  0.4665850000000 1.0
C      1  0.4202790000000  0.5165560000000  0.4991510000000 1.0
C      1  0.5611280000000  0.5152510000000  0.5530600000000 1.0
C      1  0.5219580000000  0.5162600000000  0.4343160000000 1.0
C      1  0.4272290000000  0.4882040000000  0.4982490000000 1.0
C      1  0.5600250000000  0.4840340000000  0.5507270000000 1.0
C      1  0.5231890000000  0.4863870000000  0.4368060000000 1.0
C      1  0.5769390000000  0.5194970000000  0.5036260000000 1.0
C      1  0.4379660000000  0.5163690000000  0.5492120000000 1.0
C      1  0.4699810000000  0.5143950000000  0.4302800000000 1.0
C      1  0.5729140000000  0.4911130000000  0.5009520000000 1.0
C      1  0.4397660000000  0.4854670000000  0.5485380000000 1.0
C      1  0.4734830000000  0.4855930000000  0.4292540000000 1.0
C      1  0.5249630000000  0.5147550000000  0.5076620000000 1.0
C      1  0.4938520000000  0.5292590000000  0.4722590000000 1.0
C      1  0.4851470000000  0.5282970000000  0.5304730000000 1.0
C      1  0.5296720000000  0.4852270000000  0.5090870000000 1.0
C      1  0.4940960000000  0.4729190000000  0.4740590000000 1.0
C      1  0.4837960000000  0.4743370000000  0.5304800000000 1.0
C      1  0.4746990000000  0.5172790000000  0.5035710000000 1.0
C      1  0.5220960000000  0.5312470000000  0.4827740000000 1.0
C      1  0.5163810000000  0.5272990000000  0.5330840000000 1.0
C      1  0.4708210000000  0.4846460000000  0.5031280000000 1.0
C      1  0.5226380000000  0.4689710000000  0.4841450000000 1.0
C      1  0.5153330000000  0.4740540000000  0.5337940000000 1.0
C      1  0.4946260000000  0.5274090000000  0.4420120000000 1.0
C      1  0.4963950000000  0.4749010000000  0.4437500000000 1.0
C      1  0.5635990000000  0.4744950000000  0.5229570000000 1.0
C      1  0.4378570000000  0.4754920000000  0.5215140000000 1.0
C      1  0.5710930000000  0.5275320000000  0.5295990000000 1.0
C      1  0.4264160000000  0.5259400000000  0.5251450000000 1.0
C      1  0.4956140000000  0.4319320000000  0.4974200000000 1.0
C      1  0.4970910000000  0.5698890000000  0.4959590000000 1.0
END
