TITL C-3578196-9646-564 -6.14036381287739e-06 125000 -1094.61377034238 0 0 172 (C1) n - 1
REM
REM in /home/bkarasulu/work/CARBON/AIRSS/Generating-Clusters/EDIP-Nigel-Params/with-SteepDescent/Higher-Symm/SD-CG/HFTN-CG
REM
REM
REM
REM
REM
REM ./C.cell (12c818d87b63d06a65506943cc24bca4)
REM
REM compiler GCC version 9.2.1 20190827 (Red Hat 9.2.1-1)
REM options -cpp -mtune=generic -march=x86-64 -g -O0 -fpre-include=/usr/include/finclude/math-vector-fortran.h
REM seed -155228116 1182609562 2009733155 -1672390772 -143991792 504499675 -563353664 492222383 -1884288303 247003378 -629476436 2119203789 474984118 1333136654 2130223110 1552736199 806033940 -472241746 -1727713383 1102157999 311713716 -1330327740 1178044249 -1402439672 -83657323 -1678221947 1302283697 1205446209 -2132522919 -713138823 -1355996180 -1539139282 586523024
REM
CELL 1.54180   50.00000   50.00000   50.00000   90.00000   90.00000   90.00000
LATT -1
SFAC C  
C      1  0.5167450000000  0.4048830000000  0.5613230000000 1.0
C      1  0.4836260000000  0.5903370000000  0.5616010000000 1.0
C      1  0.5164150000000  0.4051330000000  0.4391380000000 1.0
C      1  0.4847270000000  0.5916130000000  0.4376750000000 1.0
C      1  0.5854000000000  0.5078010000000  0.5306720000000 1.0
C      1  0.4146200000000  0.4938630000000  0.5305360000000 1.0
C      1  0.5854960000000  0.5078510000000  0.4694270000000 1.0
C      1  0.4156600000000  0.4951330000000  0.4696130000000 1.0
C      1  0.4599160000000  0.5764830000000  0.5641040000000 1.0
C      1  0.5420560000000  0.4167560000000  0.5648610000000 1.0
C      1  0.4606160000000  0.5779830000000  0.4355100000000 1.0
C      1  0.5418030000000  0.4167470000000  0.4353800000000 1.0
C      1  0.5489100000000  0.5407930000000  0.4822720000000 1.0
C      1  0.4481910000000  0.4586630000000  0.4831450000000 1.0
C      1  0.5488280000000  0.5406850000000  0.5177420000000 1.0
C      1  0.4479610000000  0.4583320000000  0.5170060000000 1.0
C      1  0.4758640000000  0.5088180000000  0.4034340000000 1.0
C      1  0.5284310000000  0.4926570000000  0.4006660000000 1.0
C      1  0.4755210000000  0.5082090000000  0.5976340000000 1.0
C      1  0.5283030000000  0.4928100000000  0.5992490000000 1.0
C      1  0.5759920000000  0.4654000000000  0.5631450000000 1.0
C      1  0.4283420000000  0.5339240000000  0.5633400000000 1.0
C      1  0.5758970000000  0.4651830000000  0.4369110000000 1.0
C      1  0.4284900000000  0.5353900000000  0.4376120000000 1.0
C      1  0.4827990000000  0.4733410000000  0.5489140000000 1.0
C      1  0.5085200000000  0.5134980000000  0.5558740000000 1.0
C      1  0.4825600000000  0.4736310000000  0.4512360000000 1.0
C      1  0.5091640000000  0.5142210000000  0.4439620000000 1.0
C      1  0.5006340000000  0.4474920000000  0.5160650000000 1.0
C      1  0.4956560000000  0.5486990000000  0.5167360000000 1.0
C      1  0.5006880000000  0.4468100000000  0.4835780000000 1.0
C      1  0.4954890000000  0.5531600000000  0.4834040000000 1.0
C      1  0.4383110000000  0.4077520000000  0.4730690000000 1.0
C      1  0.5605680000000  0.5930130000000  0.4727340000000 1.0
C      1  0.4385400000000  0.4072550000000  0.5271010000000 1.0
C      1  0.5592990000000  0.5926940000000  0.5264320000000 1.0
C      1  0.5107590000000  0.5083520000000  0.4734610000000 1.0
C      1  0.4885250000000  0.4910220000000  0.4756590000000 1.0
C      1  0.5101310000000  0.5080930000000  0.5261420000000 1.0
C      1  0.4888980000000  0.4895180000000  0.5238850000000 1.0
C      1  0.5314000000000  0.5730250000000  0.4400720000000 1.0
C      1  0.4687270000000  0.4262120000000  0.4410670000000 1.0
C      1  0.5303760000000  0.5729010000000  0.5595460000000 1.0
C      1  0.4690010000000  0.4258800000000  0.5591350000000 1.0
C      1  0.4186260000000  0.5551350000000  0.5460640000000 1.0
C      1  0.5786560000000  0.4450460000000  0.5424870000000 1.0
C      1  0.4183510000000  0.5576190000000  0.4535460000000 1.0
C      1  0.5786800000000  0.4449020000000  0.4575890000000 1.0
C      1  0.4667250000000  0.5332640000000  0.5563270000000 1.0
C      1  0.5325450000000  0.4684580000000  0.5580530000000 1.0
C      1  0.4670290000000  0.5349480000000  0.4450500000000 1.0
C      1  0.5324640000000  0.4685130000000  0.4419360000000 1.0
C      1  0.5627700000000  0.4582130000000  0.5877460000000 1.0
C      1  0.4388360000000  0.5414440000000  0.5898110000000 1.0
C      1  0.5626630000000  0.4578720000000  0.4123550000000 1.0
C      1  0.4396230000000  0.5422850000000  0.4110810000000 1.0
C      1  0.5410060000000  0.5402480000000  0.5994450000000 1.0
C      1  0.4614960000000  0.4604950000000  0.5986380000000 1.0
C      1  0.5416770000000  0.5398120000000  0.4004340000000 1.0
C      1  0.4611920000000  0.4612040000000  0.4021320000000 1.0
C      1  0.4441110000000  0.4875250000000  0.4748110000000 1.0
C      1  0.5559190000000  0.5126620000000  0.4743040000000 1.0
C      1  0.4434100000000  0.4870200000000  0.5252090000000 1.0
C      1  0.5558730000000  0.5126110000000  0.5256200000000 1.0
C      1  0.5088960000000  0.5958120000000  0.5251730000000 1.0
C      1  0.4889670000000  0.4006450000000  0.5260640000000 1.0
C      1  0.5111580000000  0.5998810000000  0.4724020000000 1.0
C      1  0.4886020000000  0.4003520000000  0.4737610000000 1.0
C      1  0.4060470000000  0.5176490000000  0.5142680000000 1.0
C      1  0.5959910000000  0.4844530000000  0.5151100000000 1.0
C      1  0.4092220000000  0.5192150000000  0.4863450000000 1.0
C      1  0.5959990000000  0.4844390000000  0.4849200000000 1.0
C      1  0.5582080000000  0.5844290000000  0.5539150000000 1.0
C      1  0.4402770000000  0.4153610000000  0.5545330000000 1.0
C      1  0.5596060000000  0.5840840000000  0.4453960000000 1.0
C      1  0.4399640000000  0.4158420000000  0.4456090000000 1.0
C      1  0.4181690000000  0.4347870000000  0.5548250000000 1.0
C      1  0.5806260000000  0.5654030000000  0.5537380000000 1.0
C      1  0.4179190000000  0.4353870000000  0.4454540000000 1.0
C      1  0.5814370000000  0.5645740000000  0.4462450000000 1.0
C      1  0.4289130000000  0.4971560000000  0.4146540000000 1.0
C      1  0.5756400000000  0.5031600000000  0.4121610000000 1.0
C      1  0.4284480000000  0.4960550000000  0.5867490000000 1.0
C      1  0.5752990000000  0.5038230000000  0.5876740000000 1.0
C      1  0.5227940000000  0.5498390000000  0.4641180000000 1.0
C      1  0.4730090000000  0.4484140000000  0.4663380000000 1.0
C      1  0.5226160000000  0.5492590000000  0.5357850000000 1.0
C      1  0.4728820000000  0.4482360000000  0.5337940000000 1.0
C      1  0.5954580000000  0.5348540000000  0.5155430000000 1.0
C      1  0.4032810000000  0.4669370000000  0.5155710000000 1.0
C      1  0.5955380000000  0.5348150000000  0.4848780000000 1.0
C      1  0.4034650000000  0.4675620000000  0.4846570000000 1.0
C      1  0.4589700000000  0.5615660000000  0.5884410000000 1.0
C      1  0.5392360000000  0.4397470000000  0.5832870000000 1.0
C      1  0.4603920000000  0.5621120000000  0.4119130000000 1.0
C      1  0.5390070000000  0.4396600000000  0.4168780000000 1.0
C      1  0.5826310000000  0.5494310000000  0.5758340000000 1.0
C      1  0.4187480000000  0.4512400000000  0.5765530000000 1.0
C      1  0.5834750000000  0.5485370000000  0.4241920000000 1.0
C      1  0.4183420000000  0.4521210000000  0.4239350000000 1.0
C      1  0.5113910000000  0.4167070000000  0.4843000000000 1.0
C      1  0.4881860000000  0.5836370000000  0.4814150000000 1.0
C      1  0.5114780000000  0.4170740000000  0.5149550000000 1.0
C      1  0.4834270000000  0.5859580000000  0.5106680000000 1.0
C      1  0.5435010000000  0.4379540000000  0.4833020000000 1.0
C      1  0.4464020000000  0.5558150000000  0.4869640000000 1.0
C      1  0.5434580000000  0.4379610000000  0.5167900000000 1.0
C      1  0.4566290000000  0.5688010000000  0.5142220000000 1.0
C      1  0.4152800000000  0.5067070000000  0.5617150000000 1.0
C      1  0.5865490000000  0.4929040000000  0.5619780000000 1.0
C      1  0.4157340000000  0.5080920000000  0.4394540000000 1.0
C      1  0.5867420000000  0.4925250000000  0.4379990000000 1.0
C      1  0.5286860000000  0.4959870000000  0.4303930000000 1.0
C      1  0.4794750000000  0.5080500000000  0.4344000000000 1.0
C      1  0.5285650000000  0.4959180000000  0.5694650000000 1.0
C      1  0.4789420000000  0.5069230000000  0.5668970000000 1.0
C      1  0.4953250000000  0.5289570000000  0.6079530000000 1.0
C      1  0.5073670000000  0.4717890000000  0.6079410000000 1.0
C      1  0.4957580000000  0.5290260000000  0.3922920000000 1.0
C      1  0.5071260000000  0.4719400000000  0.3921620000000 1.0
C      1  0.5055180000000  0.4590580000000  0.4378700000000 1.0
C      1  0.4939830000000  0.5490880000000  0.4377450000000 1.0
C      1  0.5056730000000  0.4587760000000  0.5621020000000 1.0
C      1  0.4936160000000  0.5479710000000  0.5619880000000 1.0
C      1  0.4369580000000  0.4689530000000  0.5860880000000 1.0
C      1  0.5656930000000  0.5312220000000  0.5868230000000 1.0
C      1  0.4367820000000  0.4698160000000  0.4148130000000 1.0
C      1  0.5664280000000  0.5306470000000  0.4128230000000 1.0
C      1  0.5587050000000  0.4226380000000  0.5402590000000 1.0
C      1  0.4418680000000  0.5725900000000  0.5406610000000 1.0
C      1  0.5586560000000  0.4225510000000  0.4598860000000 1.0
C      1  0.4400380000000  0.5770450000000  0.4562580000000 1.0
C      1  0.5751080000000  0.5572260000000  0.5238920000000 1.0
C      1  0.4219010000000  0.4423730000000  0.5245930000000 1.0
C      1  0.5754000000000  0.5572260000000  0.4762170000000 1.0
C      1  0.4219380000000  0.4430200000000  0.4755510000000 1.0
C      1  0.4689270000000  0.5337210000000  0.5265100000000 1.0
C      1  0.5324820000000  0.4659070000000  0.5276370000000 1.0
C      1  0.4681160000000  0.5365570000000  0.4753480000000 1.0
C      1  0.5324100000000  0.4658410000000  0.4723220000000 1.0
C      1  0.4653940000000  0.5048000000000  0.5153400000000 1.0
C      1  0.5344820000000  0.4946020000000  0.5155150000000 1.0
C      1  0.4652910000000  0.5059150000000  0.4852420000000 1.0
C      1  0.5346140000000  0.4945350000000  0.4843690000000 1.0
C      1  0.5264670000000  0.5626630000000  0.4111690000000 1.0
C      1  0.4757350000000  0.4378210000000  0.4126500000000 1.0
C      1  0.5254400000000  0.5629370000000  0.5886200000000 1.0
C      1  0.4761930000000  0.4374390000000  0.5875980000000 1.0
C      1  0.5096520000000  0.5938760000000  0.5534240000000 1.0
C      1  0.4895530000000  0.4036760000000  0.5542910000000 1.0
C      1  0.5117460000000  0.5956090000000  0.4440150000000 1.0
C      1  0.4890950000000  0.4037840000000  0.4456060000000 1.0
C      1  0.4466340000000  0.5162440000000  0.3999900000000 1.0
C      1  0.5575040000000  0.4834470000000  0.3978040000000 1.0
C      1  0.4461730000000  0.5154850000000  0.6011740000000 1.0
C      1  0.5574290000000  0.4839170000000  0.6020990000000 1.0
C      1  0.5230500000000  0.5199070000000  0.6107870000000 1.0
C      1  0.4798640000000  0.4811310000000  0.6091570000000 1.0
C      1  0.5233950000000  0.5197320000000  0.3891210000000 1.0
C      1  0.4797340000000  0.4816980000000  0.3918430000000 1.0
C      1  0.5356680000000  0.5930460000000  0.4855510000000 1.0
C      1  0.4630860000000  0.4054820000000  0.4861250000000 1.0
C      1  0.5349330000000  0.5959350000000  0.5130090000000 1.0
C      1  0.4632270000000  0.4052080000000  0.5138920000000 1.0
C      1  0.5052430000000  0.4480060000000  0.5897410000000 1.0
C      1  0.4962630000000  0.5544630000000  0.5921450000000 1.0
C      1  0.5048870000000  0.4481170000000  0.4103080000000 1.0
C      1  0.4970780000000  0.5547900000000  0.4073910000000 1.0
C      1  0.5841280000000  0.4562380000000  0.5164840000000 1.0
C      1  0.4050750000000  0.5432230000000  0.5250910000000 1.0
C      1  0.5841130000000  0.4562220000000  0.4835730000000 1.0
C      1  0.4098920000000  0.5469680000000  0.4788110000000 1.0
END
