TITL C-3577077-324-127 -3.88473277015919e-06 125000 -768.306833391325 0 0 124 (C1) n - 1
REM
REM in /home/bkarasulu/work/CARBON/AIRSS/Generating-Clusters/EDIP-Nigel-Params/with-SteepDescent/Higher-Symm/SD-CG/HFTN-CG
REM
REM
REM
REM
REM
REM ./C.cell (12c818d87b63d06a65506943cc24bca4)
REM
REM compiler GCC version 9.2.1 20190827 (Red Hat 9.2.1-1)
REM options -cpp -mtune=generic -march=x86-64 -g -O0 -fpre-include=/usr/include/finclude/math-vector-fortran.h
REM seed -1659169713 -1107729474 -1401782680 -1652759431 -428172339 2041990489 1835344244 740664093 -2066291972 2025788097 -558485297 -1586118474 373424649 -78254493 -1015548471 -93247382 -1897299713 -1310667378 -210662374 1722059246 -208725560 -2130380663 1277630701 -740783293 -1034910037 2113818540 516182290 1664192897 -1495495920 1264495289 814531879 897086367 -347959951
REM
CELL 1.54180   50.00000   50.00000   50.00000   90.00000   90.00000   90.00000
LATT -1
SFAC C  
C      1  0.4922140000000  0.5320650000000  0.4209170000000 1.0
C      1  0.5769660000000  0.5323240000000  0.4941050000000 1.0
C      1  0.5098940000000  0.5323830000000  0.5794360000000 1.0
C      1  0.4213830000000  0.5337900000000  0.5067330000000 1.0
C      1  0.5071780000000  0.4653270000000  0.4232450000000 1.0
C      1  0.4197140000000  0.4693130000000  0.4923920000000 1.0
C      1  0.4957200000000  0.4670730000000  0.5719730000000 1.0
C      1  0.5831790000000  0.4679070000000  0.5111850000000 1.0
C      1  0.4120230000000  0.4539090000000  0.5361010000000 1.0
C      1  0.4670390000000  0.4481000000000  0.4029670000000 1.0
C      1  0.5897860000000  0.4534900000000  0.4669260000000 1.0
C      1  0.5344850000000  0.4455250000000  0.5930630000000 1.0
C      1  0.5926170000000  0.5523910000000  0.5348060000000 1.0
C      1  0.5366310000000  0.5470490000000  0.4118320000000 1.0
C      1  0.4046860000000  0.5527050000000  0.4652360000000 1.0
C      1  0.4671160000000  0.5490030000000  0.5946430000000 1.0
C      1  0.4587960000000  0.5134420000000  0.4486080000000 1.0
C      1  0.5453500000000  0.5106840000000  0.4667610000000 1.0
C      1  0.5408750000000  0.5138990000000  0.5500980000000 1.0
C      1  0.4514720000000  0.5140240000000  0.5358950000000 1.0
C      1  0.5350670000000  0.4838970000000  0.4559120000000 1.0
C      1  0.4475540000000  0.4867560000000  0.4594600000000 1.0
C      1  0.4643800000000  0.4877990000000  0.5443280000000 1.0
C      1  0.5529010000000  0.4864080000000  0.5424720000000 1.0
C      1  0.5904970000000  0.5212280000000  0.4693850000000 1.0
C      1  0.5350420000000  0.5207850000000  0.5940970000000 1.0
C      1  0.4075950000000  0.5215230000000  0.5314140000000 1.0
C      1  0.4680370000000  0.5198740000000  0.4054250000000 1.0
C      1  0.4041570000000  0.4811700000000  0.4681720000000 1.0
C      1  0.4711120000000  0.4776600000000  0.5872990000000 1.0
C      1  0.5976540000000  0.4819350000000  0.5345440000000 1.0
C      1  0.5320900000000  0.4770840000000  0.4105470000000 1.0
C      1  0.5196760000000  0.4377870000000  0.4690770000000 1.0
C      1  0.5381620000000  0.4449780000000  0.5222130000000 1.0
C      1  0.4842910000000  0.4474920000000  0.5262730000000 1.0
C      1  0.4564840000000  0.4393350000000  0.4734120000000 1.0
C      1  0.4759970000000  0.5580150000000  0.4638590000000 1.0
C      1  0.4612550000000  0.5612260000000  0.5242430000000 1.0
C      1  0.5211320000000  0.5581230000000  0.5347130000000 1.0
C      1  0.5305560000000  0.5533250000000  0.4833260000000 1.0
C      1  0.4846920000000  0.4691740000000  0.4036560000000 1.0
C      1  0.5982020000000  0.4717220000000  0.4855030000000 1.0
C      1  0.5191640000000  0.4688850000000  0.5915700000000 1.0
C      1  0.4036610000000  0.4721510000000  0.5172400000000 1.0
C      1  0.5177180000000  0.5279930000000  0.4058410000000 1.0
C      1  0.4032360000000  0.5317300000000  0.4830620000000 1.0
C      1  0.4850830000000  0.5281820000000  0.5954330000000 1.0
C      1  0.5961700000000  0.5316150000000  0.5171290000000 1.0
C      1  0.5073940000000  0.4833820000000  0.5138430000000 1.0
C      1  0.4828940000000  0.4781680000000  0.4952540000000 1.0
C      1  0.4888270000000  0.4691430000000  0.4673280000000 1.0
C      1  0.5338220000000  0.4682680000000  0.5035850000000 1.0
C      1  0.4913150000000  0.5289270000000  0.5223420000000 1.0
C      1  0.5146710000000  0.5129120000000  0.5099560000000 1.0
C      1  0.5006570000000  0.5159080000000  0.4810890000000 1.0
C      1  0.4754920000000  0.5294280000000  0.4969220000000 1.0
C      1  0.5389660000000  0.4597030000000  0.4740530000000 1.0
C      1  0.5370370000000  0.4605990000000  0.5477910000000 1.0
C      1  0.4602740000000  0.4653700000000  0.5246790000000 1.0
C      1  0.4637000000000  0.4609300000000  0.4546410000000 1.0
C      1  0.4532390000000  0.5384980000000  0.4661490000000 1.0
C      1  0.4692070000000  0.5378510000000  0.5419470000000 1.0
C      1  0.5425540000000  0.5362560000000  0.5285770000000 1.0
C      1  0.5241480000000  0.5320720000000  0.4631440000000 1.0
C      1  0.4896720000000  0.5119590000000  0.4437170000000 1.0
C      1  0.5542780000000  0.5121440000000  0.4967070000000 1.0
C      1  0.5118420000000  0.5118900000000  0.5573590000000 1.0
C      1  0.4470620000000  0.5157110000000  0.5038700000000 1.0
C      1  0.5047250000000  0.4841600000000  0.4475910000000 1.0
C      1  0.4452810000000  0.4876740000000  0.4907060000000 1.0
C      1  0.4966410000000  0.4874260000000  0.5480840000000 1.0
C      1  0.5575670000000  0.4855000000000  0.5117480000000 1.0
C      1  0.5786270000000  0.4846820000000  0.5570370000000 1.0
C      1  0.4488630000000  0.4806870000000  0.5686300000000 1.0
C      1  0.4223690000000  0.4825890000000  0.4447390000000 1.0
C      1  0.5519630000000  0.4797070000000  0.4316930000000 1.0
C      1  0.4275790000000  0.5173330000000  0.5526270000000 1.0
C      1  0.5571540000000  0.5219440000000  0.5740950000000 1.0
C      1  0.5691100000000  0.5166440000000  0.4496810000000 1.0
C      1  0.4441030000000  0.5180210000000  0.4234090000000 1.0
C      1  0.6060700000000  0.5074050000000  0.5266350000000 1.0
C      1  0.4761670000000  0.5021650000000  0.5998570000000 1.0
C      1  0.3947220000000  0.5067930000000  0.4742050000000 1.0
C      1  0.5264610000000  0.5022550000000  0.3995960000000 1.0
C      1  0.3952480000000  0.4972430000000  0.5255050000000 1.0
C      1  0.5296180000000  0.4936080000000  0.6002140000000 1.0
C      1  0.6035480000000  0.4972950000000  0.4758870000000 1.0
C      1  0.4754080000000  0.4943990000000  0.3964120000000 1.0
C      1  0.5548320000000  0.5764470000000  0.5127030000000 1.0
C      1  0.4873250000000  0.5757010000000  0.5570260000000 1.0
C      1  0.4428410000000  0.5766550000000  0.4867330000000 1.0
C      1  0.5139310000000  0.5734490000000  0.4470830000000 1.0
C      1  0.4446570000000  0.4251700000000  0.5136210000000 1.0
C      1  0.5154290000000  0.4222930000000  0.5528760000000 1.0
C      1  0.5603090000000  0.4230580000000  0.4907400000000 1.0
C      1  0.4830900000000  0.4217530000000  0.4423110000000 1.0
C      1  0.5590630000000  0.5579320000000  0.4900890000000 1.0
C      1  0.5120780000000  0.5602010000000  0.5631150000000 1.0
C      1  0.4348770000000  0.5616170000000  0.5108570000000 1.0
C      1  0.4895210000000  0.5594260000000  0.4375910000000 1.0
C      1  0.4327550000000  0.4404250000000  0.4902260000000 1.0
C      1  0.4924150000000  0.4412100000000  0.5544070000000 1.0
C      1  0.5679410000000  0.4387970000000  0.5156540000000 1.0
C      1  0.5090400000000  0.4363590000000  0.4405620000000 1.0
C      1  0.4768060000000  0.4229780000000  0.5091000000000 1.0
C      1  0.4746620000000  0.4168700000000  0.4709340000000 1.0
C      1  0.5298690000000  0.4165700000000  0.4891890000000 1.0
C      1  0.5143090000000  0.4177430000000  0.5176360000000 1.0
C      1  0.5232630000000  0.5820530000000  0.5155790000000 1.0
C      1  0.5127280000000  0.5773850000000  0.4783660000000 1.0
C      1  0.4748990000000  0.5792930000000  0.4866640000000 1.0
C      1  0.4851780000000  0.5812850000000  0.5243760000000 1.0
C      1  0.4658650000000  0.5576880000000  0.5681460000000 1.0
C      1  0.4316530000000  0.5600480000000  0.4639210000000 1.0
C      1  0.5334570000000  0.5527840000000  0.4391180000000 1.0
C      1  0.5652260000000  0.5583130000000  0.5342120000000 1.0
C      1  0.5377580000000  0.4377900000000  0.5661330000000 1.0
C      1  0.5641070000000  0.4429640000000  0.4690640000000 1.0
C      1  0.4631570000000  0.4405180000000  0.4296000000000 1.0
C      1  0.4387120000000  0.4455630000000  0.5340780000000 1.0
C      1  0.4264120000000  0.4977430000000  0.5732080000000 1.0
C      1  0.5731020000000  0.4982780000000  0.4285500000000 1.0
C      1  0.5802540000000  0.5054050000000  0.5764180000000 1.0
C      1  0.4215170000000  0.5003850000000  0.4222840000000 1.0
END
