TITL C-3577091-527-330 -2.87904082836851e-07 125000 -220.724258913434 0 0 37 (C1) n - 1
REM
REM in /home/bkarasulu/work/CARBON/AIRSS/Generating-Clusters/EDIP-Nigel-Params/with-SteepDescent/Higher-Symm/SD-CG/HFTN-CG
REM
REM
REM
REM
REM
REM ./C.cell (12c818d87b63d06a65506943cc24bca4)
REM
REM compiler GCC version 9.2.1 20190827 (Red Hat 9.2.1-1)
REM options -cpp -mtune=generic -march=x86-64 -g -O0 -fpre-include=/usr/include/finclude/math-vector-fortran.h
REM seed 630339648 -1111390615 1609245430 1885350367 1224824304 1688509517 407466798 -375572336 -1316700497 -1841088529 273459070 1102425537 125833417 2126717958 -117588324 2111989900 1914312641 349481816 1416945150 1799372785 1401225874 806556815 1601236097 1001836528 -538728477 2067697560 367705236 1190365366 -1149066188 -203713762 520867827 -560984714 -1228633168
REM
CELL 1.54180   50.00000   50.00000   50.00000   90.00000   90.00000   90.00000
LATT -1
SFAC C  
C      1  0.5271830000000  0.5421450000000  0.5167440000000 1.0
C      1  0.5278220000000  0.4511150000000  0.5110390000000 1.0
C      1  0.5098650000000  0.4746950000000  0.5166560000000 1.0
C      1  0.5122240000000  0.4976810000000  0.4946720000000 1.0
C      1  0.4785160000000  0.5470800000000  0.5339410000000 1.0
C      1  0.5198650000000  0.4873320000000  0.5421200000000 1.0
C      1  0.4916870000000  0.5161970000000  0.5723980000000 1.0
C      1  0.4759750000000  0.4533160000000  0.4981240000000 1.0
C      1  0.4499520000000  0.4915240000000  0.4700060000000 1.0
C      1  0.5319250000000  0.5436830000000  0.4656450000000 1.0
C      1  0.5156250000000  0.4270480000000  0.5041210000000 1.0
C      1  0.4872060000000  0.5151650000000  0.4887280000000 1.0
C      1  0.4596440000000  0.4737320000000  0.4505070000000 1.0
C      1  0.5385550000000  0.5325460000000  0.5407370000000 1.0
C      1  0.5443800000000  0.5429370000000  0.4924700000000 1.0
C      1  0.5490990000000  0.5100540000000  0.4628720000000 1.0
C      1  0.4888780000000  0.5200310000000  0.4582710000000 1.0
C      1  0.4885240000000  0.4301750000000  0.5084150000000 1.0
C      1  0.5444030000000  0.4686240000000  0.4946020000000 1.0
C      1  0.4897570000000  0.5540360000000  0.4872110000000 1.0
C      1  0.4948880000000  0.4966740000000  0.5523660000000 1.0
C      1  0.5049840000000  0.4978440000000  0.4469390000000 1.0
C      1  0.4855450000000  0.5393240000000  0.5597350000000 1.0
C      1  0.5602220000000  0.5182000000000  0.4886640000000 1.0
C      1  0.4755050000000  0.4816050000000  0.5386640000000 1.0
C      1  0.5498440000000  0.4969050000000  0.5069950000000 1.0
C      1  0.4990520000000  0.5488570000000  0.5134760000000 1.0
C      1  0.4662610000000  0.4767010000000  0.5125280000000 1.0
C      1  0.4439750000000  0.5199670000000  0.5089020000000 1.0
C      1  0.5267680000000  0.4907240000000  0.4675850000000 1.0
C      1  0.5424480000000  0.5049500000000  0.5354410000000 1.0
C      1  0.4605580000000  0.5008020000000  0.4952930000000 1.0
C      1  0.5028680000000  0.5467160000000  0.4621070000000 1.0
C      1  0.4543890000000  0.4470200000000  0.4561630000000 1.0
C      1  0.4855880000000  0.4786500000000  0.4413540000000 1.0
C      1  0.4532950000000  0.5398680000000  0.5245390000000 1.0
C      1  0.4627220000000  0.4360740000000  0.4799690000000 1.0
END
