TITL C-3577077-324-563 -2.08398257492263e-07 125000 -321.24164422259 0 0 53 (C1) n - 1
REM
REM in /home/bkarasulu/work/CARBON/AIRSS/Generating-Clusters/EDIP-Nigel-Params/with-SteepDescent/Higher-Symm/SD-CG/HFTN-CG
REM
REM
REM
REM
REM
REM ./C.cell (12c818d87b63d06a65506943cc24bca4)
REM
REM compiler GCC version 9.2.1 20190827 (Red Hat 9.2.1-1)
REM options -cpp -mtune=generic -march=x86-64 -g -O0 -fpre-include=/usr/include/finclude/math-vector-fortran.h
REM seed -483772611 840773708 1049404529 -1078476827 882706472 -1844891180 -1140969672 -2104870858 -441700894 1585536368 271795905 1775206297 1805205821 1932061273 -800396859 1294053264 -938752862 -1636166250 -494904917 -1709703759 920912858 1854159506 321048522 -78818191 2057560386 774132951 -1383354403 1272484241 -1596699298 1355668678 -1401682034 -1955126568 61310542
REM
CELL 1.54180   50.00000   50.00000   50.00000   90.00000   90.00000   90.00000
LATT -1
SFAC C  
C      1  0.4753430000000  0.4896690000000  0.5140730000000 1.0
C      1  0.4776290000000  0.4870640000000  0.4853250000000 1.0
C      1  0.5237010000000  0.5047590000000  0.5143010000000 1.0
C      1  0.5254710000000  0.4964440000000  0.4874390000000 1.0
C      1  0.4083340000000  0.4846000000000  0.5144050000000 1.0
C      1  0.4083390000000  0.4855130000000  0.4879170000000 1.0
C      1  0.4895430000000  0.5330860000000  0.4829410000000 1.0
C      1  0.4862150000000  0.5351740000000  0.5124750000000 1.0
C      1  0.4505850000000  0.5028190000000  0.4311900000000 1.0
C      1  0.4512400000000  0.4972560000000  0.5720180000000 1.0
C      1  0.5527490000000  0.5057370000000  0.4767090000000 1.0
C      1  0.5499010000000  0.5134080000000  0.5231270000000 1.0
C      1  0.4970980000000  0.5568340000000  0.4695370000000 1.0
C      1  0.4927420000000  0.5600570000000  0.5241240000000 1.0
C      1  0.4659200000000  0.4689250000000  0.4641070000000 1.0
C      1  0.4666670000000  0.4686290000000  0.5341020000000 1.0
C      1  0.5070140000000  0.4471090000000  0.5294920000000 1.0
C      1  0.5081010000000  0.4489030000000  0.4634190000000 1.0
C      1  0.5504630000000  0.5125390000000  0.4486400000000 1.0
C      1  0.5484540000000  0.5204210000000  0.5513420000000 1.0
C      1  0.5179070000000  0.5660180000000  0.5130090000000 1.0
C      1  0.5203200000000  0.5648250000000  0.4834980000000 1.0
C      1  0.4696910000000  0.4922010000000  0.5921130000000 1.0
C      1  0.4674060000000  0.4997260000000  0.4093510000000 1.0
C      1  0.4433320000000  0.4820260000000  0.4495660000000 1.0
C      1  0.4443700000000  0.4788890000000  0.5511630000000 1.0
C      1  0.5427650000000  0.4737580000000  0.5394220000000 1.0
C      1  0.5378130000000  0.4635970000000  0.4560760000000 1.0
C      1  0.5456990000000  0.5584860000000  0.4697960000000 1.0
C      1  0.5413030000000  0.5651770000000  0.5301170000000 1.0
C      1  0.4901400000000  0.4673350000000  0.4471090000000 1.0
C      1  0.4926390000000  0.4653000000000  0.5498220000000 1.0
C      1  0.5323770000000  0.4569930000000  0.5184470000000 1.0
C      1  0.5288420000000  0.4666380000000  0.4875650000000 1.0
C      1  0.4877590000000  0.5064690000000  0.5767210000000 1.0
C      1  0.4872800000000  0.5106980000000  0.4252020000000 1.0
C      1  0.4202660000000  0.4851110000000  0.4642270000000 1.0
C      1  0.4205760000000  0.4826380000000  0.5378660000000 1.0
C      1  0.5643190000000  0.5662260000000  0.5140610000000 1.0
C      1  0.5676670000000  0.5529470000000  0.4892250000000 1.0
C      1  0.4871830000000  0.4339490000000  0.4816210000000 1.0
C      1  0.4861830000000  0.4358650000000  0.5111650000000 1.0
C      1  0.5399430000000  0.5476890000000  0.5526310000000 1.0
C      1  0.5441360000000  0.5402450000000  0.4477130000000 1.0
C      1  0.5028600000000  0.4941080000000  0.5545400000000 1.0
C      1  0.5022340000000  0.4946030000000  0.4450260000000 1.0
C      1  0.5322920000000  0.4895240000000  0.4404220000000 1.0
C      1  0.5333150000000  0.4936210000000  0.5584090000000 1.0
C      1  0.4984760000000  0.5049540000000  0.4741010000000 1.0
C      1  0.4956310000000  0.5088950000000  0.5257540000000 1.0
C      1  0.4609040000000  0.4411710000000  0.4728970000000 1.0
C      1  0.4603470000000  0.4426230000000  0.5213800000000 1.0
C      1  0.5697590000000  0.5241560000000  0.4925220000000 1.0
END
