TITL C-3578207-9274-212 -2.47278390619792e-06 125000 -1130.97842206635 0 0 181 (C1) n - 1
REM
REM in /home/bkarasulu/work/CARBON/AIRSS/Generating-Clusters/EDIP-Nigel-Params/with-SteepDescent/Higher-Symm/SD-CG/HFTN-CG
REM
REM
REM
REM
REM
REM ./C.cell (12c818d87b63d06a65506943cc24bca4)
REM
REM compiler GCC version 9.2.1 20190827 (Red Hat 9.2.1-1)
REM options -cpp -mtune=generic -march=x86-64 -g -O0 -fpre-include=/usr/include/finclude/math-vector-fortran.h
REM seed 868465719 -197111074 -183339039 -1764415817 1600533072 256911340 190656422 -1343176360 -960081927 857402511 859626590 398042858 -1801984022 958111463 2133824883 -1372242392 965027409 1683568916 -1888364314 -401496093 315226726 2031868576 1451235898 781964414 503056982 -1485270505 783261076 -81378257 -674931309 -436252731 -306167160 1959401104 -2096024140
REM
CELL 1.54180   50.00000   50.00000   50.00000   90.00000   90.00000   90.00000
LATT -1
SFAC C  
C      1  0.5610550000000  0.5224460000000  0.4771090000000 1.0
C      1  0.4394270000000  0.5425450000000  0.4820780000000 1.0
C      1  0.4771690000000  0.5394040000000  0.5300660000000 1.0
C      1  0.5524550000000  0.4280190000000  0.5852690000000 1.0
C      1  0.4029270000000  0.5103560000000  0.4706030000000 1.0
C      1  0.4092300000000  0.5679640000000  0.5180420000000 1.0
C      1  0.5241470000000  0.5854190000000  0.5619040000000 1.0
C      1  0.5807140000000  0.5509510000000  0.5862640000000 1.0
C      1  0.4390830000000  0.4879840000000  0.4994180000000 1.0
C      1  0.5686080000000  0.5385270000000  0.4138630000000 1.0
C      1  0.5591730000000  0.5058860000000  0.5408130000000 1.0
C      1  0.4546060000000  0.4412460000000  0.5193330000000 1.0
C      1  0.4585320000000  0.5762000000000  0.5754980000000 1.0
C      1  0.4221110000000  0.5125460000000  0.4474740000000 1.0
C      1  0.5010120000000  0.5190110000000  0.6089770000000 1.0
C      1  0.5377030000000  0.5941200000000  0.5266820000000 1.0
C      1  0.4420950000000  0.4098210000000  0.4518680000000 1.0
C      1  0.5526790000000  0.5603820000000  0.4229620000000 1.0
C      1  0.5110980000000  0.4651330000000  0.4882680000000 1.0
C      1  0.6008820000000  0.5233700000000  0.4964540000000 1.0
C      1  0.4713450000000  0.5495810000000  0.5844560000000 1.0
C      1  0.5375480000000  0.4821400000000  0.5983120000000 1.0
C      1  0.4496670000000  0.5174690000000  0.4625490000000 1.0
C      1  0.3966070000000  0.4964280000000  0.5176630000000 1.0
C      1  0.5594750000000  0.5686170000000  0.4510720000000 1.0
C      1  0.4913340000000  0.4726810000000  0.5818010000000 1.0
C      1  0.5153510000000  0.3901970000000  0.5040670000000 1.0
C      1  0.4824940000000  0.4988170000000  0.5958710000000 1.0
C      1  0.4143930000000  0.4747460000000  0.5640720000000 1.0
C      1  0.5857440000000  0.4907480000000  0.5850260000000 1.0
C      1  0.5589530000000  0.4752130000000  0.4490530000000 1.0
C      1  0.5058950000000  0.4166260000000  0.4926500000000 1.0
C      1  0.4608610000000  0.4165850000000  0.5516100000000 1.0
C      1  0.4900440000000  0.5809170000000  0.4381150000000 1.0
C      1  0.4800120000000  0.4905920000000  0.4035200000000 1.0
C      1  0.5225170000000  0.4058930000000  0.5472910000000 1.0
C      1  0.5659170000000  0.4427050000000  0.4916930000000 1.0
C      1  0.5834320000000  0.5014090000000  0.4091640000000 1.0
C      1  0.5242230000000  0.5511360000000  0.4173760000000 1.0
C      1  0.5156630000000  0.5397450000000  0.4436470000000 1.0
C      1  0.5249510000000  0.5400720000000  0.5167310000000 1.0
C      1  0.4904470000000  0.5161350000000  0.3921760000000 1.0
C      1  0.4458300000000  0.4487940000000  0.4156070000000 1.0
C      1  0.4241420000000  0.4291840000000  0.4562670000000 1.0
C      1  0.5095480000000  0.5991970000000  0.5229520000000 1.0
C      1  0.5001140000000  0.5149070000000  0.4346900000000 1.0
C      1  0.4121190000000  0.4850610000000  0.4243290000000 1.0
C      1  0.4781970000000  0.4782530000000  0.5230830000000 1.0
C      1  0.4953250000000  0.4744170000000  0.5473370000000 1.0
C      1  0.3875090000000  0.5203210000000  0.5350970000000 1.0
C      1  0.6068950000000  0.4520590000000  0.4800580000000 1.0
C      1  0.4706360000000  0.5924930000000  0.5536700000000 1.0
C      1  0.4553110000000  0.5392890000000  0.4203740000000 1.0
C      1  0.4253890000000  0.5372900000000  0.4278150000000 1.0
C      1  0.4972020000000  0.5487040000000  0.6005440000000 1.0
C      1  0.5378880000000  0.5435530000000  0.4685620000000 1.0
C      1  0.4688660000000  0.4071500000000  0.4581750000000 1.0
C      1  0.4346730000000  0.4816180000000  0.5965830000000 1.0
C      1  0.4813170000000  0.4486760000000  0.4499740000000 1.0
C      1  0.4833010000000  0.5452060000000  0.4756980000000 1.0
C      1  0.3924070000000  0.5456350000000  0.5226040000000 1.0
C      1  0.5160500000000  0.4430860000000  0.5075070000000 1.0
C      1  0.4893960000000  0.5186460000000  0.4880330000000 1.0
C      1  0.6050810000000  0.5061350000000  0.4728940000000 1.0
C      1  0.4096490000000  0.5614520000000  0.4674960000000 1.0
C      1  0.4531110000000  0.5228260000000  0.5267240000000 1.0
C      1  0.5255050000000  0.4910290000000  0.4965960000000 1.0
C      1  0.5504110000000  0.4164340000000  0.4825130000000 1.0
C      1  0.4536380000000  0.5880290000000  0.5292560000000 1.0
C      1  0.5367120000000  0.4875150000000  0.5451310000000 1.0
C      1  0.4292160000000  0.5742990000000  0.5382220000000 1.0
C      1  0.5356030000000  0.4180620000000  0.4234100000000 1.0
C      1  0.5642900000000  0.4736990000000  0.5877090000000 1.0
C      1  0.6126590000000  0.4789840000000  0.4743200000000 1.0
C      1  0.4313350000000  0.4119310000000  0.5159060000000 1.0
C      1  0.4757520000000  0.4438360000000  0.4178140000000 1.0
C      1  0.5578400000000  0.4684790000000  0.4765200000000 1.0
C      1  0.5265780000000  0.5089110000000  0.5998920000000 1.0
C      1  0.4263770000000  0.4571700000000  0.4619310000000 1.0
C      1  0.4598460000000  0.5886860000000  0.4429200000000 1.0
C      1  0.5094090000000  0.4261410000000  0.5636970000000 1.0
C      1  0.5974540000000  0.5398290000000  0.5419240000000 1.0
C      1  0.5307260000000  0.6045640000000  0.4604290000000 1.0
C      1  0.4257840000000  0.4617830000000  0.4929890000000 1.0
C      1  0.5767910000000  0.4175430000000  0.5357990000000 1.0
C      1  0.4371710000000  0.5996570000000  0.4885010000000 1.0
C      1  0.4245860000000  0.5415470000000  0.5786910000000 1.0
C      1  0.5698190000000  0.5152270000000  0.4295500000000 1.0
C      1  0.5238460000000  0.4214360000000  0.4692050000000 1.0
C      1  0.6014410000000  0.5396350000000  0.5706290000000 1.0
C      1  0.5601070000000  0.5315180000000  0.5833020000000 1.0
C      1  0.4535040000000  0.4807790000000  0.5593250000000 1.0
C      1  0.5319600000000  0.4478210000000  0.4271820000000 1.0
C      1  0.5035970000000  0.5733800000000  0.4110630000000 1.0
C      1  0.5109730000000  0.5001040000000  0.5434280000000 1.0
C      1  0.4857290000000  0.5642920000000  0.3915420000000 1.0
C      1  0.5000620000000  0.5234990000000  0.5174320000000 1.0
C      1  0.5871070000000  0.5476340000000  0.4899060000000 1.0
C      1  0.6035480000000  0.4599100000000  0.5318990000000 1.0
C      1  0.5469800000000  0.5365150000000  0.5375320000000 1.0
C      1  0.4460610000000  0.6108260000000  0.5128440000000 1.0
C      1  0.4042200000000  0.4657900000000  0.5159790000000 1.0
C      1  0.5938700000000  0.4171730000000  0.5128640000000 1.0
C      1  0.3871400000000  0.4879900000000  0.4645980000000 1.0
C      1  0.4992710000000  0.5823770000000  0.5017240000000 1.0
C      1  0.4817620000000  0.4692430000000  0.4945080000000 1.0
C      1  0.5791750000000  0.4453980000000  0.5460340000000 1.0
C      1  0.4508670000000  0.4708120000000  0.5290480000000 1.0
C      1  0.5026470000000  0.3926940000000  0.5303850000000 1.0
C      1  0.5720630000000  0.5547670000000  0.5348280000000 1.0
C      1  0.4121040000000  0.4535320000000  0.5420910000000 1.0
C      1  0.4481650000000  0.5322110000000  0.5939000000000 1.0
C      1  0.4477590000000  0.5126030000000  0.5547710000000 1.0
C      1  0.5262500000000  0.5596190000000  0.4946090000000 1.0
C      1  0.5904030000000  0.4353540000000  0.4624920000000 1.0
C      1  0.4540360000000  0.5037690000000  0.5974120000000 1.0
C      1  0.5665820000000  0.4789660000000  0.4026280000000 1.0
C      1  0.4876190000000  0.6006320000000  0.4802110000000 1.0
C      1  0.4352620000000  0.5822250000000  0.4318480000000 1.0
C      1  0.4163090000000  0.5629590000000  0.4390760000000 1.0
C      1  0.4156990000000  0.5787090000000  0.4906790000000 1.0
C      1  0.5629010000000  0.4117410000000  0.4285450000000 1.0
C      1  0.4447930000000  0.4561460000000  0.5880620000000 1.0
C      1  0.5425790000000  0.4972720000000  0.4371170000000 1.0
C      1  0.4716640000000  0.5401200000000  0.3950740000000 1.0
C      1  0.5447910000000  0.3968080000000  0.5053630000000 1.0
C      1  0.5486700000000  0.5800200000000  0.5005290000000 1.0
C      1  0.5209690000000  0.4641030000000  0.4048560000000 1.0
C      1  0.5483190000000  0.4098840000000  0.5312760000000 1.0
C      1  0.5548690000000  0.4930570000000  0.4925420000000 1.0
C      1  0.5831050000000  0.5189160000000  0.4561130000000 1.0
C      1  0.4550370000000  0.4673370000000  0.4480780000000 1.0
C      1  0.5367450000000  0.4902850000000  0.4061560000000 1.0
C      1  0.5167690000000  0.4092110000000  0.4437600000000 1.0
C      1  0.5711900000000  0.4871400000000  0.5187740000000 1.0
C      1  0.5598330000000  0.4568380000000  0.5239680000000 1.0
C      1  0.4039340000000  0.4719930000000  0.4485950000000 1.0
C      1  0.4750130000000  0.4158550000000  0.4860340000000 1.0
C      1  0.4659840000000  0.4437440000000  0.4911790000000 1.0
C      1  0.4805840000000  0.4278560000000  0.5694710000000 1.0
C      1  0.5140990000000  0.4938760000000  0.4508740000000 1.0
C      1  0.4017500000000  0.5246900000000  0.5709220000000 1.0
C      1  0.5089230000000  0.5186160000000  0.5664510000000 1.0
C      1  0.5192100000000  0.5207450000000  0.4008350000000 1.0
C      1  0.4574680000000  0.4919680000000  0.4220980000000 1.0
C      1  0.6034770000000  0.5165450000000  0.5239580000000 1.0
C      1  0.4669340000000  0.5176740000000  0.4365000000000 1.0
C      1  0.4168350000000  0.5044240000000  0.5555940000000 1.0
C      1  0.4605840000000  0.5888920000000  0.4730600000000 1.0
C      1  0.5101430000000  0.4607650000000  0.4548810000000 1.0
C      1  0.6086610000000  0.4886810000000  0.5303940000000 1.0
C      1  0.4922250000000  0.4645750000000  0.4031730000000 1.0
C      1  0.4992130000000  0.5892960000000  0.5478510000000 1.0
C      1  0.5517120000000  0.5898760000000  0.4705220000000 1.0
C      1  0.5690510000000  0.4478630000000  0.5753830000000 1.0
C      1  0.4623520000000  0.5608930000000  0.4861190000000 1.0
C      1  0.5232030000000  0.5628880000000  0.5804060000000 1.0
C      1  0.5262770000000  0.4548660000000  0.5352730000000 1.0
C      1  0.5139350000000  0.5079150000000  0.4767890000000 1.0
C      1  0.4157150000000  0.5075520000000  0.4982900000000 1.0
C      1  0.5035610000000  0.6025060000000  0.4555360000000 1.0
C      1  0.4312650000000  0.5308230000000  0.5083870000000 1.0
C      1  0.4350120000000  0.4754090000000  0.4096200000000 1.0
C      1  0.4945210000000  0.5553980000000  0.4524490000000 1.0
C      1  0.4746480000000  0.4030430000000  0.5301670000000 1.0
C      1  0.4631140000000  0.4953650000000  0.4807000000000 1.0
C      1  0.5738900000000  0.5655630000000  0.5079930000000 1.0
C      1  0.4246820000000  0.4253040000000  0.5424240000000 1.0
C      1  0.5617600000000  0.4572550000000  0.4271350000000 1.0
C      1  0.5348090000000  0.5385070000000  0.5673890000000 1.0
C      1  0.5759290000000  0.5112110000000  0.5677320000000 1.0
C      1  0.5791120000000  0.4338860000000  0.4354890000000 1.0
C      1  0.4310970000000  0.5679030000000  0.5666730000000 1.0
C      1  0.5173070000000  0.4629780000000  0.5929030000000 1.0
C      1  0.4881910000000  0.4124900000000  0.4367610000000 1.0
C      1  0.4807540000000  0.5330160000000  0.5607610000000 1.0
C      1  0.4723560000000  0.4505260000000  0.5851710000000 1.0
C      1  0.5264190000000  0.4377190000000  0.5829200000000 1.0
C      1  0.4577690000000  0.3991470000000  0.5069640000000 1.0
C      1  0.6065160000000  0.4423250000000  0.5079860000000 1.0
C      1  0.4726160000000  0.5674390000000  0.5143470000000 1.0
END
