TITL C-3577090-796-497 -9.00364937090668e-07 125000 -1065.75696473586 0 0 168 (C1) n - 1
REM
REM in /home/bkarasulu/work/CARBON/AIRSS/Generating-Clusters/EDIP-Nigel-Params/with-SteepDescent/Higher-Symm/SD-CG/HFTN-CG
REM
REM
REM
REM
REM
REM ./C.cell (12c818d87b63d06a65506943cc24bca4)
REM
REM compiler GCC version 9.2.1 20190827 (Red Hat 9.2.1-1)
REM options -cpp -mtune=generic -march=x86-64 -g -O0 -fpre-include=/usr/include/finclude/math-vector-fortran.h
REM seed 83198297 2080325505 -654797567 -2027061694 -674939604 -1793170786 -463225847 -367394882 -352936103 1133361354 396331306 1676348571 1731535864 1021141280 1701343493 -1432387867 269871356 -2101640582 -1505517569 1318294550 946103359 1280400102 -2000745533 69764519 174032441 -1851766149 -457599986 -818304541 -1857434821 1556142254 1845823121 874796593 -125297628
REM
CELL 1.54180   50.00000   50.00000   50.00000   90.00000   90.00000   90.00000
LATT -1
SFAC C  
C      1  0.4871020000000  0.5159130000000  0.5184570000000 1.0
C      1  0.4894020000000  0.5132800000000  0.4795520000000 1.0
C      1  0.5277360000000  0.5151570000000  0.5013790000000 1.0
C      1  0.4852270000000  0.4863390000000  0.5218040000000 1.0
C      1  0.4903140000000  0.4829990000000  0.4782240000000 1.0
C      1  0.5231810000000  0.4864940000000  0.4997960000000 1.0
C      1  0.5602370000000  0.4781000000000  0.4241160000000 1.0
C      1  0.5352000000000  0.4781200000000  0.5888170000000 1.0
C      1  0.4049980000000  0.4771370000000  0.4870310000000 1.0
C      1  0.5593670000000  0.5224560000000  0.4239000000000 1.0
C      1  0.5359200000000  0.5226000000000  0.5883800000000 1.0
C      1  0.4046940000000  0.5213930000000  0.4862630000000 1.0
C      1  0.4608940000000  0.4718230000000  0.5138120000000 1.0
C      1  0.5092900000000  0.4717380000000  0.4572760000000 1.0
C      1  0.5302040000000  0.4725580000000  0.5263090000000 1.0
C      1  0.4591930000000  0.5279410000000  0.5134390000000 1.0
C      1  0.5086360000000  0.5276060000000  0.4604400000000 1.0
C      1  0.5322620000000  0.5279290000000  0.5269180000000 1.0
C      1  0.4558400000000  0.5780330000000  0.4292730000000 1.0
C      1  0.5848610000000  0.5768190000000  0.4967350000000 1.0
C      1  0.4599440000000  0.5760160000000  0.5735790000000 1.0
C      1  0.4562810000000  0.4242550000000  0.4282880000000 1.0
C      1  0.5830190000000  0.4212670000000  0.4971480000000 1.0
C      1  0.4601070000000  0.4217970000000  0.5754730000000 1.0
C      1  0.5781610000000  0.5304000000000  0.4434320000000 1.0
C      1  0.5097440000000  0.5308430000000  0.5945920000000 1.0
C      1  0.4131170000000  0.5299370000000  0.4606690000000 1.0
C      1  0.5781140000000  0.4694890000000  0.4443230000000 1.0
C      1  0.5086890000000  0.4702300000000  0.5944830000000 1.0
C      1  0.4126790000000  0.4690750000000  0.4611430000000 1.0
C      1  0.5060570000000  0.4002490000000  0.4770760000000 1.0
C      1  0.5106260000000  0.4048820000000  0.5048520000000 1.0
C      1  0.4818590000000  0.4025120000000  0.5075950000000 1.0
C      1  0.4986570000000  0.5947170000000  0.4875530000000 1.0
C      1  0.5156100000000  0.5979190000000  0.5106570000000 1.0
C      1  0.4768590000000  0.5989620000000  0.5054080000000 1.0
C      1  0.5194170000000  0.5157470000000  0.5540730000000 1.0
C      1  0.4425430000000  0.5142490000000  0.4895740000000 1.0
C      1  0.5381930000000  0.5155530000000  0.4555060000000 1.0
C      1  0.5193040000000  0.4855350000000  0.5543650000000 1.0
C      1  0.4429930000000  0.4839470000000  0.4898110000000 1.0
C      1  0.5383480000000  0.4852230000000  0.4551440000000 1.0
C      1  0.4499820000000  0.5134270000000  0.3977630000000 1.0
C      1  0.6052540000000  0.5155260000000  0.5078830000000 1.0
C      1  0.4406630000000  0.5162110000000  0.5867580000000 1.0
C      1  0.4549130000000  0.4843310000000  0.4055270000000 1.0
C      1  0.6140790000000  0.4863320000000  0.5078690000000 1.0
C      1  0.4359690000000  0.4872970000000  0.5954910000000 1.0
C      1  0.5409660000000  0.5619910000000  0.5579510000000 1.0
C      1  0.4286910000000  0.5594240000000  0.5067270000000 1.0
C      1  0.5309210000000  0.5618770000000  0.4350460000000 1.0
C      1  0.5399220000000  0.4383450000000  0.5588200000000 1.0
C      1  0.4282350000000  0.4378630000000  0.5069010000000 1.0
C      1  0.5302530000000  0.4400000000000  0.4345720000000 1.0
C      1  0.4403890000000  0.5734770000000  0.5300850000000 1.0
C      1  0.5031280000000  0.5728720000000  0.4363580000000 1.0
C      1  0.5542300000000  0.5737720000000  0.5338990000000 1.0
C      1  0.4422500000000  0.4268790000000  0.5310280000000 1.0
C      1  0.5039090000000  0.4261930000000  0.4330690000000 1.0
C      1  0.5518000000000  0.4276140000000  0.5334980000000 1.0
C      1  0.4830810000000  0.5555590000000  0.5013090000000 1.0
C      1  0.5099140000000  0.5529400000000  0.4795900000000 1.0
C      1  0.5174360000000  0.5547750000000  0.5183070000000 1.0
C      1  0.4772900000000  0.4459120000000  0.5044130000000 1.0
C      1  0.5079690000000  0.4437180000000  0.4839030000000 1.0
C      1  0.5146430000000  0.4464020000000  0.5189000000000 1.0
C      1  0.5946660000000  0.4401500000000  0.4773650000000 1.0
C      1  0.4718790000000  0.4408590000000  0.5948980000000 1.0
C      1  0.4331800000000  0.4425200000000  0.4301200000000 1.0
C      1  0.5948400000000  0.5574120000000  0.4765530000000 1.0
C      1  0.4729330000000  0.5580540000000  0.5931700000000 1.0
C      1  0.4328740000000  0.5592860000000  0.4294750000000 1.0
C      1  0.4995150000000  0.4842550000000  0.3834360000000 1.0
C      1  0.5992720000000  0.4861410000000  0.5564610000000 1.0
C      1  0.4001950000000  0.4857830000000  0.5595510000000 1.0
C      1  0.4987990000000  0.5148730000000  0.3845440000000 1.0
C      1  0.6007730000000  0.5166360000000  0.5573920000000 1.0
C      1  0.3995200000000  0.5163760000000  0.5589600000000 1.0
C      1  0.5515830000000  0.5700950000000  0.4567950000000 1.0
C      1  0.5120450000000  0.5707210000000  0.5652090000000 1.0
C      1  0.4379460000000  0.5683410000000  0.4785600000000 1.0
C      1  0.5500840000000  0.4309100000000  0.4566940000000 1.0
C      1  0.5108200000000  0.4304570000000  0.5658660000000 1.0
C      1  0.4376110000000  0.4295420000000  0.4781000000000 1.0
C      1  0.5393540000000  0.4446960000000  0.4830160000000 1.0
C      1  0.4946250000000  0.4446440000000  0.5429420000000 1.0
C      1  0.4654310000000  0.4438420000000  0.4756520000000 1.0
C      1  0.5409090000000  0.5560770000000  0.4831450000000 1.0
C      1  0.4968700000000  0.5562460000000  0.5419900000000 1.0
C      1  0.4660170000000  0.5543660000000  0.4749820000000 1.0
C      1  0.4945770000000  0.4744440000000  0.4319970000000 1.0
C      1  0.5601850000000  0.4705350000000  0.5271990000000 1.0
C      1  0.4452500000000  0.4701980000000  0.5396070000000 1.0
C      1  0.4937490000000  0.5296610000000  0.4341980000000 1.0
C      1  0.5618140000000  0.5271330000000  0.5281020000000 1.0
C      1  0.4445400000000  0.5254610000000  0.5390100000000 1.0
C      1  0.4792130000000  0.4436080000000  0.3905090000000 1.0
C      1  0.6024100000000  0.4462590000000  0.5331570000000 1.0
C      1  0.4186080000000  0.4463660000000  0.5752450000000 1.0
C      1  0.4765310000000  0.5542580000000  0.3931250000000 1.0
C      1  0.6040130000000  0.5560490000000  0.5355970000000 1.0
C      1  0.4156570000000  0.5570290000000  0.5729130000000 1.0
C      1  0.5963020000000  0.4854210000000  0.4601270000000 1.0
C      1  0.4863330000000  0.4862740000000  0.6030150000000 1.0
C      1  0.4175120000000  0.4851180000000  0.4375260000000 1.0
C      1  0.5961580000000  0.5143800000000  0.4595580000000 1.0
C      1  0.4869680000000  0.5151480000000  0.6029290000000 1.0
C      1  0.4176220000000  0.5140230000000  0.4370430000000 1.0
C      1  0.5013580000000  0.4426550000000  0.5913410000000 1.0
C      1  0.4203860000000  0.4419140000000  0.4568200000000 1.0
C      1  0.5776230000000  0.4420100000000  0.4529200000000 1.0
C      1  0.5024220000000  0.5581210000000  0.5905840000000 1.0
C      1  0.4206550000000  0.5574130000000  0.4566950000000 1.0
C      1  0.5783800000000  0.5576700000000  0.4520290000000 1.0
C      1  0.5363640000000  0.5379450000000  0.4175960000000 1.0
C      1  0.5531280000000  0.5379800000000  0.5717760000000 1.0
C      1  0.4101960000000  0.5359190000000  0.5101350000000 1.0
C      1  0.5366900000000  0.4636540000000  0.4168590000000 1.0
C      1  0.5523390000000  0.4624920000000  0.5721910000000 1.0
C      1  0.4106490000000  0.4620190000000  0.5103520000000 1.0
C      1  0.4721640000000  0.5280140000000  0.3841480000000 1.0
C      1  0.6129940000000  0.5297820000000  0.5338830000000 1.0
C      1  0.4139630000000  0.5302470000000  0.5806650000000 1.0
C      1  0.4734160000000  0.4704290000000  0.3852200000000 1.0
C      1  0.6132370000000  0.4721810000000  0.5340880000000 1.0
C      1  0.4130520000000  0.4727700000000  0.5830230000000 1.0
C      1  0.5707440000000  0.4823660000000  0.5018240000000 1.0
C      1  0.4626260000000  0.4825670000000  0.5611350000000 1.0
C      1  0.4675660000000  0.4866890000000  0.4340530000000 1.0
C      1  0.5744370000000  0.5130630000000  0.5047760000000 1.0
C      1  0.4595030000000  0.5134490000000  0.5617060000000 1.0
C      1  0.4666130000000  0.5173550000000  0.4382260000000 1.0
C      1  0.4380090000000  0.5649380000000  0.5582390000000 1.0
C      1  0.4803620000000  0.5681740000000  0.4171910000000 1.0
C      1  0.5811870000000  0.5667620000000  0.5236920000000 1.0
C      1  0.4374490000000  0.4319690000000  0.5602550000000 1.0
C      1  0.4807250000000  0.4350230000000  0.4170040000000 1.0
C      1  0.5803130000000  0.4313310000000  0.5243240000000 1.0
C      1  0.4915780000000  0.4140590000000  0.4567440000000 1.0
C      1  0.5388350000000  0.4114510000000  0.5118840000000 1.0
C      1  0.4677200000000  0.4120840000000  0.5304320000000 1.0
C      1  0.4912360000000  0.5870650000000  0.4598210000000 1.0
C      1  0.5427700000000  0.5895350000000  0.5118530000000 1.0
C      1  0.4669910000000  0.5854740000000  0.5285000000000 1.0
C      1  0.5684640000000  0.4804950000000  0.5538090000000 1.0
C      1  0.4179180000000  0.4801170000000  0.5337380000000 1.0
C      1  0.5134210000000  0.4830640000000  0.4115450000000 1.0
C      1  0.5696630000000  0.5189260000000  0.5547940000000 1.0
C      1  0.4172170000000  0.5169330000000  0.5331010000000 1.0
C      1  0.5122610000000  0.5200710000000  0.4128800000000 1.0
C      1  0.4622640000000  0.5309490000000  0.6022980000000 1.0
C      1  0.4352510000000  0.5299150000000  0.4192140000000 1.0
C      1  0.6079250000000  0.5302000000000  0.4813220000000 1.0
C      1  0.4617730000000  0.4703790000000  0.5978180000000 1.0
C      1  0.4306440000000  0.4695920000000  0.4164400000000 1.0
C      1  0.6028360000000  0.4695730000000  0.4844410000000 1.0
C      1  0.4620260000000  0.4733430000000  0.4677650000000 1.0
C      1  0.5463980000000  0.4749030000000  0.4830330000000 1.0
C      1  0.4906930000000  0.4750760000000  0.5491570000000 1.0
C      1  0.4628490000000  0.5242560000000  0.4685460000000 1.0
C      1  0.5489110000000  0.5260660000000  0.4825440000000 1.0
C      1  0.4912940000000  0.5265690000000  0.5482100000000 1.0
C      1  0.4799360000000  0.4098190000000  0.5571000000000 1.0
C      1  0.4620360000000  0.4112960000000  0.4541950000000 1.0
C      1  0.5571300000000  0.4102170000000  0.4884100000000 1.0
C      1  0.4793670000000  0.5888410000000  0.5553510000000 1.0
C      1  0.4618150000000  0.5883780000000  0.4561300000000 1.0
C      1  0.5602780000000  0.5908280000000  0.4881120000000 1.0
END
