TITL C-3578198-8939-316 -1.8476297593092e-06 125000 -495.686561646876 0 0 80 (C1) n - 1
REM
REM in /home/bkarasulu/work/CARBON/AIRSS/Generating-Clusters/EDIP-Nigel-Params/with-SteepDescent/Higher-Symm/SD-CG/HFTN-CG
REM
REM
REM
REM
REM
REM ./C.cell (12c818d87b63d06a65506943cc24bca4)
REM
REM compiler GCC version 9.2.1 20190827 (Red Hat 9.2.1-1)
REM options -cpp -mtune=generic -march=x86-64 -g -O0 -fpre-include=/usr/include/finclude/math-vector-fortran.h
REM seed 154485763 -1939995992 -1830927020 -1040562735 -487836133 2122135011 41641712 1116047354 1024782290 -2103942774 1830307590 1269461297 1809504918 -413659557 -1178132622 -1500611683 -405243272 -449691287 886007124 46522372 -950472566 756910981 1900333409 2107201285 -1090796928 1390054782 26448387 -1399068949 1437952053 413331386 1861652204 -1204310672 -34278268
REM
CELL 1.54180   50.00000   50.00000   50.00000   90.00000   90.00000   90.00000
LATT -1
SFAC C  
C      1  0.5018640000000  0.5717680000000  0.4497700000000 1.0
C      1  0.5607330000000  0.4658060000000  0.4518120000000 1.0
C      1  0.4391710000000  0.4663310000000  0.4493660000000 1.0
C      1  0.5130880000000  0.5509420000000  0.4336210000000 1.0
C      1  0.5375070000000  0.4647320000000  0.4354630000000 1.0
C      1  0.4501310000000  0.4871320000000  0.4330540000000 1.0
C      1  0.4278830000000  0.4620800000000  0.5401620000000 1.0
C      1  0.5003340000000  0.5665990000000  0.5241950000000 1.0
C      1  0.5585250000000  0.4636460000000  0.5273730000000 1.0
C      1  0.5489220000000  0.4999360000000  0.5561040000000 1.0
C      1  0.4740200000000  0.4578050000000  0.5574880000000 1.0
C      1  0.4758360000000  0.5413500000000  0.5556260000000 1.0
C      1  0.4478170000000  0.4998050000000  0.5635300000000 1.0
C      1  0.5255760000000  0.5445660000000  0.5600400000000 1.0
C      1  0.5253540000000  0.4550900000000  0.5631650000000 1.0
C      1  0.5264820000000  0.5604970000000  0.4890170000000 1.0
C      1  0.5402670000000  0.4453880000000  0.4914220000000 1.0
C      1  0.4345010000000  0.4897140000000  0.4914950000000 1.0
C      1  0.5718050000000  0.5459360000000  0.4803960000000 1.0
C      1  0.5031950000000  0.4157990000000  0.4813760000000 1.0
C      1  0.4264420000000  0.5367970000000  0.4828480000000 1.0
C      1  0.5685580000000  0.4871410000000  0.5387640000000 1.0
C      1  0.4551600000000  0.4555610000000  0.5339540000000 1.0
C      1  0.4763010000000  0.5640010000000  0.5375520000000 1.0
C      1  0.4382220000000  0.5054950000000  0.5180820000000 1.0
C      1  0.5395090000000  0.5483970000000  0.5141400000000 1.0
C      1  0.5221550000000  0.4406800000000  0.5164940000000 1.0
C      1  0.5727330000000  0.4956410000000  0.4900570000000 1.0
C      1  0.4594950000000  0.4420240000000  0.4881860000000 1.0
C      1  0.4666980000000  0.5666840000000  0.4893300000000 1.0
C      1  0.5046930000000  0.4162410000000  0.5111780000000 1.0
C      1  0.4263070000000  0.5334740000000  0.5121690000000 1.0
C      1  0.5698240000000  0.5484140000000  0.5100640000000 1.0
C      1  0.4786940000000  0.4798760000000  0.5148680000000 1.0
C      1  0.4941230000000  0.5293630000000  0.5169690000000 1.0
C      1  0.5298300000000  0.4872690000000  0.5179740000000 1.0
C      1  0.4303080000000  0.5578520000000  0.5255710000000 1.0
C      1  0.5861590000000  0.5300640000000  0.5236220000000 1.0
C      1  0.4791400000000  0.4151630000000  0.5224180000000 1.0
C      1  0.4560310000000  0.5660030000000  0.5174000000000 1.0
C      1  0.5804280000000  0.5033160000000  0.5175780000000 1.0
C      1  0.4584820000000  0.4325830000000  0.5157280000000 1.0
C      1  0.5010090000000  0.5279750000000  0.5601880000000 1.0
C      1  0.5246900000000  0.4849280000000  0.5619090000000 1.0
C      1  0.4746200000000  0.4859960000000  0.5643650000000 1.0
C      1  0.4453490000000  0.5117230000000  0.4481010000000 1.0
C      1  0.5395490000000  0.5435830000000  0.4448020000000 1.0
C      1  0.5186820000000  0.4451210000000  0.4469100000000 1.0
C      1  0.5275100000000  0.4294260000000  0.4701170000000 1.0
C      1  0.4275750000000  0.5098200000000  0.4710920000000 1.0
C      1  0.5473760000000  0.5587180000000  0.4685650000000 1.0
C      1  0.4282830000000  0.4898500000000  0.5427590000000 1.0
C      1  0.5263330000000  0.5645200000000  0.5374320000000 1.0
C      1  0.5423410000000  0.4431840000000  0.5410450000000 1.0
C      1  0.5205120000000  0.4846980000000  0.4889420000000 1.0
C      1  0.4911430000000  0.4886160000000  0.4872170000000 1.0
C      1  0.4876610000000  0.5182390000000  0.4885950000000 1.0
C      1  0.4796630000000  0.4797940000000  0.4292700000000 1.0
C      1  0.4926500000000  0.5294500000000  0.4271720000000 1.0
C      1  0.5289300000000  0.4927440000000  0.4277510000000 1.0
C      1  0.4786230000000  0.4289780000000  0.4693040000000 1.0
C      1  0.4472780000000  0.5548860000000  0.4697600000000 1.0
C      1  0.5740330000000  0.5176940000000  0.4694970000000 1.0
C      1  0.4782150000000  0.4722660000000  0.4625570000000 1.0
C      1  0.4866360000000  0.5359070000000  0.4652240000000 1.0
C      1  0.5362730000000  0.4962050000000  0.4658360000000 1.0
C      1  0.4404260000000  0.4633220000000  0.4779910000000 1.0
C      1  0.4987200000000  0.5706520000000  0.4788550000000 1.0
C      1  0.5605610000000  0.4676200000000  0.4807490000000 1.0
C      1  0.5047190000000  0.4682770000000  0.5268580000000 1.0
C      1  0.4699870000000  0.5082780000000  0.5270860000000 1.0
C      1  0.5247270000000  0.5189970000000  0.5245880000000 1.0
C      1  0.4516310000000  0.5270430000000  0.5565920000000 1.0
C      1  0.5481300000000  0.5281820000000  0.5543160000000 1.0
C      1  0.4992040000000  0.4443350000000  0.5570120000000 1.0
C      1  0.4891460000000  0.4461800000000  0.4458430000000 1.0
C      1  0.4602770000000  0.5374350000000  0.4470490000000 1.0
C      1  0.5532730000000  0.5169430000000  0.4452190000000 1.0
C      1  0.5004960000000  0.4999250000000  0.5689400000000 1.0
C      1  0.5005120000000  0.5009100000000  0.4248090000000 1.0
END
