TITL C-3578199-7832-731 3.13008227947592e-06 125000 -1049.70625461368 0 0 172 (C1) n - 1
REM
REM in /home/bkarasulu/work/CARBON/AIRSS/Generating-Clusters/EDIP-Nigel-Params/with-SteepDescent/Higher-Symm/SD-CG/HFTN-CG
REM
REM
REM
REM
REM
REM ./C.cell (12c818d87b63d06a65506943cc24bca4)
REM
REM compiler GCC version 9.2.1 20190827 (Red Hat 9.2.1-1)
REM options -cpp -mtune=generic -march=x86-64 -g -O0 -fpre-include=/usr/include/finclude/math-vector-fortran.h
REM seed -1745265999 1640345682 2087018551 -984499080 -1185144376 1826635401 -604224005 1709297564 -415608590 42716198 1275247441 -1052934658 2061119428 -1348231590 -1496281130 865788173 1286384081 -2135574685 1313625965 1054385232 -560748629 -633418444 -1412593877 680371644 -1792302874 -944066675 1396983570 212201306 809409113 -2108550752 -36339000 1560270996 -324971210
REM
CELL 1.54180   50.00000   50.00000   50.00000   90.00000   90.00000   90.00000
LATT -1
SFAC C  
C      1  0.4069730000000  0.4553460000000  0.5195270000000 1.0
C      1  0.5295610000000  0.4131460000000  0.4554210000000 1.0
C      1  0.4554960000000  0.5281480000000  0.4053780000000 1.0
C      1  0.4058190000000  0.5425420000000  0.4665850000000 1.0
C      1  0.5929690000000  0.5500960000000  0.5212580000000 1.0
C      1  0.5947380000000  0.4510480000000  0.4671050000000 1.0
C      1  0.5315380000000  0.5920010000000  0.5406640000000 1.0
C      1  0.4659200000000  0.5889370000000  0.4538190000000 1.0
C      1  0.4630080000000  0.4060200000000  0.5464690000000 1.0
C      1  0.4535950000000  0.4690440000000  0.5941970000000 1.0
C      1  0.5498060000000  0.4682920000000  0.4055670000000 1.0
C      1  0.5534430000000  0.5203110000000  0.5928140000000 1.0
C      1  0.5738190000000  0.5411940000000  0.4278660000000 1.0
C      1  0.4272900000000  0.5788740000000  0.5381010000000 1.0
C      1  0.5365580000000  0.4308340000000  0.5732990000000 1.0
C      1  0.5781700000000  0.4600530000000  0.5630180000000 1.0
C      1  0.4213390000000  0.4655930000000  0.4326710000000 1.0
C      1  0.4217070000000  0.5376480000000  0.5656220000000 1.0
C      1  0.4276320000000  0.4221240000000  0.4595110000000 1.0
C      1  0.5649100000000  0.4217160000000  0.5323430000000 1.0
C      1  0.5624120000000  0.5790780000000  0.4595100000000 1.0
C      1  0.5285230000000  0.5622390000000  0.4256810000000 1.0
C      1  0.4616440000000  0.5690600000000  0.5731580000000 1.0
C      1  0.4629560000000  0.4354850000000  0.4259630000000 1.0
C      1  0.4160890000000  0.4887930000000  0.5714940000000 1.0
C      1  0.5554860000000  0.4157280000000  0.4758070000000 1.0
C      1  0.4757030000000  0.5612980000000  0.4093920000000 1.0
C      1  0.4130340000000  0.5198780000000  0.4426750000000 1.0
C      1  0.5851750000000  0.5127670000000  0.5560400000000 1.0
C      1  0.5880820000000  0.4772430000000  0.4405680000000 1.0
C      1  0.5631720000000  0.5921510000000  0.5254300000000 1.0
C      1  0.4401990000000  0.5839550000000  0.4744120000000 1.0
C      1  0.4320720000000  0.4123920000000  0.5253980000000 1.0
C      1  0.4715960000000  0.4361330000000  0.5888540000000 1.0
C      1  0.5262140000000  0.4487700000000  0.4133610000000 1.0
C      1  0.5142680000000  0.5582490000000  0.5699280000000 1.0
C      1  0.5764530000000  0.4812660000000  0.4826850000000 1.0
C      1  0.4803520000000  0.5687040000000  0.4838740000000 1.0
C      1  0.4771220000000  0.4781000000000  0.5748420000000 1.0
C      1  0.5887440000000  0.5196610000000  0.5275120000000 1.0
C      1  0.4246990000000  0.5132910000000  0.4844700000000 1.0
C      1  0.4161600000000  0.4843440000000  0.5193470000000 1.0
C      1  0.4797310000000  0.4229870000000  0.5161660000000 1.0
C      1  0.5165790000000  0.4288980000000  0.4896550000000 1.0
C      1  0.5195270000000  0.5743900000000  0.5176080000000 1.0
C      1  0.4810500000000  0.5190000000000  0.4210180000000 1.0
C      1  0.5254590000000  0.5169160000000  0.5814780000000 1.0
C      1  0.5150830000000  0.4831550000000  0.4280040000000 1.0
C      1  0.4811420000000  0.5909060000000  0.5339440000000 1.0
C      1  0.5466930000000  0.4751190000000  0.5947620000000 1.0
C      1  0.5982730000000  0.5485670000000  0.4701080000000 1.0
C      1  0.4821420000000  0.4083930000000  0.4661600000000 1.0
C      1  0.5154190000000  0.4023700000000  0.5356750000000 1.0
C      1  0.5147210000000  0.5912140000000  0.4645880000000 1.0
C      1  0.5347450000000  0.5174010000000  0.4049510000000 1.0
C      1  0.4662230000000  0.5178790000000  0.5948860000000 1.0
C      1  0.4633720000000  0.4807340000000  0.4061420000000 1.0
C      1  0.5983480000000  0.4622100000000  0.5180850000000 1.0
C      1  0.4012890000000  0.4641980000000  0.4763730000000 1.0
C      1  0.4007940000000  0.5348140000000  0.5165430000000 1.0
C      1  0.4723470000000  0.4928820000000  0.4334350000000 1.0
C      1  0.4308890000000  0.4719140000000  0.4858880000000 1.0
C      1  0.4942650000000  0.4342450000000  0.4713540000000 1.0
C      1  0.4687990000000  0.5045300000000  0.5685000000000 1.0
C      1  0.5320820000000  0.5078110000000  0.4322630000000 1.0
C      1  0.5261280000000  0.4860550000000  0.5766440000000 1.0
C      1  0.4284810000000  0.5289040000000  0.5085940000000 1.0
C      1  0.5806050000000  0.5268620000000  0.4776460000000 1.0
C      1  0.5720450000000  0.4725420000000  0.5098470000000 1.0
C      1  0.4914990000000  0.5622560000000  0.5324890000000 1.0
C      1  0.5061410000000  0.5632120000000  0.4707580000000 1.0
C      1  0.5048810000000  0.4300450000000  0.5317310000000 1.0
C      1  0.4997440000000  0.4828280000000  0.5920360000000 1.0
C      1  0.5955810000000  0.5027700000000  0.4868800000000 1.0
C      1  0.4825950000000  0.5941520000000  0.5032930000000 1.0
C      1  0.5042400000000  0.5138830000000  0.3985210000000 1.0
C      1  0.4974830000000  0.5121740000000  0.6012280000000 1.0
C      1  0.4970490000000  0.4838710000000  0.3991950000000 1.0
C      1  0.6061240000000  0.4999420000000  0.5138880000000 1.0
C      1  0.3968540000000  0.4977610000000  0.4830170000000 1.0
C      1  0.3921560000000  0.5043040000000  0.5128110000000 1.0
C      1  0.4842450000000  0.3992460000000  0.4960680000000 1.0
C      1  0.5135080000000  0.3972090000000  0.5042180000000 1.0
C      1  0.5121560000000  0.5981380000000  0.4963110000000 1.0
C      1  0.5853660000000  0.4434810000000  0.5404110000000 1.0
C      1  0.5369190000000  0.5826450000000  0.4453380000000 1.0
C      1  0.4491290000000  0.5429900000000  0.5773100000000 1.0
C      1  0.5831050000000  0.5613000000000  0.4475640000000 1.0
C      1  0.4110630000000  0.5550620000000  0.5439730000000 1.0
C      1  0.4101000000000  0.4459850000000  0.4517650000000 1.0
C      1  0.5426070000000  0.4122180000000  0.5505570000000 1.0
C      1  0.4565020000000  0.4218150000000  0.4513090000000 1.0
C      1  0.4538290000000  0.5848350000000  0.5499310000000 1.0
C      1  0.4452440000000  0.4571950000000  0.4157910000000 1.0
C      1  0.5570630000000  0.4515980000000  0.5809740000000 1.0
C      1  0.5483180000000  0.5444520000000  0.4132690000000 1.0
C      1  0.5114330000000  0.5364470000000  0.4572840000000 1.0
C      1  0.4516050000000  0.5117510000000  0.5454060000000 1.0
C      1  0.5476350000000  0.4585130000000  0.5192550000000 1.0
C      1  0.5053950000000  0.4462350000000  0.5555280000000 1.0
C      1  0.4877020000000  0.4576880000000  0.4550070000000 1.0
C      1  0.4645750000000  0.5435780000000  0.5375240000000 1.0
C      1  0.4538290000000  0.4961680000000  0.4567800000000 1.0
C      1  0.5343650000000  0.4828560000000  0.5417960000000 1.0
C      1  0.5545530000000  0.5117660000000  0.4524810000000 1.0
C      1  0.5609150000000  0.5578000000000  0.4922880000000 1.0
C      1  0.4495000000000  0.5485390000000  0.5110860000000 1.0
C      1  0.4441570000000  0.4434810000000  0.4878460000000 1.0
C      1  0.4603390000000  0.4638030000000  0.5319000000000 1.0
C      1  0.5263440000000  0.4579930000000  0.4967940000000 1.0
C      1  0.4825210000000  0.5375420000000  0.4441130000000 1.0
C      1  0.4603930000000  0.5283550000000  0.4642790000000 1.0
C      1  0.5429680000000  0.5348840000000  0.5367020000000 1.0
C      1  0.5501110000000  0.4925870000000  0.4758940000000 1.0
C      1  0.5365960000000  0.5500330000000  0.5099600000000 1.0
C      1  0.4704930000000  0.5409520000000  0.4920440000000 1.0
C      1  0.4668770000000  0.4488670000000  0.5065620000000 1.0
C      1  0.4861140000000  0.4682840000000  0.5483480000000 1.0
C      1  0.5326410000000  0.4704490000000  0.4706620000000 1.0
C      1  0.5181740000000  0.5322220000000  0.5544610000000 1.0
C      1  0.4990550000000  0.4331560000000  0.5815550000000 1.0
C      1  0.5809550000000  0.5055890000000  0.4393870000000 1.0
C      1  0.4417390000000  0.5772990000000  0.5034390000000 1.0
C      1  0.5032370000000  0.5638470000000  0.4132860000000 1.0
C      1  0.4893750000000  0.5697310000000  0.5758600000000 1.0
C      1  0.4899640000000  0.4469450000000  0.4262720000000 1.0
C      1  0.5883920000000  0.4861790000000  0.5644890000000 1.0
C      1  0.4241390000000  0.4915330000000  0.4496260000000 1.0
C      1  0.4221850000000  0.5103200000000  0.5548530000000 1.0
C      1  0.4289930000000  0.4190810000000  0.4976080000000 1.0
C      1  0.5571640000000  0.4236570000000  0.5042980000000 1.0
C      1  0.5643350000000  0.5875590000000  0.4968260000000 1.0
C      1  0.5043740000000  0.6058090000000  0.5464290000000 1.0
C      1  0.5643440000000  0.4958040000000  0.6023800000000 1.0
C      1  0.6022780000000  0.5604750000000  0.4959070000000 1.0
C      1  0.5049460000000  0.3963080000000  0.4513900000000 1.0
C      1  0.4900710000000  0.3928130000000  0.5497180000000 1.0
C      1  0.4916130000000  0.6031830000000  0.4513720000000 1.0
C      1  0.5497420000000  0.4946470000000  0.3939400000000 1.0
C      1  0.4508030000000  0.4959900000000  0.6083200000000 1.0
C      1  0.4489840000000  0.5024430000000  0.3923040000000 1.0
C      1  0.6063710000000  0.4485610000000  0.4938540000000 1.0
C      1  0.3903100000000  0.4477310000000  0.4979390000000 1.0
C      1  0.3912320000000  0.5478040000000  0.4921470000000 1.0
C      1  0.4487050000000  0.4903490000000  0.5221790000000 1.0
C      1  0.5053080000000  0.4769000000000  0.5050790000000 1.0
C      1  0.4946490000000  0.5071960000000  0.4684310000000 1.0
C      1  0.4643860000000  0.4968490000000  0.4934930000000 1.0
C      1  0.5515740000000  0.5070720000000  0.5275380000000 1.0
C      1  0.5384230000000  0.5059580000000  0.4998850000000 1.0
C      1  0.5207530000000  0.5290930000000  0.4944540000000 1.0
C      1  0.4935500000000  0.5263850000000  0.5069480000000 1.0
C      1  0.4809080000000  0.4711690000000  0.4911380000000 1.0
C      1  0.5044890000000  0.4873680000000  0.5330450000000 1.0
C      1  0.5078990000000  0.4796320000000  0.4568760000000 1.0
C      1  0.4945870000000  0.5185350000000  0.5363730000000 1.0
C      1  0.5786100000000  0.5700080000000  0.5380210000000 1.0
C      1  0.5371920000000  0.5750820000000  0.5647870000000 1.0
C      1  0.5698550000000  0.5318620000000  0.5717350000000 1.0
C      1  0.5765060000000  0.4287150000000  0.4596170000000 1.0
C      1  0.4185680000000  0.4351510000000  0.5376970000000 1.0
C      1  0.4218190000000  0.5665950000000  0.4586130000000 1.0
C      1  0.5385510000000  0.4267080000000  0.4297410000000 1.0
C      1  0.4543310000000  0.4251220000000  0.5683700000000 1.0
C      1  0.4595120000000  0.5725650000000  0.4300420000000 1.0
C      1  0.5725780000000  0.4601990000000  0.4224550000000 1.0
C      1  0.4286680000000  0.4651520000000  0.5784820000000 1.0
C      1  0.4309810000000  0.5347670000000  0.4235020000000 1.0
C      1  0.4370490000000  0.4461400000000  0.5574940000000 1.0
C      1  0.5664890000000  0.4337290000000  0.4330060000000 1.0
C      1  0.4331570000000  0.5620350000000  0.4324120000000 1.0
C      1  0.5624620000000  0.5589730000000  0.5599860000000 1.0
END
