TITL C-3578200-9634-582 -2.27681736112849e-06 125000 -1219.5833678072 0 0 194 (C1) n - 1
REM
REM in /home/bkarasulu/work/CARBON/AIRSS/Generating-Clusters/EDIP-Nigel-Params/with-SteepDescent/Higher-Symm/SD-CG/HFTN-CG
REM
REM
REM
REM
REM
REM ./C.cell (12c818d87b63d06a65506943cc24bca4)
REM
REM compiler GCC version 9.2.1 20190827 (Red Hat 9.2.1-1)
REM options -cpp -mtune=generic -march=x86-64 -g -O0 -fpre-include=/usr/include/finclude/math-vector-fortran.h
REM seed -10396340 -2092610839 -1572818809 580606952 -1138974020 2140119956 809775836 2013865524 1393031763 1942566887 918519392 948869488 493873057 1120969823 -1823129623 1536813689 1718492911 -1448908869 -379085309 2043390793 -1796076928 -40638857 1482543589 -708638931 -295010853 -706836646 906285690 19628816 772415803 497194086 918697222 -1376466962 -1854867943
REM
CELL 1.54180   50.00000   50.00000   50.00000   90.00000   90.00000   90.00000
LATT -1
SFAC C  
C      1  0.6087520000000  0.5515010000000  0.5134280000000 1.0
C      1  0.5173080000000  0.5343780000000  0.5992630000000 1.0
C      1  0.4007480000000  0.5352720000000  0.5469190000000 1.0
C      1  0.4250130000000  0.5358630000000  0.4278220000000 1.0
C      1  0.5424070000000  0.5363740000000  0.4057160000000 1.0
C      1  0.6031920000000  0.4568290000000  0.5142940000000 1.0
C      1  0.5135860000000  0.4620570000000  0.6032320000000 1.0
C      1  0.4064110000000  0.4642770000000  0.5462510000000 1.0
C      1  0.4256030000000  0.4622800000000  0.4311010000000 1.0
C      1  0.5426530000000  0.4645370000000  0.4105150000000 1.0
C      1  0.5170020000000  0.4131470000000  0.5283340000000 1.0
C      1  0.4729790000000  0.4122490000000  0.5234310000000 1.0
C      1  0.4537700000000  0.4028600000000  0.4788140000000 1.0
C      1  0.5022830000000  0.4142790000000  0.4733710000000 1.0
C      1  0.5462280000000  0.3979570000000  0.4929800000000 1.0
C      1  0.5176630000000  0.5833970000000  0.5295370000000 1.0
C      1  0.4699980000000  0.5899570000000  0.5255740000000 1.0
C      1  0.4587490000000  0.6028960000000  0.4799420000000 1.0
C      1  0.5033700000000  0.5967240000000  0.4582900000000 1.0
C      1  0.5371010000000  0.5862100000000  0.4897890000000 1.0
C      1  0.4014090000000  0.5242830000000  0.4738510000000 1.0
C      1  0.4956920000000  0.5226020000000  0.4044840000000 1.0
C      1  0.6031510000000  0.5343750000000  0.4700110000000 1.0
C      1  0.5593710000000  0.5244970000000  0.5724290000000 1.0
C      1  0.4419700000000  0.5204520000000  0.5794130000000 1.0
C      1  0.4014920000000  0.4748850000000  0.4729030000000 1.0
C      1  0.4936660000000  0.4788030000000  0.4104000000000 1.0
C      1  0.6022740000000  0.4699020000000  0.4668410000000 1.0
C      1  0.5577900000000  0.4754870000000  0.5752460000000 1.0
C      1  0.4429120000000  0.4761590000000  0.5798160000000 1.0
C      1  0.5867920000000  0.5332750000000  0.5639430000000 1.0
C      1  0.4617620000000  0.5307570000000  0.5991180000000 1.0
C      1  0.3873090000000  0.5336790000000  0.4978970000000 1.0
C      1  0.4671130000000  0.5302890000000  0.3999200000000 1.0
C      1  0.5961770000000  0.5375970000000  0.4415800000000 1.0
C      1  0.5840340000000  0.4662930000000  0.5648040000000 1.0
C      1  0.4627940000000  0.4661750000000  0.5993810000000 1.0
C      1  0.3873990000000  0.4667370000000  0.4975470000000 1.0
C      1  0.4666710000000  0.4673170000000  0.4059660000000 1.0
C      1  0.5958620000000  0.4643380000000  0.4377060000000 1.0
C      1  0.5806610000000  0.4869850000000  0.4793780000000 1.0
C      1  0.5406720000000  0.4849460000000  0.5515630000000 1.0
C      1  0.4566560000000  0.4844260000000  0.5546830000000 1.0
C      1  0.4291410000000  0.4844750000000  0.4804700000000 1.0
C      1  0.4942800000000  0.4881220000000  0.4381350000000 1.0
C      1  0.5932640000000  0.5132950000000  0.4880920000000 1.0
C      1  0.5454840000000  0.5150390000000  0.5465730000000 1.0
C      1  0.4557430000000  0.5143550000000  0.5537260000000 1.0
C      1  0.4281900000000  0.5147580000000  0.4823560000000 1.0
C      1  0.5015250000000  0.5161140000000  0.4341870000000 1.0
C      1  0.4632970000000  0.4370800000000  0.5395750000000 1.0
C      1  0.4453020000000  0.4316310000000  0.4736160000000 1.0
C      1  0.5026060000000  0.4394360000000  0.4560000000000 1.0
C      1  0.5535400000000  0.4344260000000  0.4823070000000 1.0
C      1  0.5259380000000  0.4387020000000  0.5429220000000 1.0
C      1  0.4639000000000  0.5537590000000  0.5362020000000 1.0
C      1  0.4473520000000  0.5664130000000  0.4857740000000 1.0
C      1  0.5039110000000  0.5601670000000  0.4469960000000 1.0
C      1  0.5568010000000  0.5635280000000  0.4835110000000 1.0
C      1  0.5312880000000  0.5607810000000  0.5448460000000 1.0
C      1  0.5825740000000  0.4887190000000  0.4249930000000 1.0
C      1  0.5961850000000  0.4831630000000  0.5426290000000 1.0
C      1  0.4868190000000  0.4829830000000  0.6044310000000 1.0
C      1  0.3874650000000  0.4859560000000  0.5203060000000 1.0
C      1  0.4425470000000  0.4842850000000  0.4112810000000 1.0
C      1  0.5946770000000  0.5134710000000  0.4280110000000 1.0
C      1  0.5989180000000  0.5134370000000  0.5431740000000 1.0
C      1  0.4852370000000  0.5132550000000  0.6084680000000 1.0
C      1  0.3889570000000  0.5154710000000  0.5217790000000 1.0
C      1  0.4448040000000  0.5141470000000  0.4124070000000 1.0
C      1  0.5145160000000  0.4830750000000  0.5704230000000 1.0
C      1  0.4298060000000  0.4817110000000  0.5321060000000 1.0
C      1  0.4466450000000  0.4853670000000  0.4546360000000 1.0
C      1  0.5526640000000  0.4874700000000  0.4297600000000 1.0
C      1  0.5786210000000  0.4768830000000  0.5087880000000 1.0
C      1  0.5065480000000  0.5117340000000  0.5772750000000 1.0
C      1  0.4308930000000  0.5139380000000  0.5343570000000 1.0
C      1  0.4455180000000  0.5178010000000  0.4557650000000 1.0
C      1  0.5356470000000  0.5160830000000  0.4285070000000 1.0
C      1  0.5923590000000  0.5260490000000  0.5163130000000 1.0
C      1  0.5799610000000  0.5878870000000  0.4521910000000 1.0
C      1  0.5644530000000  0.5867140000000  0.5665680000000 1.0
C      1  0.4579680000000  0.5790610000000  0.5781860000000 1.0
C      1  0.4051810000000  0.5847150000000  0.4866080000000 1.0
C      1  0.4824160000000  0.5827070000000  0.4097780000000 1.0
C      1  0.5799500000000  0.4124260000000  0.4545690000000 1.0
C      1  0.5625060000000  0.4151830000000  0.5646000000000 1.0
C      1  0.4562710000000  0.4157700000000  0.5806410000000 1.0
C      1  0.4014460000000  0.4142640000000  0.4872730000000 1.0
C      1  0.4839370000000  0.4183220000000  0.4169310000000 1.0
C      1  0.5763560000000  0.4401200000000  0.4375090000000 1.0
C      1  0.5766210000000  0.4400540000000  0.5511270000000 1.0
C      1  0.4739890000000  0.4402580000000  0.5885910000000 1.0
C      1  0.4020570000000  0.4407240000000  0.5040580000000 1.0
C      1  0.4653200000000  0.4425220000000  0.4229800000000 1.0
C      1  0.5749270000000  0.5595990000000  0.4380230000000 1.0
C      1  0.5814120000000  0.5634860000000  0.5523580000000 1.0
C      1  0.4751460000000  0.5543770000000  0.5853830000000 1.0
C      1  0.4007050000000  0.5597730000000  0.5056740000000 1.0
C      1  0.4651690000000  0.5568030000000  0.4145380000000 1.0
C      1  0.4766730000000  0.5518310000000  0.4417780000000 1.0
C      1  0.5525420000000  0.5534080000000  0.4560390000000 1.0
C      1  0.5592120000000  0.5580580000000  0.5337700000000 1.0
C      1  0.4834320000000  0.5481090000000  0.5572460000000 1.0
C      1  0.4300820000000  0.5547430000000  0.5078090000000 1.0
C      1  0.4719670000000  0.4472520000000  0.4531720000000 1.0
C      1  0.5556450000000  0.4492080000000  0.4564770000000 1.0
C      1  0.5529110000000  0.4461730000000  0.5342790000000 1.0
C      1  0.4832320000000  0.4448360000000  0.5605590000000 1.0
C      1  0.4317760000000  0.4438270000000  0.4989180000000 1.0
C      1  0.4995270000000  0.4346850000000  0.6032240000000 1.0
C      1  0.3997240000000  0.4372670000000  0.5334340000000 1.0
C      1  0.4371550000000  0.4347280000000  0.4228990000000 1.0
C      1  0.5573710000000  0.4381440000000  0.4136780000000 1.0
C      1  0.5975990000000  0.4326650000000  0.5314730000000 1.0
C      1  0.5004990000000  0.5600330000000  0.6000740000000 1.0
C      1  0.3963190000000  0.5637130000000  0.5350900000000 1.0
C      1  0.4362780000000  0.5623830000000  0.4184710000000 1.0
C      1  0.5587060000000  0.5614880000000  0.4123310000000 1.0
C      1  0.6007990000000  0.5737020000000  0.5313380000000 1.0
C      1  0.4188070000000  0.5828570000000  0.5402080000000 1.0
C      1  0.4354260000000  0.5847580000000  0.4377310000000 1.0
C      1  0.5392520000000  0.5838870000000  0.4183020000000 1.0
C      1  0.5870030000000  0.5940130000000  0.5146950000000 1.0
C      1  0.5126910000000  0.5827950000000  0.5856610000000 1.0
C      1  0.4180390000000  0.4153210000000  0.5407830000000 1.0
C      1  0.4378990000000  0.4086730000000  0.4365510000000 1.0
C      1  0.5372730000000  0.4175880000000  0.4234590000000 1.0
C      1  0.5868640000000  0.4099980000000  0.5162310000000 1.0
C      1  0.5120530000000  0.4139190000000  0.5860120000000 1.0
C      1  0.4401680000000  0.5655970000000  0.5557100000000 1.0
C      1  0.4237850000000  0.5711200000000  0.4644390000000 1.0
C      1  0.5110250000000  0.5696500000000  0.4175290000000 1.0
C      1  0.5842880000000  0.5794470000000  0.4837700000000 1.0
C      1  0.5382070000000  0.5701880000000  0.5730060000000 1.0
C      1  0.4391500000000  0.4297690000000  0.5581440000000 1.0
C      1  0.4160890000000  0.4262590000000  0.4616640000000 1.0
C      1  0.5101760000000  0.4317220000000  0.4262240000000 1.0
C      1  0.5845560000000  0.4232470000000  0.4854710000000 1.0
C      1  0.5351550000000  0.4294240000000  0.5720850000000 1.0
C      1  0.5648540000000  0.6017840000000  0.5338930000000 1.0
C      1  0.4888140000000  0.5939600000000  0.5699190000000 1.0
C      1  0.4234660000000  0.5979920000000  0.5134360000000 1.0
C      1  0.4630300000000  0.5985210000000  0.4324700000000 1.0
C      1  0.5508110000000  0.5985280000000  0.4435710000000 1.0
C      1  0.5647090000000  0.3991020000000  0.5357360000000 1.0
C      1  0.4883520000000  0.4020890000000  0.5707250000000 1.0
C      1  0.4234930000000  0.4029420000000  0.5138560000000 1.0
C      1  0.4674820000000  0.3999970000000  0.4363110000000 1.0
C      1  0.5486200000000  0.4060010000000  0.4486110000000 1.0
C      1  0.4931810000000  0.5969090000000  0.5408410000000 1.0
C      1  0.4521400000000  0.6037730000000  0.5078470000000 1.0
C      1  0.4764530000000  0.6070310000000  0.4575340000000 1.0
C      1  0.5304610000000  0.6023940000000  0.4656700000000 1.0
C      1  0.5393120000000  0.6027030000000  0.5193120000000 1.0
C      1  0.4930710000000  0.3975500000000  0.5419360000000 1.0
C      1  0.4519200000000  0.3965820000000  0.5077370000000 1.0
C      1  0.4789360000000  0.3966880000000  0.4644130000000 1.0
C      1  0.5293880000000  0.4002910000000  0.4706490000000 1.0
C      1  0.5396520000000  0.3957610000000  0.5202020000000 1.0
C      1  0.5625330000000  0.5319480000000  0.5214330000000 1.0
C      1  0.4947760000000  0.5228560000000  0.5525500000000 1.0
C      1  0.4390830000000  0.5269550000000  0.5088700000000 1.0
C      1  0.4728100000000  0.5297250000000  0.4602700000000 1.0
C      1  0.5388480000000  0.5284170000000  0.4546820000000 1.0
C      1  0.5505860000000  0.4694930000000  0.5172440000000 1.0
C      1  0.4932810000000  0.4715260000000  0.5532300000000 1.0
C      1  0.4420120000000  0.4699560000000  0.5063170000000 1.0
C      1  0.4753290000000  0.4763410000000  0.4586760000000 1.0
C      1  0.5522180000000  0.4786780000000  0.4598980000000 1.0
C      1  0.6066550000000  0.5594040000000  0.4851430000000 1.0
C      1  0.5440690000000  0.5446060000000  0.5883310000000 1.0
C      1  0.4242730000000  0.5420160000000  0.5676430000000 1.0
C      1  0.4107090000000  0.5449540000000  0.4543590000000 1.0
C      1  0.5148890000000  0.5452000000000  0.3992110000000 1.0
C      1  0.6050150000000  0.4464730000000  0.4855830000000 1.0
C      1  0.5413680000000  0.4541400000000  0.5894110000000 1.0
C      1  0.4249440000000  0.4549100000000  0.5691370000000 1.0
C      1  0.4049230000000  0.4536030000000  0.4521150000000 1.0
C      1  0.5141280000000  0.4567030000000  0.4089480000000 1.0
C      1  0.5195500000000  0.5314020000000  0.5374730000000 1.0
C      1  0.4684190000000  0.5328390000000  0.5111080000000 1.0
C      1  0.4716200000000  0.5467540000000  0.4854320000000 1.0
C      1  0.5136330000000  0.5355530000000  0.4685010000000 1.0
C      1  0.5476600000000  0.5372860000000  0.4969370000000 1.0
C      1  0.5093900000000  0.4633680000000  0.5301770000000 1.0
C      1  0.4664190000000  0.4598830000000  0.5201260000000 1.0
C      1  0.4927940000000  0.4772340000000  0.4840490000000 1.0
C      1  0.5176660000000  0.4653140000000  0.4720790000000 1.0
C      1  0.5350580000000  0.4551520000000  0.4950030000000 1.0
C      1  0.4964930000000  0.4252620000000  0.5029670000000 1.0
C      1  0.5128520000000  0.5713020000000  0.5019680000000 1.0
C      1  0.5179770000000  0.5415420000000  0.5002010000000 1.0
C      1  0.4917680000000  0.4568410000000  0.5071630000000 1.0
END
