TITL C-3577076-40-615 4.30252342074638e-07 125000 -618.215169979106 0 0 96 (C1) n - 1
REM
REM in /home/bkarasulu/work/CARBON/AIRSS/Generating-Clusters/EDIP-Nigel-Params/with-SteepDescent/Higher-Symm/SD-CG/HFTN-CG
REM
REM
REM
REM
REM
REM ./C.cell (12c818d87b63d06a65506943cc24bca4)
REM
REM compiler GCC version 9.2.1 20190827 (Red Hat 9.2.1-1)
REM options -cpp -mtune=generic -march=x86-64 -g -O0 -fpre-include=/usr/include/finclude/math-vector-fortran.h
REM seed 2099283585 1805598969 1290693047 612477699 1569834954 -1831654613 -490185247 -1554471706 -789589054 -1728528769 1421412174 1577991832 -1662001134 970909175 761582603 -534264555 -1746861206 -504905079 996197209 -557128082 433873268 950924213 -1153683925 770766050 1909184246 1662242411 -383767732 -1846908382 1791753886 1398272782 1577504550 723781048 805636543
REM
CELL 1.54180   50.00000   50.00000   50.00000   90.00000   90.00000   90.00000
LATT -1
SFAC C  
C      1  0.5882490000000  0.5044030000000  0.5021510000000 1.0
C      1  0.5228610000000  0.5843880000000  0.5019720000000 1.0
C      1  0.4271070000000  0.5450580000000  0.5018390000000 1.0
C      1  0.4309820000000  0.4447860000000  0.5011790000000 1.0
C      1  0.5322780000000  0.4168680000000  0.5022400000000 1.0
C      1  0.5621640000000  0.5695880000000  0.4784990000000 1.0
C      1  0.4522880000000  0.5794780000000  0.4789380000000 1.0
C      1  0.4053320000000  0.4782480000000  0.4742670000000 1.0
C      1  0.4906930000000  0.4061290000000  0.4774040000000 1.0
C      1  0.5861310000000  0.4622210000000  0.4789260000000 1.0
C      1  0.5338770000000  0.5636960000000  0.4831750000000 1.0
C      1  0.4499410000000  0.5506050000000  0.4834180000000 1.0
C      1  0.4317190000000  0.4670040000000  0.4803140000000 1.0
C      1  0.5111500000000  0.4260730000000  0.4830930000000 1.0
C      1  0.5720110000000  0.4874310000000  0.4834480000000 1.0
C      1  0.5878070000000  0.4627970000000  0.5265050000000 1.0
C      1  0.5623600000000  0.5713330000000  0.5263700000000 1.0
C      1  0.4510100000000  0.5790710000000  0.5258210000000 1.0
C      1  0.4065310000000  0.4764220000000  0.5282840000000 1.0
C      1  0.4916760000000  0.4060380000000  0.5250480000000 1.0
C      1  0.4861110000000  0.5213510000000  0.4721880000000 1.0
C      1  0.4728650000000  0.4932050000000  0.4709960000000 1.0
C      1  0.4966060000000  0.4716560000000  0.4744880000000 1.0
C      1  0.5236370000000  0.4887080000000  0.4736380000000 1.0
C      1  0.5166620000000  0.5187350000000  0.4728620000000 1.0
C      1  0.5274530000000  0.5346660000000  0.4956950000000 1.0
C      1  0.4759490000000  0.5361560000000  0.4957600000000 1.0
C      1  0.4484470000000  0.4909900000000  0.4911980000000 1.0
C      1  0.4979470000000  0.4501900000000  0.5001110000000 1.0
C      1  0.5430320000000  0.4847250000000  0.4959660000000 1.0
C      1  0.4869730000000  0.5214490000000  0.4250040000000 1.0
C      1  0.4762510000000  0.4941740000000  0.4271480000000 1.0
C      1  0.4978810000000  0.4746580000000  0.4255280000000 1.0
C      1  0.5236220000000  0.4893130000000  0.4251520000000 1.0
C      1  0.5169330000000  0.5187080000000  0.4246070000000 1.0
C      1  0.5243360000000  0.4899610000000  0.5747170000000 1.0
C      1  0.5174720000000  0.5189340000000  0.5739820000000 1.0
C      1  0.4880320000000  0.5211090000000  0.5718970000000 1.0
C      1  0.4760600000000  0.4944280000000  0.5731040000000 1.0
C      1  0.4985070000000  0.4752600000000  0.5733600000000 1.0
C      1  0.4787930000000  0.5829320000000  0.5273420000000 1.0
C      1  0.4141860000000  0.5034000000000  0.5282570000000 1.0
C      1  0.4779410000000  0.4309140000000  0.5181760000000 1.0
C      1  0.5671700000000  0.4437290000000  0.5279790000000 1.0
C      1  0.5746010000000  0.5460500000000  0.5276680000000 1.0
C      1  0.4849120000000  0.5210870000000  0.5211020000000 1.0
C      1  0.4602410000000  0.4907780000000  0.5190510000000 1.0
C      1  0.5078560000000  0.4739110000000  0.5212530000000 1.0
C      1  0.5313770000000  0.4927810000000  0.5226270000000 1.0
C      1  0.5182700000000  0.5229070000000  0.5223500000000 1.0
C      1  0.4358330000000  0.5554620000000  0.5280830000000 1.0
C      1  0.4257370000000  0.4560720000000  0.5282420000000 1.0
C      1  0.5184060000000  0.4146800000000  0.5282390000000 1.0
C      1  0.5884170000000  0.4908930000000  0.5286110000000 1.0
C      1  0.5354710000000  0.5794700000000  0.5284140000000 1.0
C      1  0.5649440000000  0.4440290000000  0.4763150000000 1.0
C      1  0.5731190000000  0.5439350000000  0.4759430000000 1.0
C      1  0.4800310000000  0.5825890000000  0.4758040000000 1.0
C      1  0.4116400000000  0.5059990000000  0.4736330000000 1.0
C      1  0.4665000000000  0.4204610000000  0.4739670000000 1.0
C      1  0.5333260000000  0.5364220000000  0.5553920000000 1.0
C      1  0.4745750000000  0.5424240000000  0.5571430000000 1.0
C      1  0.4492250000000  0.4874260000000  0.5613670000000 1.0
C      1  0.4969470000000  0.4506160000000  0.5572680000000 1.0
C      1  0.5464480000000  0.4804850000000  0.5562100000000 1.0
C      1  0.5621570000000  0.5294120000000  0.5486840000000 1.0
C      1  0.4911040000000  0.5647510000000  0.5469060000000 1.0
C      1  0.4347220000000  0.5105480000000  0.5487980000000 1.0
C      1  0.4716860000000  0.4452110000000  0.5433170000000 1.0
C      1  0.5477310000000  0.4507190000000  0.5492230000000 1.0
C      1  0.4539200000000  0.4255180000000  0.5003940000000 1.0
C      1  0.5539840000000  0.4360140000000  0.5024880000000 1.0
C      1  0.5777460000000  0.5313270000000  0.5022010000000 1.0
C      1  0.4938380000000  0.5834500000000  0.5018680000000 1.0
C      1  0.4202060000000  0.5161520000000  0.5012730000000 1.0
C      1  0.4773680000000  0.5382860000000  0.4482660000000 1.0
C      1  0.4494720000000  0.4883080000000  0.4404670000000 1.0
C      1  0.4954120000000  0.4496740000000  0.4425620000000 1.0
C      1  0.5408700000000  0.4816150000000  0.4491590000000 1.0
C      1  0.5295470000000  0.5326110000000  0.4487310000000 1.0
C      1  0.5212370000000  0.4388810000000  0.5447840000000 1.0
C      1  0.5668420000000  0.5006030000000  0.5460190000000 1.0
C      1  0.5198150000000  0.5607800000000  0.5445010000000 1.0
C      1  0.4496780000000  0.5351280000000  0.5436160000000 1.0
C      1  0.4515700000000  0.4669510000000  0.5390920000000 1.0
C      1  0.4343010000000  0.5115290000000  0.4544520000000 1.0
C      1  0.4685950000000  0.4435340000000  0.4559630000000 1.0
C      1  0.5453830000000  0.4513260000000  0.4542720000000 1.0
C      1  0.5602740000000  0.5276220000000  0.4537020000000 1.0
C      1  0.4917890000000  0.5656550000000  0.4534770000000 1.0
C      1  0.5194940000000  0.4378490000000  0.4567480000000 1.0
C      1  0.5659420000000  0.4986350000000  0.4553270000000 1.0
C      1  0.5211550000000  0.5617950000000  0.4550640000000 1.0
C      1  0.4472080000000  0.5380760000000  0.4554430000000 1.0
C      1  0.4460060000000  0.4616310000000  0.4545090000000 1.0
C      1  0.4881130000000  0.4924170000000  0.5125040000000 1.0
END
