TITL C-3578195-8548-538 -3.51920312577351e-07 125000 -264.99538633781 0 0 44 (D2) n - 1
REM
REM in /home/bkarasulu/work/CARBON/AIRSS/Generating-Clusters/EDIP-Nigel-Params/with-SteepDescent/Higher-Symm/SD-CG/HFTN-CG
REM
REM
REM
REM
REM
REM ./C.cell (12c818d87b63d06a65506943cc24bca4)
REM
REM compiler GCC version 9.2.1 20190827 (Red Hat 9.2.1-1)
REM options -cpp -mtune=generic -march=x86-64 -g -O0 -fpre-include=/usr/include/finclude/math-vector-fortran.h
REM seed -1706736702 1930016881 -144944886 -1473776832 -3374928 1966505222 -809876416 30496262 -662290204 -1665286330 -430971838 -1661180059 -1286266912 -701744865 2001100767 966112004 -1742029175 54482850 585041214 987432891 1928242019 -748829618 1890949340 916124392 -1543447749 -894937115 -1472643437 -287327526 -976763366 -206930567 -1824144023 667488352 1415413422
REM
CELL 1.54180   50.00000   50.00000   50.00000   90.00000   90.00000   90.00000
LATT -1
SFAC C  
C      1  0.5535640000000  0.5258650000000  0.4970090000000 1.0
C      1  0.4464360000000  0.4741350000000  0.4970090000000 1.0
C      1  0.4464360000000  0.5258650000000  0.5029910000000 1.0
C      1  0.5535640000000  0.4741350000000  0.5029910000000 1.0
C      1  0.4869070000000  0.4562340000000  0.4666520000000 1.0
C      1  0.5130930000000  0.5437660000000  0.4666520000000 1.0
C      1  0.5130930000000  0.4562340000000  0.5333480000000 1.0
C      1  0.4869070000000  0.5437660000000  0.5333480000000 1.0
C      1  0.5327710000000  0.4615280000000  0.4885590000000 1.0
C      1  0.4672290000000  0.5384720000000  0.4885590000000 1.0
C      1  0.4672290000000  0.4615280000000  0.5114410000000 1.0
C      1  0.5327710000000  0.5384720000000  0.5114410000000 1.0
C      1  0.5303430000000  0.5410900000000  0.5410700000000 1.0
C      1  0.4696570000000  0.4589100000000  0.5410700000000 1.0
C      1  0.4696570000000  0.5410890000000  0.4589300000000 1.0
C      1  0.5303430000000  0.4589110000000  0.4589300000000 1.0
C      1  0.4926700000000  0.4450030000000  0.5494750000000 1.0
C      1  0.5073300000000  0.5549970000000  0.5494750000000 1.0
C      1  0.5073300000000  0.4450030000000  0.4505250000000 1.0
C      1  0.4926700000000  0.5549970000000  0.4505250000000 1.0
C      1  0.5146140000000  0.5131170000000  0.4669050000000 1.0
C      1  0.4853860000000  0.4868830000000  0.4669050000000 1.0
C      1  0.4853860000000  0.5131170000000  0.5330950000000 1.0
C      1  0.5146140000000  0.4868830000000  0.5330950000000 1.0
C      1  0.5145140000000  0.4962620000000  0.5620620000000 1.0
C      1  0.4854860000000  0.5037380000000  0.5620620000000 1.0
C      1  0.4854860000000  0.4962620000000  0.4379380000000 1.0
C      1  0.5145140000000  0.5037380000000  0.4379380000000 1.0
C      1  0.5588500000000  0.4961730000000  0.4562840000000 1.0
C      1  0.4411500000000  0.5038270000000  0.4562840000000 1.0
C      1  0.4411500000000  0.4961730000000  0.5437160000000 1.0
C      1  0.5588500000000  0.5038270000000  0.5437160000000 1.0
C      1  0.4620710000000  0.5174150000000  0.4415060000000 1.0
C      1  0.5379290000000  0.4825850000000  0.4415060000000 1.0
C      1  0.5379290000000  0.5174150000000  0.5584940000000 1.0
C      1  0.4620710000000  0.4825850000000  0.5584940000000 1.0
C      1  0.4568830000000  0.5085010000000  0.5231690000000 1.0
C      1  0.5431170000000  0.4914990000000  0.5231690000000 1.0
C      1  0.5431170000000  0.5085010000000  0.4768310000000 1.0
C      1  0.4568830000000  0.4914990000000  0.4768310000000 1.0
C      1  0.4860640000000  0.5537090000000  0.5053200000000 1.0
C      1  0.5139360000000  0.4462910000000  0.5053200000000 1.0
C      1  0.5139360000000  0.5537090000000  0.4946800000000 1.0
C      1  0.4860640000000  0.4462910000000  0.4946800000000 1.0
END
