TITL C-3577085-527-319 -1.96542600343417e-06 125000 -855.167601315879 0 0 138 (C1) n - 1
REM
REM in /home/bkarasulu/work/CARBON/AIRSS/Generating-Clusters/EDIP-Nigel-Params/with-SteepDescent/Higher-Symm/SD-CG/HFTN-CG
REM
REM
REM
REM
REM
REM ./C.cell (12c818d87b63d06a65506943cc24bca4)
REM
REM compiler GCC version 9.2.1 20190827 (Red Hat 9.2.1-1)
REM options -cpp -mtune=generic -march=x86-64 -g -O0 -fpre-include=/usr/include/finclude/math-vector-fortran.h
REM seed 994616289 1591253006 781111182 603036781 2087218252 -374917403 -800940918 2124633806 692815534 -595037177 713052654 781642126 -68970193 1199680446 1532502065 -107787421 -240730708 1760219661 521402449 1272613588 -279311959 -745771899 -935627111 775386388 1902598644 666739888 831961613 822637856 -577930170 -829571099 -1052785853 1980418528 36484318
REM
CELL 1.54180   50.00000   50.00000   50.00000   90.00000   90.00000   90.00000
LATT -1
SFAC C  
C      1  0.4955940000000  0.5532170000000  0.5151650000000 1.0
C      1  0.5137700000000  0.5116490000000  0.4163380000000 1.0
C      1  0.5599130000000  0.5660860000000  0.5035720000000 1.0
C      1  0.4816960000000  0.4502880000000  0.5671990000000 1.0
C      1  0.4669950000000  0.5131660000000  0.5281260000000 1.0
C      1  0.5696470000000  0.5230150000000  0.5374790000000 1.0
C      1  0.5787680000000  0.5092130000000  0.4449870000000 1.0
C      1  0.5549700000000  0.4917780000000  0.5103440000000 1.0
C      1  0.4719750000000  0.5335830000000  0.4365000000000 1.0
C      1  0.5865630000000  0.5493290000000  0.4702860000000 1.0
C      1  0.4593030000000  0.5878980000000  0.4501540000000 1.0
C      1  0.5191900000000  0.5190970000000  0.4561580000000 1.0
C      1  0.4857040000000  0.4929250000000  0.5416880000000 1.0
C      1  0.5477300000000  0.4046750000000  0.5021010000000 1.0
C      1  0.4981470000000  0.5373310000000  0.4216420000000 1.0
C      1  0.4252130000000  0.4741890000000  0.5533150000000 1.0
C      1  0.5473370000000  0.5834750000000  0.4602180000000 1.0
C      1  0.5791210000000  0.4364900000000  0.5029980000000 1.0
C      1  0.4428580000000  0.5130680000000  0.4786870000000 1.0
C      1  0.4677730000000  0.4699590000000  0.5496940000000 1.0
C      1  0.5292400000000  0.3969780000000  0.4800940000000 1.0
C      1  0.4585470000000  0.5563530000000  0.4860690000000 1.0
C      1  0.4462460000000  0.5467730000000  0.4273670000000 1.0
C      1  0.4416780000000  0.4808010000000  0.5762480000000 1.0
C      1  0.4719200000000  0.4671180000000  0.4794690000000 1.0
C      1  0.4445540000000  0.4616550000000  0.4345250000000 1.0
C      1  0.4812120000000  0.5972080000000  0.4941690000000 1.0
C      1  0.5485700000000  0.4414310000000  0.5697930000000 1.0
C      1  0.4187790000000  0.4977780000000  0.5383820000000 1.0
C      1  0.4891190000000  0.4237770000000  0.4797580000000 1.0
C      1  0.5771530000000  0.5597640000000  0.5272860000000 1.0
C      1  0.4621880000000  0.5011110000000  0.5807770000000 1.0
C      1  0.5410410000000  0.5152720000000  0.4207110000000 1.0
C      1  0.4245000000000  0.5113580000000  0.4544680000000 1.0
C      1  0.4725670000000  0.4140520000000  0.4568040000000 1.0
C      1  0.5202550000000  0.6048520000000  0.4508850000000 1.0
C      1  0.4357540000000  0.4211290000000  0.5427220000000 1.0
C      1  0.5060320000000  0.4827910000000  0.4136830000000 1.0
C      1  0.5897380000000  0.5189210000000  0.5155110000000 1.0
C      1  0.5057810000000  0.5055750000000  0.5017010000000 1.0
C      1  0.5350900000000  0.4601870000000  0.5498090000000 1.0
C      1  0.4297920000000  0.4458190000000  0.5289310000000 1.0
C      1  0.4377200000000  0.5214080000000  0.5345930000000 1.0
C      1  0.5444030000000  0.5919560000000  0.5482290000000 1.0
C      1  0.4988160000000  0.5344060000000  0.5497050000000 1.0
C      1  0.5347430000000  0.4133200000000  0.5281000000000 1.0
C      1  0.4592790000000  0.4848930000000  0.4236690000000 1.0
C      1  0.4961800000000  0.5306010000000  0.6017800000000 1.0
C      1  0.4797190000000  0.4775870000000  0.4063610000000 1.0
C      1  0.5473170000000  0.4706960000000  0.4395590000000 1.0
C      1  0.4848190000000  0.4239200000000  0.5599360000000 1.0
C      1  0.5794110000000  0.5382780000000  0.4439810000000 1.0
C      1  0.4253730000000  0.4631610000000  0.4810330000000 1.0
C      1  0.5054800000000  0.4020970000000  0.5217480000000 1.0
C      1  0.5488270000000  0.4274170000000  0.4645000000000 1.0
C      1  0.4583150000000  0.5299530000000  0.5781390000000 1.0
C      1  0.5076100000000  0.4795460000000  0.5995330000000 1.0
C      1  0.4197250000000  0.4398880000000  0.5004340000000 1.0
C      1  0.4725540000000  0.5787000000000  0.4739160000000 1.0
C      1  0.5810230000000  0.5260560000000  0.4882260000000 1.0
C      1  0.4231060000000  0.5344930000000  0.5114900000000 1.0
C      1  0.5029890000000  0.4004630000000  0.4924330000000 1.0
C      1  0.4660500000000  0.5060590000000  0.4402930000000 1.0
C      1  0.5232120000000  0.4614980000000  0.4250230000000 1.0
C      1  0.4713860000000  0.5300750000000  0.4806380000000 1.0
C      1  0.5932040000000  0.4905250000000  0.5125070000000 1.0
C      1  0.5460800000000  0.5337360000000  0.4622280000000 1.0
C      1  0.5117030000000  0.4331880000000  0.4307300000000 1.0
C      1  0.5134790000000  0.5568040000000  0.4899080000000 1.0
C      1  0.5040830000000  0.5888440000000  0.4315260000000 1.0
C      1  0.4542820000000  0.4044520000000  0.5302040000000 1.0
C      1  0.5625890000000  0.4518360000000  0.4564290000000 1.0
C      1  0.5755920000000  0.4454820000000  0.5312730000000 1.0
C      1  0.5088910000000  0.4457730000000  0.4673380000000 1.0
C      1  0.5237170000000  0.4418730000000  0.5298500000000 1.0
C      1  0.5062540000000  0.6086110000000  0.4852250000000 1.0
C      1  0.4786370000000  0.4486650000000  0.5022540000000 1.0
C      1  0.5688270000000  0.5555960000000  0.5651510000000 1.0
C      1  0.4815910000000  0.4115230000000  0.5356760000000 1.0
C      1  0.5056160000000  0.4639210000000  0.5749510000000 1.0
C      1  0.4327490000000  0.5508110000000  0.4717290000000 1.0
C      1  0.4901220000000  0.5899380000000  0.5465680000000 1.0
C      1  0.5748090000000  0.5019470000000  0.4726320000000 1.0
C      1  0.4556190000000  0.4616780000000  0.5218490000000 1.0
C      1  0.5742150000000  0.4098260000000  0.4962220000000 1.0
C      1  0.5689680000000  0.4958910000000  0.5549380000000 1.0
C      1  0.4366930000000  0.4859940000000  0.4988310000000 1.0
C      1  0.4472270000000  0.4253350000000  0.4647490000000 1.0
C      1  0.5697880000000  0.5797220000000  0.5492550000000 1.0
C      1  0.5783610000000  0.4561800000000  0.4812390000000 1.0
C      1  0.4793100000000  0.5797290000000  0.5198380000000 1.0
C      1  0.4982970000000  0.5406790000000  0.4653800000000 1.0
C      1  0.4462760000000  0.3965630000000  0.5048560000000 1.0
C      1  0.4339880000000  0.4164310000000  0.4890400000000 1.0
C      1  0.5727740000000  0.5749200000000  0.4783650000000 1.0
C      1  0.4572460000000  0.4390740000000  0.4205910000000 1.0
C      1  0.4102110000000  0.4921370000000  0.5113920000000 1.0
C      1  0.5424460000000  0.4817070000000  0.4819400000000 1.0
C      1  0.5309460000000  0.4531020000000  0.4876430000000 1.0
C      1  0.4742520000000  0.5746230000000  0.5671900000000 1.0
C      1  0.4764660000000  0.5933560000000  0.4285350000000 1.0
C      1  0.4035140000000  0.5169210000000  0.4974550000000 1.0
C      1  0.5083510000000  0.4574010000000  0.5108010000000 1.0
C      1  0.5597680000000  0.4731830000000  0.5364140000000 1.0
C      1  0.5409440000000  0.4718520000000  0.5908150000000 1.0
C      1  0.5410330000000  0.5435380000000  0.4949140000000 1.0
C      1  0.5903950000000  0.4815390000000  0.4856070000000 1.0
C      1  0.5176090000000  0.5935040000000  0.5505700000000 1.0
C      1  0.4477800000000  0.5677800000000  0.5538650000000 1.0
C      1  0.5427530000000  0.5432690000000  0.5664470000000 1.0
C      1  0.5240080000000  0.5284010000000  0.6063380000000 1.0
C      1  0.5533920000000  0.4969140000000  0.5802770000000 1.0
C      1  0.4497490000000  0.5736370000000  0.5253730000000 1.0
C      1  0.5058740000000  0.4850810000000  0.5212500000000 1.0
C      1  0.4388670000000  0.5397280000000  0.5590310000000 1.0
C      1  0.5273980000000  0.5413170000000  0.5423700000000 1.0
C      1  0.5153220000000  0.4952970000000  0.4753980000000 1.0
C      1  0.4838550000000  0.5252660000000  0.5072200000000 1.0
C      1  0.4050720000000  0.4716680000000  0.4599270000000 1.0
C      1  0.4489160000000  0.4550710000000  0.4643290000000 1.0
C      1  0.5145390000000  0.5613690000000  0.4305040000000 1.0
C      1  0.5586540000000  0.4957950000000  0.4296590000000 1.0
C      1  0.4860010000000  0.5019440000000  0.5999810000000 1.0
C      1  0.5329200000000  0.5187850000000  0.5803040000000 1.0
C      1  0.4258420000000  0.5275770000000  0.4310570000000 1.0
C      1  0.4271050000000  0.5634170000000  0.5077460000000 1.0
C      1  0.5300740000000  0.4145090000000  0.4461290000000 1.0
C      1  0.5250090000000  0.5854140000000  0.4846610000000 1.0
C      1  0.4377970000000  0.5675530000000  0.4464060000000 1.0
C      1  0.5608280000000  0.4247210000000  0.5479090000000 1.0
C      1  0.4152970000000  0.4649780000000  0.4338110000000 1.0
C      1  0.4842670000000  0.5459610000000  0.5760650000000 1.0
C      1  0.3996740000000  0.5001300000000  0.4635050000000 1.0
C      1  0.5032890000000  0.5067750000000  0.5653320000000 1.0
C      1  0.4806650000000  0.4260340000000  0.4311880000000 1.0
C      1  0.5405040000000  0.5587570000000  0.4448700000000 1.0
C      1  0.5413170000000  0.5236440000000  0.5204960000000 1.0
C      1  0.4962270000000  0.4731900000000  0.4648120000000 1.0
END
