TITL C-3578206-1180-543 -3.04715989520273e-06 125000 -951.663390341599 0 0 156 (C1) n - 1
REM
REM in /home/bkarasulu/work/CARBON/AIRSS/Generating-Clusters/EDIP-Nigel-Params/with-SteepDescent/Higher-Symm/SD-CG/HFTN-CG
REM
REM
REM
REM
REM
REM ./C.cell (12c818d87b63d06a65506943cc24bca4)
REM
REM compiler GCC version 9.2.1 20190827 (Red Hat 9.2.1-1)
REM options -cpp -mtune=generic -march=x86-64 -g -O0 -fpre-include=/usr/include/finclude/math-vector-fortran.h
REM seed 1072514693 -1991097700 -1928133131 483365655 -1775933710 1606438453 -1100179567 711470934 32901928 363955603 -1680321647 -136276679 -1965523012 1990677589 -1608965768 -194165384 -2065126325 -778847328 -1879402049 840626005 1430931658 -1183633697 1595579066 773617486 -250129860 107532017 923893472 -914207846 498298814 -1163268220 662687536 -2000342363 1236593320
REM
CELL 1.54180   50.00000   50.00000   50.00000   90.00000   90.00000   90.00000
LATT -1
SFAC C  
C      1  0.4418550000000  0.4472100000000  0.5634520000000 1.0
C      1  0.5263140000000  0.4320670000000  0.5699790000000 1.0
C      1  0.5623520000000  0.4661550000000  0.5712020000000 1.0
C      1  0.5590800000000  0.5516980000000  0.5605440000000 1.0
C      1  0.4727430000000  0.5657210000000  0.5683930000000 1.0
C      1  0.4371960000000  0.5320510000000  0.5684580000000 1.0
C      1  0.4447420000000  0.5597750000000  0.5639780000000 1.0
C      1  0.5322800000000  0.5617820000000  0.5669930000000 1.0
C      1  0.5648150000000  0.5243880000000  0.5701110000000 1.0
C      1  0.5539200000000  0.4387660000000  0.5643320000000 1.0
C      1  0.4686880000000  0.4374420000000  0.5684570000000 1.0
C      1  0.4368910000000  0.4753430000000  0.5686470000000 1.0
C      1  0.4891230000000  0.4490420000000  0.5249690000000 1.0
C      1  0.5380960000000  0.4688010000000  0.5111160000000 1.0
C      1  0.5515790000000  0.5147540000000  0.5152440000000 1.0
C      1  0.5103160000000  0.5400600000000  0.5271990000000 1.0
C      1  0.4614480000000  0.5365550000000  0.5155190000000 1.0
C      1  0.4451570000000  0.4877510000000  0.5096630000000 1.0
C      1  0.4856370000000  0.5545110000000  0.5213720000000 1.0
C      1  0.5295500000000  0.5318880000000  0.5085390000000 1.0
C      1  0.5476930000000  0.4896770000000  0.5307870000000 1.0
C      1  0.5186360000000  0.4484280000000  0.5164050000000 1.0
C      1  0.4666050000000  0.4679370000000  0.5115430000000 1.0
C      1  0.4393560000000  0.5158270000000  0.5198300000000 1.0
C      1  0.5471200000000  0.5108520000000  0.5884540000000 1.0
C      1  0.5159180000000  0.5463640000000  0.5856600000000 1.0
C      1  0.4720990000000  0.5316720000000  0.6029410000000 1.0
C      1  0.4534110000000  0.4889560000000  0.5874280000000 1.0
C      1  0.4842940000000  0.4530170000000  0.5869840000000 1.0
C      1  0.5273030000000  0.4675400000000  0.6039190000000 1.0
C      1  0.5457950000000  0.4818550000000  0.5889120000000 1.0
C      1  0.5125540000000  0.4494550000000  0.5885400000000 1.0
C      1  0.4718010000000  0.4733680000000  0.6012840000000 1.0
C      1  0.4543210000000  0.5175210000000  0.5867100000000 1.0
C      1  0.4871210000000  0.5476680000000  0.5856770000000 1.0
C      1  0.5284490000000  0.5269590000000  0.6011700000000 1.0
C      1  0.6294030000000  0.5324610000000  0.5547390000000 1.0
C      1  0.5146020000000  0.6205670000000  0.5415600000000 1.0
C      1  0.3868440000000  0.5664290000000  0.5327090000000 1.0
C      1  0.3812900000000  0.4556680000000  0.5341300000000 1.0
C      1  0.4797210000000  0.3785800000000  0.5461560000000 1.0
C      1  0.6139910000000  0.4368800000000  0.5598020000000 1.0
C      1  0.6219170000000  0.4629040000000  0.5550720000000 1.0
C      1  0.5069850000000  0.3759740000000  0.5409110000000 1.0
C      1  0.3881730000000  0.4348170000000  0.5185640000000 1.0
C      1  0.3826880000000  0.5514180000000  0.5558100000000 1.0
C      1  0.4878700000000  0.6244140000000  0.5438860000000 1.0
C      1  0.6238710000000  0.5540810000000  0.5385470000000 1.0
C      1  0.3802750000000  0.5088860000000  0.4871730000000 1.0
C      1  0.4311200000000  0.4048240000000  0.4829550000000 1.0
C      1  0.5536980000000  0.4061510000000  0.4901820000000 1.0
C      1  0.6178480000000  0.5051310000000  0.4699260000000 1.0
C      1  0.5744980000000  0.5831940000000  0.4825690000000 1.0
C      1  0.4607800000000  0.6085560000000  0.4817700000000 1.0
C      1  0.3832610000000  0.4827870000000  0.4819520000000 1.0
C      1  0.4343800000000  0.5958870000000  0.4828040000000 1.0
C      1  0.5570090000000  0.6042700000000  0.4890780000000 1.0
C      1  0.6138670000000  0.5287030000000  0.4836750000000 1.0
C      1  0.5759260000000  0.4222760000000  0.4874480000000 1.0
C      1  0.4549520000000  0.3886780000000  0.4852190000000 1.0
C      1  0.4424190000000  0.4210940000000  0.4356030000000 1.0
C      1  0.5289050000000  0.4090260000000  0.4441920000000 1.0
C      1  0.5990610000000  0.4662540000000  0.4291080000000 1.0
C      1  0.5563810000000  0.5823840000000  0.4360950000000 1.0
C      1  0.4620550000000  0.5894500000000  0.4346360000000 1.0
C      1  0.3993240000000  0.5281620000000  0.4394220000000 1.0
C      1  0.4353270000000  0.5634630000000  0.4404070000000 1.0
C      1  0.5195050000000  0.5783270000000  0.4442460000000 1.0
C      1  0.5901730000000  0.5292840000000  0.4347850000000 1.0
C      1  0.5622850000000  0.4270870000000  0.4414300000000 1.0
C      1  0.4730630000000  0.4157590000000  0.4385420000000 1.0
C      1  0.4050450000000  0.4626920000000  0.4334310000000 1.0
C      1  0.4219090000000  0.4204440000000  0.4576290000000 1.0
C      1  0.5127800000000  0.3969990000000  0.4658330000000 1.0
C      1  0.5978840000000  0.4585960000000  0.4560860000000 1.0
C      1  0.5753830000000  0.5718500000000  0.4548810000000 1.0
C      1  0.4756710000000  0.6043920000000  0.4556010000000 1.0
C      1  0.3962650000000  0.5453570000000  0.4615800000000 1.0
C      1  0.4160490000000  0.5683910000000  0.4619480000000 1.0
C      1  0.5040160000000  0.5974410000000  0.4586330000000 1.0
C      1  0.5785440000000  0.5428600000000  0.4559090000000 1.0
C      1  0.5774390000000  0.4380780000000  0.4631430000000 1.0
C      1  0.4827770000000  0.3991170000000  0.4608420000000 1.0
C      1  0.4084090000000  0.4490840000000  0.4581450000000 1.0
C      1  0.5433900000000  0.4583310000000  0.4016000000000 1.0
C      1  0.5634180000000  0.5192070000000  0.3963640000000 1.0
C      1  0.5093290000000  0.5470710000000  0.4039830000000 1.0
C      1  0.4634620000000  0.5267160000000  0.4207810000000 1.0
C      1  0.4335750000000  0.4822020000000  0.3974410000000 1.0
C      1  0.4837720000000  0.4587920000000  0.4064630000000 1.0
C      1  0.5460930000000  0.5385140000000  0.4083890000000 1.0
C      1  0.5601250000000  0.4811690000000  0.3972730000000 1.0
C      1  0.5091180000000  0.4438430000000  0.4036860000000 1.0
C      1  0.4521800000000  0.4604320000000  0.4022150000000 1.0
C      1  0.4384610000000  0.5179730000000  0.4097420000000 1.0
C      1  0.4814210000000  0.5487750000000  0.4087620000000 1.0
C      1  0.4753230000000  0.6022210000000  0.5321740000000 1.0
C      1  0.3944660000000  0.5305440000000  0.5416920000000 1.0
C      1  0.4160810000000  0.4329410000000  0.5184780000000 1.0
C      1  0.5239130000000  0.3960950000000  0.5280580000000 1.0
C      1  0.5988760000000  0.4657820000000  0.5396680000000 1.0
C      1  0.5984570000000  0.5615070000000  0.5312930000000 1.0
C      1  0.4691290000000  0.4007850000000  0.5328130000000 1.0
C      1  0.3936530000000  0.4761430000000  0.5459690000000 1.0
C      1  0.4112490000000  0.5784770000000  0.5276580000000 1.0
C      1  0.5301210000000  0.5996720000000  0.5310960000000 1.0
C      1  0.6070540000000  0.5199020000000  0.5441950000000 1.0
C      1  0.5968710000000  0.4218260000000  0.5429560000000 1.0
C      1  0.5717020000000  0.5632220000000  0.5368750000000 1.0
C      1  0.4859590000000  0.5763850000000  0.5439520000000 1.0
C      1  0.4207920000000  0.5177380000000  0.5473690000000 1.0
C      1  0.4285390000000  0.4344360000000  0.5429940000000 1.0
C      1  0.5098950000000  0.4128210000000  0.5529530000000 1.0
C      1  0.5752820000000  0.4815980000000  0.5494860000000 1.0
C      1  0.5684830000000  0.4229110000000  0.5452890000000 1.0
C      1  0.4827920000000  0.4251550000000  0.5449040000000 1.0
C      1  0.4150650000000  0.4899050000000  0.5567130000000 1.0
C      1  0.4315760000000  0.5750630000000  0.5448920000000 1.0
C      1  0.5183280000000  0.5744190000000  0.5437180000000 1.0
C      1  0.5858930000000  0.5078130000000  0.5593410000000 1.0
C      1  0.3977570000000  0.5306530000000  0.4870040000000 1.0
C      1  0.4318100000000  0.4343690000000  0.4924480000000 1.0
C      1  0.5256750000000  0.4037150000000  0.4956610000000 1.0
C      1  0.6036010000000  0.4811010000000  0.4746940000000 1.0
C      1  0.5694020000000  0.5589340000000  0.4991130000000 1.0
C      1  0.4795290000000  0.5987620000000  0.5030160000000 1.0
C      1  0.4071620000000  0.4679120000000  0.4816470000000 1.0
C      1  0.4309500000000  0.5676070000000  0.4893120000000 1.0
C      1  0.5319300000000  0.5999420000000  0.5012580000000 1.0
C      1  0.5850820000000  0.5351790000000  0.4839500000000 1.0
C      1  0.5810840000000  0.4371550000000  0.5117820000000 1.0
C      1  0.4745330000000  0.3986790000000  0.5041680000000 1.0
C      1  0.4607870000000  0.4454480000000  0.4937580000000 1.0
C      1  0.5123170000000  0.4307560000000  0.4946050000000 1.0
C      1  0.5835030000000  0.4858800000000  0.4945230000000 1.0
C      1  0.5391510000000  0.5535730000000  0.4929410000000 1.0
C      1  0.4880950000000  0.5708390000000  0.4958060000000 1.0
C      1  0.4267220000000  0.5235760000000  0.4913590000000 1.0
C      1  0.4553920000000  0.5501780000000  0.4890420000000 1.0
C      1  0.5189160000000  0.5762540000000  0.4872010000000 1.0
C      1  0.5709290000000  0.5113950000000  0.4942690000000 1.0
C      1  0.5687280000000  0.4650020000000  0.5088690000000 1.0
C      1  0.4825860000000  0.4246350000000  0.4919600000000 1.0
C      1  0.4299250000000  0.4862350000000  0.4852410000000 1.0
C      1  0.4472270000000  0.4503480000000  0.4297010000000 1.0
C      1  0.5200970000000  0.4335840000000  0.4300650000000 1.0
C      1  0.5821920000000  0.4844340000000  0.4160610000000 1.0
C      1  0.5476880000000  0.5680230000000  0.4116340000000 1.0
C      1  0.4788900000000  0.5655740000000  0.4341510000000 1.0
C      1  0.4170820000000  0.5101240000000  0.4276870000000 1.0
C      1  0.4578220000000  0.5449430000000  0.4455450000000 1.0
C      1  0.5186030000000  0.5724610000000  0.4151130000000 1.0
C      1  0.5867700000000  0.5128250000000  0.4127440000000 1.0
C      1  0.5455240000000  0.4468380000000  0.4282780000000 1.0
C      1  0.4782010000000  0.4464400000000  0.4347410000000 1.0
C      1  0.4105970000000  0.4842580000000  0.4162450000000 1.0
END
