TITL C-3578194-7807-120 -6.29842576060719e-06 125000 -345.823757311793 0 0 57 (C1) n - 1
REM
REM in /home/bkarasulu/work/CARBON/AIRSS/Generating-Clusters/EDIP-Nigel-Params/with-SteepDescent/Higher-Symm/SD-CG/HFTN-CG
REM
REM
REM
REM
REM
REM ./C.cell (12c818d87b63d06a65506943cc24bca4)
REM
REM compiler GCC version 9.2.1 20190827 (Red Hat 9.2.1-1)
REM options -cpp -mtune=generic -march=x86-64 -g -O0 -fpre-include=/usr/include/finclude/math-vector-fortran.h
REM seed 190115396 697298748 579905903 -595064932 -1004575416 -552023074 -2094224763 1048586892 -49406057 -138118776 -233385668 702502193 402535568 1765754991 -327271839 -946896331 1542754801 365222166 2067309094 -294637276 428412802 215887545 -2015184382 -1438027571 801149050 -1344869603 798227911 -1597921278 -1667360483 -119108448 -2117381635 -786323250 -1014999136
REM
CELL 1.54180   50.00000   50.00000   50.00000   90.00000   90.00000   90.00000
LATT -1
SFAC C  
C      1  0.4406750000000  0.5109000000000  0.4661000000000 1.0
C      1  0.5053430000000  0.4788970000000  0.4923590000000 1.0
C      1  0.5059110000000  0.4897310000000  0.4381030000000 1.0
C      1  0.4414190000000  0.4620160000000  0.4611760000000 1.0
C      1  0.4562390000000  0.5498670000000  0.5264440000000 1.0
C      1  0.4928550000000  0.5708760000000  0.4861510000000 1.0
C      1  0.5232360000000  0.5469620000000  0.5275810000000 1.0
C      1  0.4788290000000  0.4896800000000  0.4463330000000 1.0
C      1  0.5199610000000  0.4626460000000  0.5599450000000 1.0
C      1  0.5461480000000  0.4889590000000  0.5050380000000 1.0
C      1  0.5677940000000  0.4896710000000  0.5481030000000 1.0
C      1  0.4761010000000  0.4732760000000  0.4937560000000 1.0
C      1  0.5070800000000  0.5068000000000  0.4837820000000 1.0
C      1  0.5655120000000  0.4750130000000  0.5225610000000 1.0
C      1  0.5041080000000  0.4445000000000  0.5104450000000 1.0
C      1  0.5203930000000  0.5624910000000  0.4764030000000 1.0
C      1  0.4926080000000  0.5800910000000  0.5126590000000 1.0
C      1  0.4618900000000  0.5136950000000  0.4483880000000 1.0
C      1  0.5002610000000  0.5658360000000  0.5356110000000 1.0
C      1  0.4916200000000  0.4729650000000  0.5653650000000 1.0
C      1  0.5412410000000  0.5288540000000  0.4422620000000 1.0
C      1  0.4772080000000  0.5491640000000  0.5455340000000 1.0
C      1  0.4966810000000  0.5457480000000  0.4367250000000 1.0
C      1  0.5217490000000  0.5488410000000  0.4483260000000 1.0
C      1  0.4740610000000  0.4401360000000  0.5123480000000 1.0
C      1  0.4696830000000  0.4669850000000  0.4638410000000 1.0
C      1  0.5353060000000  0.5500990000000  0.5002580000000 1.0
C      1  0.4868820000000  0.5195180000000  0.5484180000000 1.0
C      1  0.5065800000000  0.5221280000000  0.5254440000000 1.0
C      1  0.4763840000000  0.4747510000000  0.5405170000000 1.0
C      1  0.4886030000000  0.5208650000000  0.5000220000000 1.0
C      1  0.4499090000000  0.5425790000000  0.4999940000000 1.0
C      1  0.5449710000000  0.5379670000000  0.5454840000000 1.0
C      1  0.5237370000000  0.4479590000000  0.5338630000000 1.0
C      1  0.4239090000000  0.4858300000000  0.5006500000000 1.0
C      1  0.5308640000000  0.4914580000000  0.5591350000000 1.0
C      1  0.5571770000000  0.5064280000000  0.4826790000000 1.0
C      1  0.5319620000000  0.4812970000000  0.4457800000000 1.0
C      1  0.4664330000000  0.5011140000000  0.5363390000000 1.0
C      1  0.4734310000000  0.5403320000000  0.4512140000000 1.0
C      1  0.5352380000000  0.4567220000000  0.4611050000000 1.0
C      1  0.4579290000000  0.4555250000000  0.5301080000000 1.0
C      1  0.5304510000000  0.5027130000000  0.5290520000000 1.0
C      1  0.4725580000000  0.5498840000000  0.4800200000000 1.0
C      1  0.5639090000000  0.5178800000000  0.5482710000000 1.0
C      1  0.4864650000000  0.4443800000000  0.4577920000000 1.0
C      1  0.5020700000000  0.5021530000000  0.5697150000000 1.0
C      1  0.5514190000000  0.4479870000000  0.5211380000000 1.0
C      1  0.5517440000000  0.5033410000000  0.4511240000000 1.0
C      1  0.4664510000000  0.5014200000000  0.5062160000000 1.0
C      1  0.5133850000000  0.4369580000000  0.4626580000000 1.0
C      1  0.5463340000000  0.4385440000000  0.4932310000000 1.0
C      1  0.4353140000000  0.4687330000000  0.5197010000000 1.0
C      1  0.4214570000000  0.4720430000000  0.4764490000000 1.0
C      1  0.5189660000000  0.4279360000000  0.4901810000000 1.0
C      1  0.4398320000000  0.5122250000000  0.4947870000000 1.0
C      1  0.5317210000000  0.5246270000000  0.4833170000000 1.0
END
