TITL C-3577080-309-260 1.87507287401888e-06 125000 -1089.16445500701 0 0 172 (C1) n - 1
REM
REM in /home/bkarasulu/work/CARBON/AIRSS/Generating-Clusters/EDIP-Nigel-Params/with-SteepDescent/Higher-Symm/SD-CG/HFTN-CG
REM
REM
REM
REM
REM
REM ./C.cell (12c818d87b63d06a65506943cc24bca4)
REM
REM compiler GCC version 9.2.1 20190827 (Red Hat 9.2.1-1)
REM options -cpp -mtune=generic -march=x86-64 -g -O0 -fpre-include=/usr/include/finclude/math-vector-fortran.h
REM seed 876381910 -312774752 1867427306 -697604330 1276346390 827354301 1017083069 -2103775236 -2076260987 -1116839559 1662435773 -940210345 401035021 -472219510 680371733 -414936591 -420350355 -1952930532 -1265488306 1675671568 1018457567 1914015702 803276812 -2065744069 332772822 -501395019 1381278999 893401787 -2065317604 1459109300 -1723672197 1013821079 11243278
REM
CELL 1.54180   50.00000   50.00000   50.00000   90.00000   90.00000   90.00000
LATT -1
SFAC C  
C      1  0.4790670000000  0.5233090000000  0.4744040000000 1.0
C      1  0.5193820000000  0.4746160000000  0.5271990000000 1.0
C      1  0.4430570000000  0.5540010000000  0.4993510000000 1.0
C      1  0.5556660000000  0.4459600000000  0.5007410000000 1.0
C      1  0.4318600000000  0.5275570000000  0.5036840000000 1.0
C      1  0.5670580000000  0.4724990000000  0.4963050000000 1.0
C      1  0.4967750000000  0.5982490000000  0.5580530000000 1.0
C      1  0.5001690000000  0.4033220000000  0.4417200000000 1.0
C      1  0.5865060000000  0.5072630000000  0.4337570000000 1.0
C      1  0.4203640000000  0.4906550000000  0.5635020000000 1.0
C      1  0.4727910000000  0.4053620000000  0.4837500000000 1.0
C      1  0.5251230000000  0.5934450000000  0.5162110000000 1.0
C      1  0.4142240000000  0.4432460000000  0.5487210000000 1.0
C      1  0.5908810000000  0.5557860000000  0.4603280000000 1.0
C      1  0.4018170000000  0.5532730000000  0.5277760000000 1.0
C      1  0.5964310000000  0.4451270000000  0.4717040000000 1.0
C      1  0.4745420000000  0.4586740000000  0.4037360000000 1.0
C      1  0.5230400000000  0.5453280000000  0.5995300000000 1.0
C      1  0.3960080000000  0.5103040000000  0.4621920000000 1.0
C      1  0.6090400000000  0.4879270000000  0.5357570000000 1.0
C      1  0.4444440000000  0.5945510000000  0.4721110000000 1.0
C      1  0.5549670000000  0.4041210000000  0.5261480000000 1.0
C      1  0.4436120000000  0.4847460000000  0.4752250000000 1.0
C      1  0.5589770000000  0.5117170000000  0.5252140000000 1.0
C      1  0.4924730000000  0.5571990000000  0.5863270000000 1.0
C      1  0.5053940000000  0.4444280000000  0.4145240000000 1.0
C      1  0.5672430000000  0.4929530000000  0.4176860000000 1.0
C      1  0.4384030000000  0.5075070000000  0.5806350000000 1.0
C      1  0.4543610000000  0.4099230000000  0.5367050000000 1.0
C      1  0.5450070000000  0.5871140000000  0.4651220000000 1.0
C      1  0.4385960000000  0.5175390000000  0.5309220000000 1.0
C      1  0.5608300000000  0.4818030000000  0.4683730000000 1.0
C      1  0.4898890000000  0.5053490000000  0.5706770000000 1.0
C      1  0.5087930000000  0.4956850000000  0.4302420000000 1.0
C      1  0.5153320000000  0.5593630000000  0.4658240000000 1.0
C      1  0.4801770000000  0.4402910000000  0.5352030000000 1.0
C      1  0.4241940000000  0.5429370000000  0.4432980000000 1.0
C      1  0.5828930000000  0.4533940000000  0.5587450000000 1.0
C      1  0.4875270000000  0.5618310000000  0.5073140000000 1.0
C      1  0.5116440000000  0.4363050000000  0.4937830000000 1.0
C      1  0.4085820000000  0.5575120000000  0.4640810000000 1.0
C      1  0.5933690000000  0.4407220000000  0.5332510000000 1.0
C      1  0.4955750000000  0.5953210000000  0.5284650000000 1.0
C      1  0.5021100000000  0.4045760000000  0.4714240000000 1.0
C      1  0.5234380000000  0.5955460000000  0.4859370000000 1.0
C      1  0.4748600000000  0.4035880000000  0.5138920000000 1.0
C      1  0.5218500000000  0.5162810000000  0.6068920000000 1.0
C      1  0.4785010000000  0.4866750000000  0.3930280000000 1.0
C      1  0.5416220000000  0.4993810000000  0.5938100000000 1.0
C      1  0.4570320000000  0.5063070000000  0.3963610000000 1.0
C      1  0.5523000000000  0.5452200000000  0.4244050000000 1.0
C      1  0.4484690000000  0.4557700000000  0.5782990000000 1.0
C      1  0.5230490000000  0.5298150000000  0.5005820000000 1.0
C      1  0.4781540000000  0.4683540000000  0.4979520000000 1.0
C      1  0.4989180000000  0.4863840000000  0.5071650000000 1.0
C      1  0.5014650000000  0.5116760000000  0.4928860000000 1.0
C      1  0.5400330000000  0.4298360000000  0.5662030000000 1.0
C      1  0.4602020000000  0.5745310000000  0.4281060000000 1.0
C      1  0.4030890000000  0.4566160000000  0.5148340000000 1.0
C      1  0.6059070000000  0.5436910000000  0.4827490000000 1.0
C      1  0.5798790000000  0.5353730000000  0.4402580000000 1.0
C      1  0.4197950000000  0.4618420000000  0.5708290000000 1.0
C      1  0.4307730000000  0.4380340000000  0.4778720000000 1.0
C      1  0.5676650000000  0.5608330000000  0.5255390000000 1.0
C      1  0.5525000000000  0.5734330000000  0.4182470000000 1.0
C      1  0.4524110000000  0.4275660000000  0.5819810000000 1.0
C      1  0.4712970000000  0.5178670000000  0.6138900000000 1.0
C      1  0.5287240000000  0.4831110000000  0.3882690000000 1.0
C      1  0.3931950000000  0.4806010000000  0.5028770000000 1.0
C      1  0.6015990000000  0.5184530000000  0.4955360000000 1.0
C      1  0.4797690000000  0.5561990000000  0.5378570000000 1.0
C      1  0.5187930000000  0.4443210000000  0.4632130000000 1.0
C      1  0.4643390000000  0.6093120000000  0.4901650000000 1.0
C      1  0.5345080000000  0.3885920000000  0.5086400000000 1.0
C      1  0.6021990000000  0.5159910000000  0.5250080000000 1.0
C      1  0.3993710000000  0.4827520000000  0.4740260000000 1.0
C      1  0.5051890000000  0.4987560000000  0.3996550000000 1.0
C      1  0.4949410000000  0.5032490000000  0.6015050000000 1.0
C      1  0.4329900000000  0.4934640000000  0.4039040000000 1.0
C      1  0.5659920000000  0.5108390000000  0.5831840000000 1.0
C      1  0.3919510000000  0.5361410000000  0.4777040000000 1.0
C      1  0.6089340000000  0.4623100000000  0.5194980000000 1.0
C      1  0.5937780000000  0.4805090000000  0.5596380000000 1.0
C      1  0.4138590000000  0.5164530000000  0.4402640000000 1.0
C      1  0.5443950000000  0.5546100000000  0.5799580000000 1.0
C      1  0.4521750000000  0.4496340000000  0.4228830000000 1.0
C      1  0.4673520000000  0.4331650000000  0.4435330000000 1.0
C      1  0.5298260000000  0.5686590000000  0.5576440000000 1.0
C      1  0.5375890000000  0.5350630000000  0.4512470000000 1.0
C      1  0.4604080000000  0.4665460000000  0.5497950000000 1.0
C      1  0.4900750000000  0.5940670000000  0.4572520000000 1.0
C      1  0.5096040000000  0.4073800000000  0.5402080000000 1.0
C      1  0.5152580000000  0.5574050000000  0.4966640000000 1.0
C      1  0.4838550000000  0.4411360000000  0.5041960000000 1.0
C      1  0.5710430000000  0.5500780000000  0.4982230000000 1.0
C      1  0.4307970000000  0.4486720000000  0.5060410000000 1.0
C      1  0.4368240000000  0.4337000000000  0.5318020000000 1.0
C      1  0.5683650000000  0.5705970000000  0.4749750000000 1.0
C      1  0.5872040000000  0.4628160000000  0.4498650000000 1.0
C      1  0.4109360000000  0.5345960000000  0.5494080000000 1.0
C      1  0.5748060000000  0.4241190000000  0.5136890000000 1.0
C      1  0.4242270000000  0.5750540000000  0.4844270000000 1.0
C      1  0.5298920000000  0.4609390000000  0.4087680000000 1.0
C      1  0.4690540000000  0.5400900000000  0.5932590000000 1.0
C      1  0.5226950000000  0.5950770000000  0.5677550000000 1.0
C      1  0.4743040000000  0.4074630000000  0.4316890000000 1.0
C      1  0.3924220000000  0.5054760000000  0.5190940000000 1.0
C      1  0.6070240000000  0.4938130000000  0.4805050000000 1.0
C      1  0.4459140000000  0.5842330000000  0.5315400000000 1.0
C      1  0.5519130000000  0.4156410000000  0.4685420000000 1.0
C      1  0.4630800000000  0.5312740000000  0.4110370000000 1.0
C      1  0.5388780000000  0.4704970000000  0.5888050000000 1.0
C      1  0.5357540000000  0.5847320000000  0.4369270000000 1.0
C      1  0.4661360000000  0.4110370000000  0.5644710000000 1.0
C      1  0.4910160000000  0.6139350000000  0.4777240000000 1.0
C      1  0.5077570000000  0.3856620000000  0.5218090000000 1.0
C      1  0.4575590000000  0.4280600000000  0.4713950000000 1.0
C      1  0.5405830000000  0.5712990000000  0.5298520000000 1.0
C      1  0.5585510000000  0.5145220000000  0.4672070000000 1.0
C      1  0.4475100000000  0.4876360000000  0.5289480000000 1.0
C      1  0.4651820000000  0.5792310000000  0.4572110000000 1.0
C      1  0.5342990000000  0.4221600000000  0.5381130000000 1.0
C      1  0.4611430000000  0.4704400000000  0.6028620000000 1.0
C      1  0.5401560000000  0.5297380000000  0.4000910000000 1.0
C      1  0.5344220000000  0.4801000000000  0.4318260000000 1.0
C      1  0.4637950000000  0.5217940000000  0.5700170000000 1.0
C      1  0.5512760000000  0.5025440000000  0.3952550000000 1.0
C      1  0.4491130000000  0.4973900000000  0.6069890000000 1.0
C      1  0.5525510000000  0.5247150000000  0.4967850000000 1.0
C      1  0.4497440000000  0.4740480000000  0.5024700000000 1.0
C      1  0.5442190000000  0.4241480000000  0.4422410000000 1.0
C      1  0.4535920000000  0.5764780000000  0.5580600000000 1.0
C      1  0.4347500000000  0.4969200000000  0.4331320000000 1.0
C      1  0.5685200000000  0.4949420000000  0.5591780000000 1.0
C      1  0.4914920000000  0.4734150000000  0.6061250000000 1.0
C      1  0.5100940000000  0.5284570000000  0.3954190000000 1.0
C      1  0.4935620000000  0.4509810000000  0.4444990000000 1.0
C      1  0.5044530000000  0.5495580000000  0.5568000000000 1.0
C      1  0.5795020000000  0.4209840000000  0.4810760000000 1.0
C      1  0.4186080000000  0.5778790000000  0.5188340000000 1.0
C      1  0.4001300000000  0.5070940000000  0.5484470000000 1.0
C      1  0.6006580000000  0.4888650000000  0.4514850000000 1.0
C      1  0.4870450000000  0.4810300000000  0.4450470000000 1.0
C      1  0.5119530000000  0.5191750000000  0.5550540000000 1.0
C      1  0.4645340000000  0.4984080000000  0.4576290000000 1.0
C      1  0.5339340000000  0.4997910000000  0.5417100000000 1.0
C      1  0.4688230000000  0.5528540000000  0.4854220000000 1.0
C      1  0.5305310000000  0.4455560000000  0.5160210000000 1.0
C      1  0.4235420000000  0.4654600000000  0.4632900000000 1.0
C      1  0.5758070000000  0.5352810000000  0.5408650000000 1.0
C      1  0.5064130000000  0.5879810000000  0.4337030000000 1.0
C      1  0.4956770000000  0.4123210000000  0.5648500000000 1.0
C      1  0.4901400000000  0.5430950000000  0.4131940000000 1.0
C      1  0.5115450000000  0.4591650000000  0.5878430000000 1.0
C      1  0.5037600000000  0.4591720000000  0.5495050000000 1.0
C      1  0.4934390000000  0.5392030000000  0.4519380000000 1.0
C      1  0.5667150000000  0.5373210000000  0.5712160000000 1.0
C      1  0.4280040000000  0.4662120000000  0.4318350000000 1.0
C      1  0.4849100000000  0.4789550000000  0.5586960000000 1.0
C      1  0.5137170000000  0.5210080000000  0.4432570000000 1.0
C      1  0.5546680000000  0.4542740000000  0.5692840000000 1.0
C      1  0.4442840000000  0.5504740000000  0.4229830000000 1.0
C      1  0.5195770000000  0.4190660000000  0.4272520000000 1.0
C      1  0.4778890000000  0.5823480000000  0.5732230000000 1.0
C      1  0.4878620000000  0.5731750000000  0.4149900000000 1.0
C      1  0.5139460000000  0.4299010000000  0.5808580000000 1.0
C      1  0.5353340000000  0.4695120000000  0.4593010000000 1.0
C      1  0.4613570000000  0.5325880000000  0.5427720000000 1.0
C      1  0.4669610000000  0.5991180000000  0.5175680000000 1.0
C      1  0.5311620000000  0.3993110000000  0.4814060000000 1.0
C      1  0.4021220000000  0.5310800000000  0.5058270000000 1.0
C      1  0.5967750000000  0.4681450000000  0.4930360000000 1.0
END
