TITL C-3577082-504-260 -7.71335737725304e-07 125000 -558.698605799886 0 0 91 (C1) n - 1
REM
REM in /home/bkarasulu/work/CARBON/AIRSS/Generating-Clusters/EDIP-Nigel-Params/with-SteepDescent/Higher-Symm/SD-CG/HFTN-CG
REM
REM
REM
REM
REM
REM ./C.cell (12c818d87b63d06a65506943cc24bca4)
REM
REM compiler GCC version 9.2.1 20190827 (Red Hat 9.2.1-1)
REM options -cpp -mtune=generic -march=x86-64 -g -O0 -fpre-include=/usr/include/finclude/math-vector-fortran.h
REM seed 147551640 -763637628 -115590715 -128587691 -364674803 -200267665 1406399645 -1090894190 1091938055 -1468277537 1490886864 -741019954 -320574930 -2112839345 835762586 -1788435990 -1962129165 1982266552 -2108177543 85968003 -1265391637 -748890917 66837218 1316677991 -1935633595 1162689277 -1435253166 -1658687346 1029220345 1440470545 -1442927319 -2073931098 -1461466953
REM
CELL 1.54180   50.00000   50.00000   50.00000   90.00000   90.00000   90.00000
LATT -1
SFAC C  
C      1  0.5685230000000  0.5396240000000  0.4738540000000 1.0
C      1  0.4309830000000  0.5393600000000  0.4736280000000 1.0
C      1  0.5016990000000  0.4194220000000  0.4722570000000 1.0
C      1  0.4321530000000  0.5361910000000  0.5317920000000 1.0
C      1  0.5021490000000  0.4217060000000  0.5308570000000 1.0
C      1  0.5646710000000  0.5387030000000  0.5323150000000 1.0
C      1  0.4490570000000  0.4551680000000  0.5486240000000 1.0
C      1  0.5661010000000  0.4733580000000  0.5483380000000 1.0
C      1  0.4891550000000  0.5725610000000  0.5485680000000 1.0
C      1  0.5541030000000  0.4286470000000  0.5214540000000 1.0
C      1  0.5346160000000  0.5818870000000  0.5221950000000 1.0
C      1  0.4132650000000  0.4878030000000  0.5246040000000 1.0
C      1  0.4765450000000  0.4172130000000  0.4863870000000 1.0
C      1  0.5817600000000  0.5183180000000  0.4880440000000 1.0
C      1  0.4432680000000  0.5607370000000  0.4885960000000 1.0
C      1  0.4673210000000  0.5360640000000  0.4614010000000 1.0
C      1  0.4845670000000  0.4518140000000  0.4603670000000 1.0
C      1  0.5484010000000  0.5094900000000  0.4605830000000 1.0
C      1  0.5640720000000  0.4897450000000  0.5222580000000 1.0
C      1  0.4763190000000  0.5625420000000  0.5237870000000 1.0
C      1  0.4616840000000  0.4466510000000  0.5216650000000 1.0
C      1  0.4881470000000  0.5566360000000  0.5720980000000 1.0
C      1  0.4679980000000  0.4670470000000  0.5696950000000 1.0
C      1  0.5454750000000  0.4791470000000  0.5681140000000 1.0
C      1  0.5242810000000  0.4672130000000  0.4692270000000 1.0
C      1  0.5159050000000  0.5363100000000  0.4706190000000 1.0
C      1  0.4612290000000  0.4938080000000  0.4706090000000 1.0
C      1  0.4834620000000  0.5216750000000  0.5075100000000 1.0
C      1  0.4880040000000  0.4719330000000  0.5076560000000 1.0
C      1  0.5292410000000  0.5014140000000  0.5081490000000 1.0
C      1  0.5503610000000  0.4276260000000  0.4739130000000 1.0
C      1  0.5375940000000  0.5779600000000  0.4754040000000 1.0
C      1  0.4170530000000  0.4950580000000  0.4672270000000 1.0
C      1  0.4766050000000  0.4214700000000  0.5165520000000 1.0
C      1  0.5773830000000  0.5161160000000  0.5180800000000 1.0
C      1  0.4475550000000  0.5574880000000  0.5181720000000 1.0
C      1  0.4895290000000  0.5695370000000  0.4976450000000 1.0
C      1  0.4463410000000  0.4532870000000  0.4962740000000 1.0
C      1  0.5658260000000  0.4737430000000  0.4961700000000 1.0
C      1  0.5586090000000  0.5619470000000  0.4877130000000 1.0
C      1  0.4179760000000  0.5173570000000  0.4856860000000 1.0
C      1  0.5259840000000  0.4169310000000  0.4862210000000 1.0
C      1  0.5192090000000  0.5186170000000  0.4172670000000 1.0
C      1  0.4717010000000  0.5104350000000  0.4165080000000 1.0
C      1  0.5041490000000  0.4737460000000  0.4182860000000 1.0
C      1  0.4212900000000  0.5144760000000  0.5151010000000 1.0
C      1  0.5264450000000  0.4216970000000  0.5146200000000 1.0
C      1  0.5541690000000  0.5606070000000  0.5160500000000 1.0
C      1  0.5255370000000  0.4980310000000  0.4768110000000 1.0
C      1  0.4887080000000  0.5212940000000  0.4772300000000 1.0
C      1  0.4869690000000  0.4772590000000  0.4768660000000 1.0
C      1  0.5168510000000  0.4753720000000  0.5642620000000 1.0
C      1  0.5075190000000  0.5366040000000  0.5671950000000 1.0
C      1  0.4692760000000  0.4969680000000  0.5683480000000 1.0
C      1  0.5575170000000  0.5350260000000  0.5596230000000 1.0
C      1  0.4363770000000  0.5330020000000  0.5595590000000 1.0
C      1  0.4992380000000  0.4305000000000  0.5576480000000 1.0
C      1  0.4754700000000  0.5355080000000  0.4317480000000 1.0
C      1  0.4799720000000  0.4611790000000  0.4314820000000 1.0
C      1  0.5418780000000  0.5026430000000  0.4308510000000 1.0
C      1  0.4694010000000  0.4961920000000  0.5161780000000 1.0
C      1  0.5184460000000  0.4725260000000  0.5152410000000 1.0
C      1  0.5123510000000  0.5270880000000  0.5162180000000 1.0
C      1  0.4067380000000  0.4716070000000  0.5027760000000 1.0
C      1  0.5703150000000  0.4297220000000  0.4965710000000 1.0
C      1  0.5259040000000  0.5947570000000  0.4971240000000 1.0
C      1  0.4978670000000  0.5977870000000  0.4967480000000 1.0
C      1  0.4179810000000  0.4469060000000  0.4976400000000 1.0
C      1  0.5865100000000  0.4528550000000  0.4967320000000 1.0
C      1  0.5352370000000  0.5350470000000  0.5768300000000 1.0
C      1  0.4498920000000  0.5165860000000  0.5775550000000 1.0
C      1  0.4954440000000  0.4551640000000  0.5717090000000 1.0
C      1  0.5218190000000  0.5440490000000  0.5412380000000 1.0
C      1  0.4523160000000  0.4985800000000  0.5425920000000 1.0
C      1  0.5262410000000  0.4573230000000  0.5407960000000 1.0
C      1  0.5045240000000  0.5427890000000  0.4281750000000 1.0
C      1  0.4557070000000  0.4778980000000  0.4274590000000 1.0
C      1  0.5337340000000  0.4736050000000  0.4265040000000 1.0
C      1  0.5373550000000  0.4587300000000  0.4939600000000 1.0
C      1  0.5166300000000  0.5516490000000  0.4958400000000 1.0
C      1  0.4460260000000  0.4850090000000  0.4952360000000 1.0
C      1  0.5160450000000  0.5827380000000  0.5443170000000 1.0
C      1  0.4247500000000  0.4722270000000  0.5467190000000 1.0
C      1  0.5626600000000  0.4444890000000  0.5442500000000 1.0
C      1  0.4404710000000  0.4856400000000  0.4512730000000 1.0
C      1  0.5411110000000  0.4554430000000  0.4481500000000 1.0
C      1  0.5170610000000  0.5568470000000  0.4499520000000 1.0
C      1  0.4694450000000  0.5646380000000  0.4750800000000 1.0
C      1  0.4597480000000  0.4382920000000  0.4735300000000 1.0
C      1  0.5721060000000  0.4937300000000  0.4740640000000 1.0
C      1  0.4977410000000  0.5004370000000  0.4075950000000 1.0
END
