TITL C-3577083-591-538 4.59374105624724e-07 125000 -484.862176932318 0 0 78 (C1) n - 1
REM
REM in /home/bkarasulu/work/CARBON/AIRSS/Generating-Clusters/EDIP-Nigel-Params/with-SteepDescent/Higher-Symm/SD-CG/HFTN-CG
REM
REM
REM
REM
REM
REM ./C.cell (12c818d87b63d06a65506943cc24bca4)
REM
REM compiler GCC version 9.2.1 20190827 (Red Hat 9.2.1-1)
REM options -cpp -mtune=generic -march=x86-64 -g -O0 -fpre-include=/usr/include/finclude/math-vector-fortran.h
REM seed 616308591 -1015860936 -429507683 -485395219 -899806335 1239896700 1711964848 -2116201127 -853147782 1032580342 -1208375829 248356545 19254106 2125197449 1249186766 -986616503 -1995893663 1186225921 219443025 1475400233 443536002 -840122793 -1943190969 -917892997 1514064636 -308470041 -1299383124 1599189320 1379358781 1375199571 -1724464663 1129441429 54850837
REM
CELL 1.54180   50.00000   50.00000   50.00000   90.00000   90.00000   90.00000
LATT -1
SFAC C  
C      1  0.5538780000000  0.5338780000000  0.5081040000000 1.0
C      1  0.5440770000000  0.5218840000000  0.5646220000000 1.0
C      1  0.4938190000000  0.4322210000000  0.5069220000000 1.0
C      1  0.4451640000000  0.4718170000000  0.4821530000000 1.0
C      1  0.4248300000000  0.4580410000000  0.4652770000000 1.0
C      1  0.4569800000000  0.5066060000000  0.4456820000000 1.0
C      1  0.4754300000000  0.5505070000000  0.4488660000000 1.0
C      1  0.4164120000000  0.4993420000000  0.5134580000000 1.0
C      1  0.4284010000000  0.4525920000000  0.5258090000000 1.0
C      1  0.4568910000000  0.4372610000000  0.4692950000000 1.0
C      1  0.4356170000000  0.5585870000000  0.4795810000000 1.0
C      1  0.5071680000000  0.4214910000000  0.5291130000000 1.0
C      1  0.4151360000000  0.5462120000000  0.4679810000000 1.0
C      1  0.5296310000000  0.5299440000000  0.4588380000000 1.0
C      1  0.5906720000000  0.4994710000000  0.5278100000000 1.0
C      1  0.5076960000000  0.5536230000000  0.5628040000000 1.0
C      1  0.5199560000000  0.5586160000000  0.4644650000000 1.0
C      1  0.4894260000000  0.5240660000000  0.5119930000000 1.0
C      1  0.4634220000000  0.4982990000000  0.4745510000000 1.0
C      1  0.4952950000000  0.5733860000000  0.5177780000000 1.0
C      1  0.5641450000000  0.4397850000000  0.5202770000000 1.0
C      1  0.5148190000000  0.4958590000000  0.4244820000000 1.0
C      1  0.5032500000000  0.4509140000000  0.5646930000000 1.0
C      1  0.5891240000000  0.4844330000000  0.5035620000000 1.0
C      1  0.4425340000000  0.5447210000000  0.5254730000000 1.0
C      1  0.5102580000000  0.5065820000000  0.4966910000000 1.0
C      1  0.4645880000000  0.4302740000000  0.4992910000000 1.0
C      1  0.4512730000000  0.4568120000000  0.5085710000000 1.0
C      1  0.5880260000000  0.5276590000000  0.5257860000000 1.0
C      1  0.5460600000000  0.4733330000000  0.5038360000000 1.0
C      1  0.4526590000000  0.5580590000000  0.5014780000000 1.0
C      1  0.4501350000000  0.5035760000000  0.5520850000000 1.0
C      1  0.5281680000000  0.4558730000000  0.4652620000000 1.0
C      1  0.5433080000000  0.4948470000000  0.4323050000000 1.0
C      1  0.5178850000000  0.4828130000000  0.5150850000000 1.0
C      1  0.5312270000000  0.5731280000000  0.4853670000000 1.0
C      1  0.5407410000000  0.4470910000000  0.4900060000000 1.0
C      1  0.5371160000000  0.5504080000000  0.5254730000000 1.0
C      1  0.5550110000000  0.5212100000000  0.4425030000000 1.0
C      1  0.5553210000000  0.4754350000000  0.5548400000000 1.0
C      1  0.5814760000000  0.5422660000000  0.5030630000000 1.0
C      1  0.4571900000000  0.4830880000000  0.4303620000000 1.0
C      1  0.5811060000000  0.4857960000000  0.5502420000000 1.0
C      1  0.4786290000000  0.5251960000000  0.4384020000000 1.0
C      1  0.4027140000000  0.4737260000000  0.4727150000000 1.0
C      1  0.5904400000000  0.4990130000000  0.4773400000000 1.0
C      1  0.5012420000000  0.4718590000000  0.4198290000000 1.0
C      1  0.4950480000000  0.4948590000000  0.4716620000000 1.0
C      1  0.4052360000000  0.5218320000000  0.4714560000000 1.0
C      1  0.4133530000000  0.4746840000000  0.5255730000000 1.0
C      1  0.4871480000000  0.5659770000000  0.5459980000000 1.0
C      1  0.5366930000000  0.5178220000000  0.4862690000000 1.0
C      1  0.4722710000000  0.4757220000000  0.5188340000000 1.0
C      1  0.5455180000000  0.4780070000000  0.4568880000000 1.0
C      1  0.4098470000000  0.4982420000000  0.4849450000000 1.0
C      1  0.4803730000000  0.4492490000000  0.4556190000000 1.0
C      1  0.5354550000000  0.4957540000000  0.5609020000000 1.0
C      1  0.4609880000000  0.5502000000000  0.5490320000000 1.0
C      1  0.4700320000000  0.5239040000000  0.5596100000000 1.0
C      1  0.4655610000000  0.5045430000000  0.5076230000000 1.0
C      1  0.5206600000000  0.4376430000000  0.5476350000000 1.0
C      1  0.5465280000000  0.4505520000000  0.5414640000000 1.0
C      1  0.4970690000000  0.4621120000000  0.5044810000000 1.0
C      1  0.5044030000000  0.5120020000000  0.4473950000000 1.0
C      1  0.4962940000000  0.5224170000000  0.5430370000000 1.0
C      1  0.4413450000000  0.5137230000000  0.5240160000000 1.0
C      1  0.5101680000000  0.4937980000000  0.5454960000000 1.0
C      1  0.5245930000000  0.5730020000000  0.5126650000000 1.0
C      1  0.5524610000000  0.4924870000000  0.4812830000000 1.0
C      1  0.5325720000000  0.5445540000000  0.5531540000000 1.0
C      1  0.4822960000000  0.5537840000000  0.4992100000000 1.0
C      1  0.4629910000000  0.4774400000000  0.5555100000000 1.0
C      1  0.5793290000000  0.5162430000000  0.4571810000000 1.0
C      1  0.4914250000000  0.4751930000000  0.5588320000000 1.0
C      1  0.4912670000000  0.5586790000000  0.4701870000000 1.0
C      1  0.5002160000000  0.4645950000000  0.4725020000000 1.0
C      1  0.5838590000000  0.4566120000000  0.5076850000000 1.0
C      1  0.4766630000000  0.4627690000000  0.4297380000000 1.0
END
