TITL C-3577076-40-381 2.01400251915101e-07 125000 -1067.79262215498 0 0 168 (C1) n - 1
REM
REM in /home/bkarasulu/work/CARBON/AIRSS/Generating-Clusters/EDIP-Nigel-Params/with-SteepDescent/Higher-Symm/SD-CG/HFTN-CG
REM
REM
REM
REM
REM
REM ./C.cell (12c818d87b63d06a65506943cc24bca4)
REM
REM compiler GCC version 9.2.1 20190827 (Red Hat 9.2.1-1)
REM options -cpp -mtune=generic -march=x86-64 -g -O0 -fpre-include=/usr/include/finclude/math-vector-fortran.h
REM seed -1708291643 1027524742 404371682 -1959486185 1681233613 362334591 -2074095817 1617905293 -1976272686 30375503 -400643626 -837407301 1195597498 1586525322 1259870387 -1287225976 1262984673 353911487 964967899 -1564661793 779387631 -1608716984 -985533792 -1180251414 1692358109 -1870401144 1515517141 -1334446291 -1099694612 1310812666 -1081063634 -1350604627 156887226
REM
CELL 1.54180   50.00000   50.00000   50.00000   90.00000   90.00000   90.00000
LATT -1
SFAC C  
C      1  0.5456040000000  0.5275530000000  0.5026950000000 1.0
C      1  0.5474710000000  0.5081300000000  0.4783370000000 1.0
C      1  0.5392070000000  0.4818590000000  0.4898020000000 1.0
C      1  0.5365030000000  0.4838820000000  0.5179570000000 1.0
C      1  0.5454070000000  0.5097960000000  0.5295420000000 1.0
C      1  0.4557520000000  0.5245230000000  0.5029360000000 1.0
C      1  0.4554580000000  0.5057740000000  0.4782970000000 1.0
C      1  0.4645200000000  0.4795500000000  0.4898570000000 1.0
C      1  0.4669440000000  0.4815260000000  0.5185170000000 1.0
C      1  0.4559030000000  0.5072910000000  0.5289630000000 1.0
C      1  0.5728020000000  0.4789020000000  0.4295200000000 1.0
C      1  0.5755550000000  0.4293350000000  0.4927910000000 1.0
C      1  0.5683360000000  0.4784330000000  0.5653980000000 1.0
C      1  0.5730500000000  0.5557940000000  0.5466450000000 1.0
C      1  0.5692690000000  0.5563240000000  0.4602790000000 1.0
C      1  0.4290520000000  0.4788420000000  0.4301500000000 1.0
C      1  0.4274930000000  0.4300730000000  0.4934650000000 1.0
C      1  0.4330650000000  0.4779470000000  0.5659020000000 1.0
C      1  0.4286670000000  0.5561190000000  0.5471650000000 1.0
C      1  0.4326420000000  0.5562420000000  0.4604610000000 1.0
C      1  0.4754470000000  0.4579510000000  0.4732620000000 1.0
C      1  0.4739690000000  0.4589890000000  0.5356270000000 1.0
C      1  0.4753160000000  0.5188280000000  0.5485760000000 1.0
C      1  0.4778930000000  0.5446340000000  0.5000890000000 1.0
C      1  0.4740520000000  0.5126300000000  0.4542360000000 1.0
C      1  0.5273640000000  0.4596730000000  0.4753910000000 1.0
C      1  0.5247940000000  0.4630120000000  0.5333880000000 1.0
C      1  0.5244210000000  0.5180860000000  0.5497020000000 1.0
C      1  0.5229560000000  0.5479340000000  0.4986540000000 1.0
C      1  0.5288260000000  0.5125740000000  0.4529680000000 1.0
C      1  0.5679620000000  0.4511510000000  0.5549870000000 1.0
C      1  0.5722080000000  0.5393480000000  0.5701990000000 1.0
C      1  0.5706760000000  0.5743660000000  0.4826870000000 1.0
C      1  0.5726980000000  0.5059550000000  0.4174820000000 1.0
C      1  0.5699390000000  0.4278390000000  0.4639290000000 1.0
C      1  0.4317050000000  0.4503180000000  0.5568450000000 1.0
C      1  0.4305380000000  0.5384910000000  0.5699140000000 1.0
C      1  0.4325790000000  0.5733900000000  0.4836670000000 1.0
C      1  0.4295460000000  0.5060620000000  0.4186030000000 1.0
C      1  0.4308290000000  0.4265260000000  0.4644410000000 1.0
C      1  0.4854330000000  0.3857460000000  0.5237350000000 1.0
C      1  0.4858720000000  0.4864220000000  0.6183970000000 1.0
C      1  0.4862400000000  0.6058920000000  0.5495930000000 1.0
C      1  0.4860890000000  0.5788800000000  0.4139220000000 1.0
C      1  0.4857410000000  0.4423400000000  0.3987540000000 1.0
C      1  0.5157110000000  0.3868260000000  0.5237080000000 1.0
C      1  0.5156930000000  0.4861200000000  0.6180550000000 1.0
C      1  0.5162040000000  0.6060490000000  0.5494280000000 1.0
C      1  0.5157870000000  0.5788320000000  0.4136530000000 1.0
C      1  0.5158200000000  0.4425330000000  0.3990690000000 1.0
C      1  0.6086690000000  0.5125060000000  0.5486530000000 1.0
C      1  0.6011790000000  0.5224190000000  0.5224560000000 1.0
C      1  0.5852370000000  0.5130090000000  0.4740140000000 1.0
C      1  0.6043440000000  0.4713320000000  0.4666900000000 1.0
C      1  0.6024900000000  0.4740520000000  0.4946630000000 1.0
C      1  0.3931130000000  0.5127080000000  0.5489640000000 1.0
C      1  0.4007760000000  0.5225770000000  0.5227500000000 1.0
C      1  0.4177400000000  0.5125670000000  0.4747190000000 1.0
C      1  0.3976330000000  0.4715670000000  0.4674730000000 1.0
C      1  0.3992250000000  0.4739820000000  0.4954890000000 1.0
C      1  0.5304160000000  0.5887850000000  0.5284290000000 1.0
C      1  0.5298960000000  0.5531720000000  0.4227370000000 1.0
C      1  0.5303980000000  0.4430090000000  0.4259180000000 1.0
C      1  0.5290850000000  0.4128420000000  0.5315280000000 1.0
C      1  0.5292220000000  0.5015850000000  0.5957680000000 1.0
C      1  0.4722330000000  0.5887640000000  0.5287640000000 1.0
C      1  0.4723570000000  0.5532360000000  0.4226620000000 1.0
C      1  0.4710980000000  0.4428610000000  0.4253660000000 1.0
C      1  0.4706260000000  0.4111920000000  0.5315710000000 1.0
C      1  0.4717150000000  0.5019520000000  0.5959920000000 1.0
C      1  0.5160680000000  0.5634020000000  0.5230450000000 1.0
C      1  0.5162670000000  0.5383790000000  0.4454250000000 1.0
C      1  0.5170280000000  0.4618090000000  0.4468600000000 1.0
C      1  0.5142420000000  0.4377060000000  0.5203000000000 1.0
C      1  0.5142060000000  0.4979160000000  0.5687980000000 1.0
C      1  0.4868780000000  0.5616550000000  0.5254090000000 1.0
C      1  0.4865770000000  0.5397450000000  0.4472030000000 1.0
C      1  0.4853000000000  0.4616010000000  0.4459600000000 1.0
C      1  0.4846110000000  0.4359940000000  0.5220980000000 1.0
C      1  0.4851840000000  0.5000410000000  0.5692370000000 1.0
C      1  0.5289720000000  0.5317560000000  0.6017890000000 1.0
C      1  0.5295460000000  0.6030010000000  0.5010100000000 1.0
C      1  0.5287470000000  0.5335030000000  0.3990990000000 1.0
C      1  0.5269290000000  0.4156180000000  0.4387650000000 1.0
C      1  0.5273780000000  0.4159610000000  0.5614710000000 1.0
C      1  0.4735260000000  0.5322060000000  0.6023590000000 1.0
C      1  0.4744930000000  0.6016610000000  0.5012590000000 1.0
C      1  0.4739680000000  0.5331300000000  0.4000280000000 1.0
C      1  0.4728680000000  0.4148160000000  0.4379390000000 1.0
C      1  0.4713820000000  0.4145020000000  0.5624580000000 1.0
C      1  0.5895460000000  0.5498610000000  0.5238930000000 1.0
C      1  0.5878110000000  0.5348610000000  0.4552390000000 1.0
C      1  0.5933410000000  0.4629380000000  0.4425320000000 1.0
C      1  0.5885770000000  0.4507640000000  0.5079230000000 1.0
C      1  0.5718690000000  0.5026300000000  0.5481270000000 1.0
C      1  0.4123600000000  0.5500710000000  0.5242920000000 1.0
C      1  0.4143840000000  0.5343920000000  0.4560300000000 1.0
C      1  0.4084310000000  0.4630810000000  0.4432940000000 1.0
C      1  0.4128860000000  0.4504120000000  0.5087420000000 1.0
C      1  0.4294840000000  0.5014850000000  0.5479470000000 1.0
C      1  0.4846370000000  0.3828150000000  0.4928090000000 1.0
C      1  0.4844020000000  0.4554700000000  0.6133800000000 1.0
C      1  0.4854040000000  0.5913270000000  0.5773280000000 1.0
C      1  0.4852500000000  0.6007420000000  0.4366320000000 1.0
C      1  0.4853100000000  0.4713780000000  0.3858870000000 1.0
C      1  0.5169720000000  0.3842630000000  0.4930270000000 1.0
C      1  0.5163240000000  0.4552820000000  0.6116820000000 1.0
C      1  0.5174510000000  0.5920250000000  0.5774270000000 1.0
C      1  0.5172170000000  0.6013430000000  0.4355350000000 1.0
C      1  0.5162500000000  0.4713020000000  0.3858280000000 1.0
C      1  0.5341850000000  0.5853610000000  0.4555910000000 1.0
C      1  0.5323510000000  0.4853010000000  0.4074770000000 1.0
C      1  0.5336320000000  0.4093490000000  0.4861270000000 1.0
C      1  0.5331000000000  0.4567930000000  0.5852290000000 1.0
C      1  0.5340190000000  0.5672570000000  0.5697590000000 1.0
C      1  0.4682470000000  0.5837320000000  0.4565630000000 1.0
C      1  0.4693290000000  0.4853570000000  0.4078140000000 1.0
C      1  0.4684480000000  0.4074810000000  0.4849790000000 1.0
C      1  0.4673490000000  0.4554220000000  0.5878030000000 1.0
C      1  0.4680540000000  0.5667310000000  0.5691530000000 1.0
C      1  0.5519890000000  0.4807420000000  0.5894750000000 1.0
C      1  0.5518850000000  0.5753770000000  0.5464870000000 1.0
C      1  0.5526530000000  0.5665730000000  0.4390270000000 1.0
C      1  0.5523340000000  0.4638070000000  0.4161590000000 1.0
C      1  0.5554580000000  0.4132490000000  0.5073690000000 1.0
C      1  0.4506030000000  0.4804500000000  0.5889120000000 1.0
C      1  0.4484810000000  0.5773370000000  0.5476420000000 1.0
C      1  0.4484510000000  0.5667720000000  0.4385250000000 1.0
C      1  0.4491870000000  0.4637650000000  0.4163640000000 1.0
C      1  0.4486700000000  0.4145700000000  0.5072970000000 1.0
C      1  0.5169620000000  0.4352900000000  0.4900730000000 1.0
C      1  0.5158740000000  0.4684550000000  0.5619130000000 1.0
C      1  0.5137500000000  0.5440620000000  0.5622710000000 1.0
C      1  0.5139970000000  0.5701140000000  0.4757500000000 1.0
C      1  0.5172570000000  0.4907140000000  0.4344610000000 1.0
C      1  0.4884830000000  0.4310720000000  0.4789990000000 1.0
C      1  0.4874420000000  0.4564680000000  0.5631620000000 1.0
C      1  0.4851370000000  0.5475520000000  0.5517120000000 1.0
C      1  0.4850420000000  0.5606940000000  0.4687070000000 1.0
C      1  0.4846220000000  0.4909820000000  0.4348020000000 1.0
C      1  0.5880270000000  0.5681990000000  0.5031710000000 1.0
C      1  0.5872920000000  0.5267490000000  0.4286060000000 1.0
C      1  0.5872240000000  0.4357290000000  0.4435150000000 1.0
C      1  0.5872190000000  0.4460640000000  0.5353950000000 1.0
C      1  0.5950470000000  0.5218680000000  0.5723170000000 1.0
C      1  0.4141940000000  0.5682200000000  0.5034850000000 1.0
C      1  0.4141700000000  0.5264820000000  0.4293330000000 1.0
C      1  0.4139160000000  0.4357870000000  0.4443050000000 1.0
C      1  0.4133720000000  0.4455510000000  0.5362570000000 1.0
C      1  0.4073850000000  0.5215480000000  0.5724550000000 1.0
C      1  0.5486100000000  0.4344000000000  0.5720270000000 1.0
C      1  0.5502160000000  0.5492220000000  0.5889030000000 1.0
C      1  0.5499350000000  0.5958120000000  0.4800370000000 1.0
C      1  0.5475230000000  0.5100430000000  0.4011850000000 1.0
C      1  0.5469880000000  0.4102540000000  0.4594770000000 1.0
C      1  0.4501730000000  0.4329690000000  0.5743710000000 1.0
C      1  0.4526750000000  0.5487420000000  0.5883890000000 1.0
C      1  0.4540580000000  0.5939960000000  0.4811380000000 1.0
C      1  0.4545880000000  0.5103220000000  0.4020830000000 1.0
C      1  0.4529470000000  0.4080010000000  0.4589590000000 1.0
C      1  0.4997630000000  0.4107510000000  0.4488350000000 1.0
C      1  0.5018930000000  0.6033910000000  0.4901880000000 1.0
C      1  0.5014230000000  0.5425340000000  0.5981970000000 1.0
C      1  0.5012300000000  0.5278900000000  0.3926930000000 1.0
C      1  0.4994450000000  0.4218920000000  0.5713320000000 1.0
C      1  0.5979780000000  0.5038040000000  0.4986960000000 1.0
C      1  0.4045560000000  0.5036430000000  0.4992490000000 1.0
C      1  0.5015630000000  0.5283870000000  0.4966270000000 1.0
END
