TITL C-3577078-809-101 3.19393066115653e-06 125000 -482.441933013864 0 0 79 (C1) n - 1
REM
REM in /home/bkarasulu/work/CARBON/AIRSS/Generating-Clusters/EDIP-Nigel-Params/with-SteepDescent/Higher-Symm/SD-CG/HFTN-CG
REM
REM
REM
REM
REM
REM ./C.cell (12c818d87b63d06a65506943cc24bca4)
REM
REM compiler GCC version 9.2.1 20190827 (Red Hat 9.2.1-1)
REM options -cpp -mtune=generic -march=x86-64 -g -O0 -fpre-include=/usr/include/finclude/math-vector-fortran.h
REM seed -1272947029 -903646718 1898272138 -1934318509 -633690405 -787592212 717209124 -194606556 -827662538 447036652 -1448156278 -507007498 1706405729 1054485102 -1134601257 1519040285 -1992102513 922343944 -104060363 -337599931 -1232343404 1039855770 1817351206 807788862 -2100880239 -1746818901 -157125166 -384715312 -1511366193 558201410 1873220399 -1928449904 183164921
REM
CELL 1.54180   50.00000   50.00000   50.00000   90.00000   90.00000   90.00000
LATT -1
SFAC C  
C      1  0.5113970000000  0.5305030000000  0.5885200000000 1.0
C      1  0.5207930000000  0.5810710000000  0.5287470000000 1.0
C      1  0.5146250000000  0.5774490000000  0.4561450000000 1.0
C      1  0.5217340000000  0.5070520000000  0.4185100000000 1.0
C      1  0.5115840000000  0.4380830000000  0.4286090000000 1.0
C      1  0.5219850000000  0.4105870000000  0.5013440000000 1.0
C      1  0.5214520000000  0.4579660000000  0.5694100000000 1.0
C      1  0.5015790000000  0.5249640000000  0.4278290000000 1.0
C      1  0.4923190000000  0.4590550000000  0.4244980000000 1.0
C      1  0.4971540000000  0.4163550000000  0.4871280000000 1.0
C      1  0.4996800000000  0.4473460000000  0.5534730000000 1.0
C      1  0.4921090000000  0.5087970000000  0.5879740000000 1.0
C      1  0.4993810000000  0.5686870000000  0.5436900000000 1.0
C      1  0.4945790000000  0.5829070000000  0.4760720000000 1.0
C      1  0.5674160000000  0.5339320000000  0.5037240000000 1.0
C      1  0.5751460000000  0.5259990000000  0.4781650000000 1.0
C      1  0.5686140000000  0.5004840000000  0.4689520000000 1.0
C      1  0.5795460000000  0.4800220000000  0.4844330000000 1.0
C      1  0.5671210000000  0.4714910000000  0.5080870000000 1.0
C      1  0.5661000000000  0.4928530000000  0.5297650000000 1.0
C      1  0.5781020000000  0.5172610000000  0.5233220000000 1.0
C      1  0.5090940000000  0.5642770000000  0.5697490000000 1.0
C      1  0.5001540000000  0.5660430000000  0.4997620000000 1.0
C      1  0.5121650000000  0.5509060000000  0.4280250000000 1.0
C      1  0.5008860000000  0.4826890000000  0.4402800000000 1.0
C      1  0.5042050000000  0.4163720000000  0.4597470000000 1.0
C      1  0.5079160000000  0.4274030000000  0.5338480000000 1.0
C      1  0.4990300000000  0.4894800000000  0.5665470000000 1.0
C      1  0.4671230000000  0.5745820000000  0.4707230000000 1.0
C      1  0.4723540000000  0.5214050000000  0.4263610000000 1.0
C      1  0.4644370000000  0.4545920000000  0.4327910000000 1.0
C      1  0.4674360000000  0.4205810000000  0.4934970000000 1.0
C      1  0.4703230000000  0.4497520000000  0.5578860000000 1.0
C      1  0.4638660000000  0.5146990000000  0.5807800000000 1.0
C      1  0.4700070000000  0.5710230000000  0.5391200000000 1.0
C      1  0.5308120000000  0.5670130000000  0.5050590000000 1.0
C      1  0.5275070000000  0.5507680000000  0.4532610000000 1.0
C      1  0.5314670000000  0.4881510000000  0.4383500000000 1.0
C      1  0.5252910000000  0.4367880000000  0.4549070000000 1.0
C      1  0.5337320000000  0.4319910000000  0.5175650000000 1.0
C      1  0.5302080000000  0.4857820000000  0.5658090000000 1.0
C      1  0.5269750000000  0.5410640000000  0.5651530000000 1.0
C      1  0.5377640000000  0.5380090000000  0.5055340000000 1.0
C      1  0.5251130000000  0.5267370000000  0.4745990000000 1.0
C      1  0.5392030000000  0.4979330000000  0.4655790000000 1.0
C      1  0.5267830000000  0.4621940000000  0.4736340000000 1.0
C      1  0.5391510000000  0.4594760000000  0.5035690000000 1.0
C      1  0.5375390000000  0.4969660000000  0.5385860000000 1.0
C      1  0.5256860000000  0.5267120000000  0.5362200000000 1.0
C      1  0.4487830000000  0.4908710000000  0.5807010000000 1.0
C      1  0.4555500000000  0.5581060000000  0.5591150000000 1.0
C      1  0.4507250000000  0.5814030000000  0.4925120000000 1.0
C      1  0.4590230000000  0.5437080000000  0.4354800000000 1.0
C      1  0.4492500000000  0.4764520000000  0.4238970000000 1.0
C      1  0.4530350000000  0.4259650000000  0.4702200000000 1.0
C      1  0.4564870000000  0.4326010000000  0.5408880000000 1.0
C      1  0.4476270000000  0.4742220000000  0.4789240000000 1.0
C      1  0.4458040000000  0.4681990000000  0.5077210000000 1.0
C      1  0.4450110000000  0.4873580000000  0.5309180000000 1.0
C      1  0.4477480000000  0.5169810000000  0.5314680000000 1.0
C      1  0.4445220000000  0.5348330000000  0.5084370000000 1.0
C      1  0.4511450000000  0.5262110000000  0.4809360000000 1.0
C      1  0.4448580000000  0.5010050000000  0.4668380000000 1.0
C      1  0.4906500000000  0.4532720000000  0.5104050000000 1.0
C      1  0.4864850000000  0.4971110000000  0.5387730000000 1.0
C      1  0.4945720000000  0.5262190000000  0.5322850000000 1.0
C      1  0.4874560000000  0.5371140000000  0.5036360000000 1.0
C      1  0.4949320000000  0.5211950000000  0.4773310000000 1.0
C      1  0.4869250000000  0.4907130000000  0.4681630000000 1.0
C      1  0.4954280000000  0.4597410000000  0.4785900000000 1.0
C      1  0.4617020000000  0.4430590000000  0.5143360000000 1.0
C      1  0.4583690000000  0.4777070000000  0.5568100000000 1.0
C      1  0.4627040000000  0.5303970000000  0.5547470000000 1.0
C      1  0.4586980000000  0.5618770000000  0.5122040000000 1.0
C      1  0.4672670000000  0.5451650000000  0.4631980000000 1.0
C      1  0.4602530000000  0.4977310000000  0.4404690000000 1.0
C      1  0.4631250000000  0.4523950000000  0.4631650000000 1.0
C      1  0.5248830000000  0.4812510000000  0.5177190000000 1.0
C      1  0.4972150000000  0.4810420000000  0.5173630000000 1.0
END
