TITL C-3578198-8939-158 5.62869489273155e-07 125000 -547.764789918678 0 0 89 (C1) n - 1
REM
REM in /home/bkarasulu/work/CARBON/AIRSS/Generating-Clusters/EDIP-Nigel-Params/with-SteepDescent/Higher-Symm/SD-CG/HFTN-CG
REM
REM
REM
REM
REM
REM ./C.cell (12c818d87b63d06a65506943cc24bca4)
REM
REM compiler GCC version 9.2.1 20190827 (Red Hat 9.2.1-1)
REM options -cpp -mtune=generic -march=x86-64 -g -O0 -fpre-include=/usr/include/finclude/math-vector-fortran.h
REM seed -1203141624 -1979649792 -2141066376 497054168 1674897319 -960977988 -1043130106 498851342 -521743440 -1200453210 1827938297 970209530 -1362896646 -1678695368 2021304480 1921898743 -1743611523 -116042537 1204414800 -1764415104 -1603385606 1987900773 202678815 -1612119279 -763461570 -260587003 1824670152 1975111645 -524195037 1222661195 -2015876187 -792437944 -650046473
REM
CELL 1.54180   50.00000   50.00000   50.00000   90.00000   90.00000   90.00000
LATT -1
SFAC C  
C      1  0.5714400000000  0.5140630000000  0.4538770000000 1.0
C      1  0.5072040000000  0.4950790000000  0.5224510000000 1.0
C      1  0.4814490000000  0.5592440000000  0.4634580000000 1.0
C      1  0.4497740000000  0.4295450000000  0.4804240000000 1.0
C      1  0.5006220000000  0.4528570000000  0.4877650000000 1.0
C      1  0.5532770000000  0.5366150000000  0.4573920000000 1.0
C      1  0.4214240000000  0.5238200000000  0.4719300000000 1.0
C      1  0.4388170000000  0.4669440000000  0.4548540000000 1.0
C      1  0.4352290000000  0.4563100000000  0.4821770000000 1.0
C      1  0.5503030000000  0.5748660000000  0.5231480000000 1.0
C      1  0.5654410000000  0.5610340000000  0.5014380000000 1.0
C      1  0.5265360000000  0.5045660000000  0.4309930000000 1.0
C      1  0.5891120000000  0.5131600000000  0.5043500000000 1.0
C      1  0.5104620000000  0.4101110000000  0.5176250000000 1.0
C      1  0.5503540000000  0.5590130000000  0.4759900000000 1.0
C      1  0.4435520000000  0.5250700000000  0.5100860000000 1.0
C      1  0.5306200000000  0.5351820000000  0.4394370000000 1.0
C      1  0.4438360000000  0.4439530000000  0.5430990000000 1.0
C      1  0.4907930000000  0.4851100000000  0.5708520000000 1.0
C      1  0.4978390000000  0.4700920000000  0.5950290000000 1.0
C      1  0.5089430000000  0.5909200000000  0.5211450000000 1.0
C      1  0.5231260000000  0.4520620000000  0.4340970000000 1.0
C      1  0.5440190000000  0.4949710000000  0.5563880000000 1.0
C      1  0.5230660000000  0.5696410000000  0.4719440000000 1.0
C      1  0.5552430000000  0.4921050000000  0.4408990000000 1.0
C      1  0.4918900000000  0.5229760000000  0.5208070000000 1.0
C      1  0.4566140000000  0.5473740000000  0.4264490000000 1.0
C      1  0.4628940000000  0.4244580000000  0.5316360000000 1.0
C      1  0.5263830000000  0.5100460000000  0.5723990000000 1.0
C      1  0.4620390000000  0.4252140000000  0.4548260000000 1.0
C      1  0.4494200000000  0.4941140000000  0.4547310000000 1.0
C      1  0.5354410000000  0.5497090000000  0.5321380000000 1.0
C      1  0.5043770000000  0.4802070000000  0.4714380000000 1.0
C      1  0.5102500000000  0.4517730000000  0.5408340000000 1.0
C      1  0.4710260000000  0.4647290000000  0.4951550000000 1.0
C      1  0.4985010000000  0.5708270000000  0.5013090000000 1.0
C      1  0.4901370000000  0.5176760000000  0.4368940000000 1.0
C      1  0.5358920000000  0.5982260000000  0.5183650000000 1.0
C      1  0.5312060000000  0.4242780000000  0.4739160000000 1.0
C      1  0.4230920000000  0.5070360000000  0.4978420000000 1.0
C      1  0.4795370000000  0.4702140000000  0.4293010000000 1.0
C      1  0.4914580000000  0.4174630000000  0.5414520000000 1.0
C      1  0.5673550000000  0.5332870000000  0.5417200000000 1.0
C      1  0.4404800000000  0.4732810000000  0.5335140000000 1.0
C      1  0.5560080000000  0.4699560000000  0.4621850000000 1.0
C      1  0.4722960000000  0.5366060000000  0.5441070000000 1.0
C      1  0.5728070000000  0.5352710000000  0.5135080000000 1.0
C      1  0.4676750000000  0.5714540000000  0.5107270000000 1.0
C      1  0.5031850000000  0.4187760000000  0.4708790000000 1.0
C      1  0.4687380000000  0.4968100000000  0.4324400000000 1.0
C      1  0.5831170000000  0.4914700000000  0.5248390000000 1.0
C      1  0.4666280000000  0.5013680000000  0.5743250000000 1.0
C      1  0.5576400000000  0.4787770000000  0.5128760000000 1.0
C      1  0.4991190000000  0.5777590000000  0.5468700000000 1.0
C      1  0.5531030000000  0.4897870000000  0.4852020000000 1.0
C      1  0.4599020000000  0.4510990000000  0.4428020000000 1.0
C      1  0.4663760000000  0.4215540000000  0.5027070000000 1.0
C      1  0.4690770000000  0.4675410000000  0.5249220000000 1.0
C      1  0.4722980000000  0.5663410000000  0.5397620000000 1.0
C      1  0.4446320000000  0.4984880000000  0.5530400000000 1.0
C      1  0.5366320000000  0.4485510000000  0.4583720000000 1.0
C      1  0.4275000000000  0.4776300000000  0.5051890000000 1.0
C      1  0.4548560000000  0.5596070000000  0.4518740000000 1.0
C      1  0.5358880000000  0.4917250000000  0.5288240000000 1.0
C      1  0.4872410000000  0.4482440000000  0.5826740000000 1.0
C      1  0.5373680000000  0.4216030000000  0.5034990000000 1.0
C      1  0.4916070000000  0.4098380000000  0.4954520000000 1.0
C      1  0.5073900000000  0.4761710000000  0.4401670000000 1.0
C      1  0.4453740000000  0.5245090000000  0.5394930000000 1.0
C      1  0.5218100000000  0.4525620000000  0.5125380000000 1.0
C      1  0.5091440000000  0.5323390000000  0.5721370000000 1.0
C      1  0.5875130000000  0.5050910000000  0.4765650000000 1.0
C      1  0.5144130000000  0.5594950000000  0.4452840000000 1.0
C      1  0.5121510000000  0.5433800000000  0.5091650000000 1.0
C      1  0.4366350000000  0.5497410000000  0.4737110000000 1.0
C      1  0.5185280000000  0.5561260000000  0.5560790000000 1.0
C      1  0.4705270000000  0.4929790000000  0.4803030000000 1.0
C      1  0.4254980000000  0.5100950000000  0.4483060000000 1.0
C      1  0.5033160000000  0.4335160000000  0.5645540000000 1.0
C      1  0.4796780000000  0.5283410000000  0.5713860000000 1.0
C      1  0.5177620000000  0.5301150000000  0.4808960000000 1.0
C      1  0.4710250000000  0.5180350000000  0.4985880000000 1.0
C      1  0.5231910000000  0.4994570000000  0.4870990000000 1.0
C      1  0.4932220000000  0.4755790000000  0.5408670000000 1.0
C      1  0.5719440000000  0.5055080000000  0.5506850000000 1.0
C      1  0.4897010000000  0.5302450000000  0.4665090000000 1.0
C      1  0.4812420000000  0.5382470000000  0.4184710000000 1.0
C      1  0.5540150000000  0.4480500000000  0.5139530000000 1.0
C      1  0.4417560000000  0.5609390000000  0.5005900000000 1.0
END
