TITL C-3577086-586-497 1.8521878789113e-06 125000 -585.388023253075 0 0 95 (C1) n - 1
REM
REM in /home/bkarasulu/work/CARBON/AIRSS/Generating-Clusters/EDIP-Nigel-Params/with-SteepDescent/Higher-Symm/SD-CG/HFTN-CG
REM
REM
REM
REM
REM
REM ./C.cell (12c818d87b63d06a65506943cc24bca4)
REM
REM compiler GCC version 9.2.1 20190827 (Red Hat 9.2.1-1)
REM options -cpp -mtune=generic -march=x86-64 -g -O0 -fpre-include=/usr/include/finclude/math-vector-fortran.h
REM seed -461900680 -1668516660 888785324 885975864 -1140425699 -771246604 371181318 50528628 719294581 -568404551 1339270875 245589180 -2086025504 1381737838 881837045 1502602641 104661690 175425751 843872466 636507674 -1128975674 759332707 1796152783 -157353001 400756357 619707578 -676985198 682182425 1335296053 1182970876 529427690 -54176378 -1212113590
REM
CELL 1.54180   50.00000   50.00000   50.00000   90.00000   90.00000   90.00000
LATT -1
SFAC C  
C      1  0.4634750000000  0.5185620000000  0.4937160000000 1.0
C      1  0.4713050000000  0.4944210000000  0.4770680000000 1.0
C      1  0.4786800000000  0.4697610000000  0.4948810000000 1.0
C      1  0.5146850000000  0.4750650000000  0.4831120000000 1.0
C      1  0.5400820000000  0.4958830000000  0.4863450000000 1.0
C      1  0.5253680000000  0.5270700000000  0.4894030000000 1.0
C      1  0.4920790000000  0.5360460000000  0.4978570000000 1.0
C      1  0.4673160000000  0.5246170000000  0.5736850000000 1.0
C      1  0.4529820000000  0.4991510000000  0.5749520000000 1.0
C      1  0.4709330000000  0.4758820000000  0.5755740000000 1.0
C      1  0.5196830000000  0.4709460000000  0.5752700000000 1.0
C      1  0.5426270000000  0.4883140000000  0.5736180000000 1.0
C      1  0.5359960000000  0.5159580000000  0.5717990000000 1.0
C      1  0.4977400000000  0.5217430000000  0.5708900000000 1.0
C      1  0.4096410000000  0.5076660000000  0.5174430000000 1.0
C      1  0.4409600000000  0.4440430000000  0.5201440000000 1.0
C      1  0.5100210000000  0.4249340000000  0.5219190000000 1.0
C      1  0.5751750000000  0.4567700000000  0.5165910000000 1.0
C      1  0.5789630000000  0.5260010000000  0.5160120000000 1.0
C      1  0.5258220000000  0.5744120000000  0.5202100000000 1.0
C      1  0.4536470000000  0.5650410000000  0.5202950000000 1.0
C      1  0.4324010000000  0.4992340000000  0.5548850000000 1.0
C      1  0.4608610000000  0.4519920000000  0.5642900000000 1.0
C      1  0.5252980000000  0.4463180000000  0.5627450000000 1.0
C      1  0.5574550000000  0.4773530000000  0.5519140000000 1.0
C      1  0.5540920000000  0.5306940000000  0.5570800000000 1.0
C      1  0.5090400000000  0.5481470000000  0.5588990000000 1.0
C      1  0.4510150000000  0.5445060000000  0.5617250000000 1.0
C      1  0.5046400000000  0.5701690000000  0.4728370000000 1.0
C      1  0.4426230000000  0.5492700000000  0.4707280000000 1.0
C      1  0.4234720000000  0.4850960000000  0.4706630000000 1.0
C      1  0.4658680000000  0.4348560000000  0.4747150000000 1.0
C      1  0.5289090000000  0.4340800000000  0.4743320000000 1.0
C      1  0.5768450000000  0.4800050000000  0.4688700000000 1.0
C      1  0.5624920000000  0.5402540000000  0.4702260000000 1.0
C      1  0.5716560000000  0.4584670000000  0.4878390000000 1.0
C      1  0.5810550000000  0.5258200000000  0.4868400000000 1.0
C      1  0.5261000000000  0.5709220000000  0.4913720000000 1.0
C      1  0.4572520000000  0.5624820000000  0.4916810000000 1.0
C      1  0.4214360000000  0.5060530000000  0.4908800000000 1.0
C      1  0.4433010000000  0.4437200000000  0.4911030000000 1.0
C      1  0.5103580000000  0.4213460000000  0.4930540000000 1.0
C      1  0.5400460000000  0.4833660000000  0.5176740000000 1.0
C      1  0.5362590000000  0.5156520000000  0.5193650000000 1.0
C      1  0.5066080000000  0.5249830000000  0.5279320000000 1.0
C      1  0.4726110000000  0.5266770000000  0.5299640000000 1.0
C      1  0.4526030000000  0.5026230000000  0.5218300000000 1.0
C      1  0.4694070000000  0.4779670000000  0.5221330000000 1.0
C      1  0.5122590000000  0.4680240000000  0.5158750000000 1.0
C      1  0.5226290000000  0.4787800000000  0.4162790000000 1.0
C      1  0.5364670000000  0.5046810000000  0.4085320000000 1.0
C      1  0.5199280000000  0.5309070000000  0.4082200000000 1.0
C      1  0.4888230000000  0.5296620000000  0.4125670000000 1.0
C      1  0.4669500000000  0.5077490000000  0.4133960000000 1.0
C      1  0.4692520000000  0.4771850000000  0.4117640000000 1.0
C      1  0.4967660000000  0.4635070000000  0.4116120000000 1.0
C      1  0.5390740000000  0.4645090000000  0.4357410000000 1.0
C      1  0.5582130000000  0.5078960000000  0.4298270000000 1.0
C      1  0.5302760000000  0.5482060000000  0.4308660000000 1.0
C      1  0.4814050000000  0.5497930000000  0.4333020000000 1.0
C      1  0.4479100000000  0.5145630000000  0.4354830000000 1.0
C      1  0.4540200000000  0.4663000000000  0.4353450000000 1.0
C      1  0.4960660000000  0.4432310000000  0.4339680000000 1.0
C      1  0.5498640000000  0.5612680000000  0.4820700000000 1.0
C      1  0.4800430000000  0.5747440000000  0.4832580000000 1.0
C      1  0.4240470000000  0.5314130000000  0.4802320000000 1.0
C      1  0.4232030000000  0.4587030000000  0.4790470000000 1.0
C      1  0.4847800000000  0.4165640000000  0.4836470000000 1.0
C      1  0.5556810000000  0.4374370000000  0.4799300000000 1.0
C      1  0.5917480000000  0.5023420000000  0.4763770000000 1.0
C      1  0.5909080000000  0.5033800000000  0.5268640000000 1.0
C      1  0.5513850000000  0.5668850000000  0.5287240000000 1.0
C      1  0.4766150000000  0.5752990000000  0.5325880000000 1.0
C      1  0.4153660000000  0.5330750000000  0.5290430000000 1.0
C      1  0.4195360000000  0.4597110000000  0.5288430000000 1.0
C      1  0.4846760000000  0.4232630000000  0.5334970000000 1.0
C      1  0.5579240000000  0.4376810000000  0.5280630000000 1.0
C      1  0.4145700000000  0.4861620000000  0.5368430000000 1.0
C      1  0.4617650000000  0.4379850000000  0.5399400000000 1.0
C      1  0.5317780000000  0.4352590000000  0.5378770000000 1.0
C      1  0.5803020000000  0.4788750000000  0.5348670000000 1.0
C      1  0.5654640000000  0.5437930000000  0.5354140000000 1.0
C      1  0.5031490000000  0.5677030000000  0.5379940000000 1.0
C      1  0.4363510000000  0.5499500000000  0.5380920000000 1.0
C      1  0.4700530000000  0.4451320000000  0.4475490000000 1.0
C      1  0.5206350000000  0.4470020000000  0.4499430000000 1.0
C      1  0.5573740000000  0.4841270000000  0.4476210000000 1.0
C      1  0.5534240000000  0.5339010000000  0.4431640000000 1.0
C      1  0.5064250000000  0.5570410000000  0.4469250000000 1.0
C      1  0.4584080000000  0.5385370000000  0.4484720000000 1.0
C      1  0.4477680000000  0.4897960000000  0.4534290000000 1.0
C      1  0.4945270000000  0.4833650000000  0.5340330000000 1.0
C      1  0.4993950000000  0.5013140000000  0.4719840000000 1.0
C      1  0.5023030000000  0.5040990000000  0.4460640000000 1.0
C      1  0.4965630000000  0.4867540000000  0.5640220000000 1.0
END
