TITL C-3578203-1966-529 -6.8273933553541e-09 125000 -204.656216576947 0 0 33 (D3) n - 1
REM
REM in /home/bkarasulu/work/CARBON/AIRSS/Generating-Clusters/EDIP-Nigel-Params/with-SteepDescent/Higher-Symm/SD-CG/HFTN-CG
REM
REM
REM
REM
REM
REM ./C.cell (12c818d87b63d06a65506943cc24bca4)
REM
REM compiler GCC version 9.2.1 20190827 (Red Hat 9.2.1-1)
REM options -cpp -mtune=generic -march=x86-64 -g -O0 -fpre-include=/usr/include/finclude/math-vector-fortran.h
REM seed 646627140 -924972180 -556921155 -884404758 -671845536 829403538 -347946396 2065350479 -1499386848 -156899538 -876197655 -1519227063 210508589 1150819904 -2019078890 355024432 -488421094 1251282509 -1670830751 -846066613 396004256 -256340124 717208442 -1971412994 -221787217 -749943470 1218778271 -1963399688 -961073150 -1508362106 1760232992 -1581936596 -1448738441
REM
CELL 1.54180   50.00000   50.00000   50.00000   90.00000   90.00000   90.00000
LATT -1
SFAC C  
C      1  0.4991350000000  0.4711350000000  0.4630150000000 1.0
C      1  0.4684030000000  0.4711340000000  0.5192410000000 1.0
C      1  0.5324620000000  0.4711340000000  0.5177430000000 1.0
C      1  0.4991350000000  0.5290350000000  0.5369850000000 1.0
C      1  0.4684030000000  0.5290360000000  0.4807590000000 1.0
C      1  0.5324620000000  0.5290360000000  0.4822570000000 1.0
C      1  0.5524950000000  0.5089590000000  0.4771870000000 1.0
C      1  0.4539960000000  0.5089590000000  0.4659450000000 1.0
C      1  0.4935090000000  0.5089580000000  0.5568690000000 1.0
C      1  0.5524950000000  0.4912110000000  0.5228130000000 1.0
C      1  0.4539960000000  0.4912110000000  0.5340550000000 1.0
C      1  0.4935090000000  0.4912130000000  0.4431310000000 1.0
C      1  0.4885210000000  0.5441170000000  0.4683600000000 1.0
C      1  0.4783380000000  0.5441160000000  0.5257620000000 1.0
C      1  0.5331410000000  0.5441160000000  0.5058800000000 1.0
C      1  0.4885210000000  0.4560540000000  0.5316400000000 1.0
C      1  0.4783380000000  0.4560550000000  0.4742380000000 1.0
C      1  0.5331410000000  0.4560540000000  0.4941200000000 1.0
C      1  0.5133330000000  0.4669950000000  0.5387120000000 1.0
C      1  0.5268600000000  0.4669960000000  0.4690970000000 1.0
C      1  0.4598080000000  0.4669960000000  0.4921900000000 1.0
C      1  0.5133330000000  0.5331750000000  0.4612880000000 1.0
C      1  0.5268600000000  0.5331740000000  0.5309030000000 1.0
C      1  0.4598080000000  0.5331750000000  0.5078100000000 1.0
C      1  0.5125360000000  0.5119850000000  0.4426660000000 1.0
C      1  0.4440790000000  0.5119830000000  0.5178110000000 1.0
C      1  0.5433850000000  0.5119830000000  0.5395240000000 1.0
C      1  0.5125360000000  0.4881860000000  0.5573340000000 1.0
C      1  0.4440790000000  0.4881870000000  0.4821890000000 1.0
C      1  0.5433850000000  0.4881880000000  0.4604760000000 1.0
C      1  0.5661850000000  0.5000850000000  0.5000000000000 1.0
C      1  0.4669080000000  0.5000840000000  0.5573180000000 1.0
C      1  0.4669070000000  0.5000860000000  0.4426820000000 1.0
END
