TITL C-3578198-8939-79 -5.37838081164343e-06 125000 -964.411524339067 0 0 156 (C1) n - 1
REM
REM in /home/bkarasulu/work/CARBON/AIRSS/Generating-Clusters/EDIP-Nigel-Params/with-SteepDescent/Higher-Symm/SD-CG/HFTN-CG
REM
REM
REM
REM
REM
REM ./C.cell (12c818d87b63d06a65506943cc24bca4)
REM
REM compiler GCC version 9.2.1 20190827 (Red Hat 9.2.1-1)
REM options -cpp -mtune=generic -march=x86-64 -g -O0 -fpre-include=/usr/include/finclude/math-vector-fortran.h
REM seed 837904166 1100236108 -83956464 -1158933158 303624536 -1491897513 -872013759 616205670 933939400 -2019703228 -1565799588 563174548 -1018881296 -1406368563 821238575 38562860 -167298315 -1057176714 -1419743925 1279339996 155319451 -1776623284 -538998543 -965814300 1525119100 1973190135 1053914156 1351218655 -652285438 -1834752299 -299091427 335170141 1499614693
REM
CELL 1.54180   50.00000   50.00000   50.00000   90.00000   90.00000   90.00000
LATT -1
SFAC C  
C      1  0.4255560000000  0.4831290000000  0.4419460000000 1.0
C      1  0.4281870000000  0.5149490000000  0.4422210000000 1.0
C      1  0.5180860000000  0.5279740000000  0.5373860000000 1.0
C      1  0.5153660000000  0.4725910000000  0.5335620000000 1.0
C      1  0.4446130000000  0.5212540000000  0.5385710000000 1.0
C      1  0.4456710000000  0.4770020000000  0.5368770000000 1.0
C      1  0.4191710000000  0.4314160000000  0.5058570000000 1.0
C      1  0.4207430000000  0.5712270000000  0.4991590000000 1.0
C      1  0.5306120000000  0.4065560000000  0.5079370000000 1.0
C      1  0.5320910000000  0.5978530000000  0.5032870000000 1.0
C      1  0.5289400000000  0.5734330000000  0.5455840000000 1.0
C      1  0.5334270000000  0.4363590000000  0.5492890000000 1.0
C      1  0.3989680000000  0.4859000000000  0.4849340000000 1.0
C      1  0.4003300000000  0.5154600000000  0.4855000000000 1.0
C      1  0.5200990000000  0.5988030000000  0.5296140000000 1.0
C      1  0.5159830000000  0.4050150000000  0.5339290000000 1.0
C      1  0.4876390000000  0.5942350000000  0.4685980000000 1.0
C      1  0.4859810000000  0.4056620000000  0.4688920000000 1.0
C      1  0.4518980000000  0.4369420000000  0.5881070000000 1.0
C      1  0.4559100000000  0.5597800000000  0.5905020000000 1.0
C      1  0.5963680000000  0.4834620000000  0.4403550000000 1.0
C      1  0.5961630000000  0.5158540000000  0.4398280000000 1.0
C      1  0.3986480000000  0.4728080000000  0.5103230000000 1.0
C      1  0.3999280000000  0.5278370000000  0.5112980000000 1.0
C      1  0.5361660000000  0.5543520000000  0.4954350000000 1.0
C      1  0.5311000000000  0.4478640000000  0.4923880000000 1.0
C      1  0.5373010000000  0.4860070000000  0.5198170000000 1.0
C      1  0.5310480000000  0.5137740000000  0.5146750000000 1.0
C      1  0.5360460000000  0.4669570000000  0.4466230000000 1.0
C      1  0.5352330000000  0.5334700000000  0.4495450000000 1.0
C      1  0.5167910000000  0.4223160000000  0.5689370000000 1.0
C      1  0.5077960000000  0.5731360000000  0.5698670000000 1.0
C      1  0.5123470000000  0.5153430000000  0.4379180000000 1.0
C      1  0.5128020000000  0.4878760000000  0.4512660000000 1.0
C      1  0.4756580000000  0.4179820000000  0.4202940000000 1.0
C      1  0.4768140000000  0.5769380000000  0.4216360000000 1.0
C      1  0.5808990000000  0.5144620000000  0.4129430000000 1.0
C      1  0.5814940000000  0.4843350000000  0.4125710000000 1.0
C      1  0.5717610000000  0.4392910000000  0.4690010000000 1.0
C      1  0.5733030000000  0.5629410000000  0.4677740000000 1.0
C      1  0.4361370000000  0.5143270000000  0.5101240000000 1.0
C      1  0.4357260000000  0.4839070000000  0.5085600000000 1.0
C      1  0.4529350000000  0.5552740000000  0.4842500000000 1.0
C      1  0.4545330000000  0.4441030000000  0.4842920000000 1.0
C      1  0.4396080000000  0.5643190000000  0.5447850000000 1.0
C      1  0.4268300000000  0.4375470000000  0.5431580000000 1.0
C      1  0.5566390000000  0.5713560000000  0.4442080000000 1.0
C      1  0.5579690000000  0.4288450000000  0.4441640000000 1.0
C      1  0.4574960000000  0.4365780000000  0.4344120000000 1.0
C      1  0.4566450000000  0.5587090000000  0.4317670000000 1.0
C      1  0.5872990000000  0.5325280000000  0.5145120000000 1.0
C      1  0.5868890000000  0.4720840000000  0.5147010000000 1.0
C      1  0.4824670000000  0.5784860000000  0.5545560000000 1.0
C      1  0.4754840000000  0.4235210000000  0.5534630000000 1.0
C      1  0.4608240000000  0.4642720000000  0.5796050000000 1.0
C      1  0.4509010000000  0.5317130000000  0.5809130000000 1.0
C      1  0.5380760000000  0.4760900000000  0.4916710000000 1.0
C      1  0.5521120000000  0.5284480000000  0.4979260000000 1.0
C      1  0.5550760000000  0.5535150000000  0.4224170000000 1.0
C      1  0.5583710000000  0.4438430000000  0.4206830000000 1.0
C      1  0.4596280000000  0.4740430000000  0.4905780000000 1.0
C      1  0.4578880000000  0.5253000000000  0.4894900000000 1.0
C      1  0.4544140000000  0.5779100000000  0.5675220000000 1.0
C      1  0.4452980000000  0.4220540000000  0.5626000000000 1.0
C      1  0.4413890000000  0.4150600000000  0.5149530000000 1.0
C      1  0.4418710000000  0.5798390000000  0.5184930000000 1.0
C      1  0.4008560000000  0.5154590000000  0.5376870000000 1.0
C      1  0.4004110000000  0.4842130000000  0.5368790000000 1.0
C      1  0.4872960000000  0.5567870000000  0.5114660000000 1.0
C      1  0.4810370000000  0.4420890000000  0.5129210000000 1.0
C      1  0.5732430000000  0.4454600000000  0.5188030000000 1.0
C      1  0.5744170000000  0.5604110000000  0.5190300000000 1.0
C      1  0.5339140000000  0.6112560000000  0.4600440000000 1.0
C      1  0.5339750000000  0.3907510000000  0.4644270000000 1.0
C      1  0.4471180000000  0.4852870000000  0.5917740000000 1.0
C      1  0.4552000000000  0.5101560000000  0.6005490000000 1.0
C      1  0.4892150000000  0.5980100000000  0.4376970000000 1.0
C      1  0.4892020000000  0.3991380000000  0.4386060000000 1.0
C      1  0.5110770000000  0.4847340000000  0.3961560000000 1.0
C      1  0.5115580000000  0.5128260000000  0.4049450000000 1.0
C      1  0.4623580000000  0.5139900000000  0.4609830000000 1.0
C      1  0.4636090000000  0.4845700000000  0.4614870000000 1.0
C      1  0.4932210000000  0.4493500000000  0.4622210000000 1.0
C      1  0.4941930000000  0.5476130000000  0.4684250000000 1.0
C      1  0.5929520000000  0.4859700000000  0.4898530000000 1.0
C      1  0.5938590000000  0.5165380000000  0.4893300000000 1.0
C      1  0.5553640000000  0.5162460000000  0.5781620000000 1.0
C      1  0.5537920000000  0.4873490000000  0.5765810000000 1.0
C      1  0.5132360000000  0.4103080000000  0.4265060000000 1.0
C      1  0.5138360000000  0.5890410000000  0.4248520000000 1.0
C      1  0.5117860000000  0.4821930000000  0.5634230000000 1.0
C      1  0.5136530000000  0.5140590000000  0.5648650000000 1.0
C      1  0.4654420000000  0.5133420000000  0.4080330000000 1.0
C      1  0.4635890000000  0.4837680000000  0.4070710000000 1.0
C      1  0.4840580000000  0.5097360000000  0.6092450000000 1.0
C      1  0.4935630000000  0.4807170000000  0.6100740000000 1.0
C      1  0.5665950000000  0.5319190000000  0.5563530000000 1.0
C      1  0.5699630000000  0.4722860000000  0.5581540000000 1.0
C      1  0.5182600000000  0.5936900000000  0.4772000000000 1.0
C      1  0.5165540000000  0.4072440000000  0.4806660000000 1.0
C      1  0.5553440000000  0.5280200000000  0.4111500000000 1.0
C      1  0.5561490000000  0.4695080000000  0.4101600000000 1.0
C      1  0.5597970000000  0.5596780000000  0.5454250000000 1.0
C      1  0.5623910000000  0.4454100000000  0.5467260000000 1.0
C      1  0.5169190000000  0.5552910000000  0.5221750000000 1.0
C      1  0.5120560000000  0.4453520000000  0.5178140000000 1.0
C      1  0.4782720000000  0.5651840000000  0.6069010000000 1.0
C      1  0.4758410000000  0.4239350000000  0.5976050000000 1.0
C      1  0.5353660000000  0.5236560000000  0.3923870000000 1.0
C      1  0.5360050000000  0.4735220000000  0.3908400000000 1.0
C      1  0.4995580000000  0.4364590000000  0.5880450000000 1.0
C      1  0.5002320000000  0.5551230000000  0.5923870000000 1.0
C      1  0.5352710000000  0.5281420000000  0.5937450000000 1.0
C      1  0.5358540000000  0.4731910000000  0.5927020000000 1.0
C      1  0.5213030000000  0.4418070000000  0.4639300000000 1.0
C      1  0.5223260000000  0.5561960000000  0.4676270000000 1.0
C      1  0.4910720000000  0.4656340000000  0.5842080000000 1.0
C      1  0.4926340000000  0.5271810000000  0.5842140000000 1.0
C      1  0.4873560000000  0.5274140000000  0.4493230000000 1.0
C      1  0.4880200000000  0.4733860000000  0.4488490000000 1.0
C      1  0.5602580000000  0.5729960000000  0.4952880000000 1.0
C      1  0.5572430000000  0.4314220000000  0.4964520000000 1.0
C      1  0.4207150000000  0.4676280000000  0.5524420000000 1.0
C      1  0.4222020000000  0.5308000000000  0.5549230000000 1.0
C      1  0.5389070000000  0.5943620000000  0.4384730000000 1.0
C      1  0.5376350000000  0.4074070000000  0.4421720000000 1.0
C      1  0.4872770000000  0.5253180000000  0.3949050000000 1.0
C      1  0.4862610000000  0.4720560000000  0.3954140000000 1.0
C      1  0.5850990000000  0.4877550000000  0.5388830000000 1.0
C      1  0.5843510000000  0.5171450000000  0.5390690000000 1.0
C      1  0.4169570000000  0.4710090000000  0.4678620000000 1.0
C      1  0.4135840000000  0.5307270000000  0.4639980000000 1.0
C      1  0.5547420000000  0.5175640000000  0.4678320000000 1.0
C      1  0.5551230000000  0.4839230000000  0.4662660000000 1.0
C      1  0.4493270000000  0.4678560000000  0.4289270000000 1.0
C      1  0.4475520000000  0.5307310000000  0.4238090000000 1.0
C      1  0.4243850000000  0.5579840000000  0.4724160000000 1.0
C      1  0.4248300000000  0.4435610000000  0.4790160000000 1.0
C      1  0.5215500000000  0.4855660000000  0.6144200000000 1.0
C      1  0.5223770000000  0.5144270000000  0.6147900000000 1.0
C      1  0.4731550000000  0.5216760000000  0.5482060000000 1.0
C      1  0.4767380000000  0.4904750000000  0.5392140000000 1.0
C      1  0.4725060000000  0.5853180000000  0.5090210000000 1.0
C      1  0.4710400000000  0.4130280000000  0.5101600000000 1.0
C      1  0.4674410000000  0.4508490000000  0.5379960000000 1.0
C      1  0.4757490000000  0.5521960000000  0.5386760000000 1.0
C      1  0.5131710000000  0.4891000000000  0.4814330000000 1.0
C      1  0.5103380000000  0.5151730000000  0.4931230000000 1.0
C      1  0.4831990000000  0.5182470000000  0.5055860000000 1.0
C      1  0.4828720000000  0.4857950000000  0.5085350000000 1.0
C      1  0.4858360000000  0.4029440000000  0.5339030000000 1.0
C      1  0.4889850000000  0.5981860000000  0.5316160000000 1.0
C      1  0.5824530000000  0.4710380000000  0.4657020000000 1.0
C      1  0.5827180000000  0.5299740000000  0.4642870000000 1.0
C      1  0.4729970000000  0.5667500000000  0.4643120000000 1.0
C      1  0.4708120000000  0.4322070000000  0.4621370000000 1.0
END
