TITL C-3577090-796-474 -2.76089353244776e-06 125000 -374.330816533469 0 0 61 (C1) n - 1
REM
REM in /home/bkarasulu/work/CARBON/AIRSS/Generating-Clusters/EDIP-Nigel-Params/with-SteepDescent/Higher-Symm/SD-CG/HFTN-CG
REM
REM
REM
REM
REM
REM ./C.cell (12c818d87b63d06a65506943cc24bca4)
REM
REM compiler GCC version 9.2.1 20190827 (Red Hat 9.2.1-1)
REM options -cpp -mtune=generic -march=x86-64 -g -O0 -fpre-include=/usr/include/finclude/math-vector-fortran.h
REM seed -127183980 1888245402 2003272316 -823464266 1959720771 -1156750491 727931056 133852204 -921553393 1413532061 741675488 -165493862 2092921676 -390081069 -1563558490 2087604216 -1686137544 -355690624 -118923838 2136854154 353182620 -1864263275 375850003 -390813189 -882274451 624230084 1514297552 889589730 -1228690273 -1122095930 1672165053 844830427 904658882
REM
CELL 1.54180   50.00000   50.00000   50.00000   90.00000   90.00000   90.00000
LATT -1
SFAC C  
C      1  0.5370010000000  0.5014490000000  0.5702660000000 1.0
C      1  0.4476150000000  0.5174470000000  0.5284780000000 1.0
C      1  0.4987160000000  0.5194750000000  0.5835200000000 1.0
C      1  0.4674120000000  0.4649540000000  0.5432350000000 1.0
C      1  0.5147350000000  0.4659290000000  0.5436880000000 1.0
C      1  0.5240800000000  0.5455230000000  0.5224060000000 1.0
C      1  0.4672090000000  0.4854320000000  0.5636310000000 1.0
C      1  0.5303220000000  0.4576850000000  0.4940420000000 1.0
C      1  0.4577720000000  0.4440460000000  0.5006690000000 1.0
C      1  0.5178550000000  0.4782170000000  0.5709030000000 1.0
C      1  0.4610910000000  0.4913670000000  0.4291700000000 1.0
C      1  0.5564010000000  0.4644790000000  0.5025130000000 1.0
C      1  0.5491220000000  0.5297720000000  0.5299930000000 1.0
C      1  0.4829820000000  0.5320990000000  0.5619950000000 1.0
C      1  0.5088130000000  0.4385620000000  0.5439230000000 1.0
C      1  0.4963120000000  0.4819850000000  0.5240410000000 1.0
C      1  0.5556150000000  0.4870830000000  0.4645440000000 1.0
C      1  0.4439900000000  0.4948180000000  0.5099400000000 1.0
C      1  0.4950170000000  0.5521550000000  0.5419800000000 1.0
C      1  0.5305230000000  0.5681110000000  0.5030650000000 1.0
C      1  0.5147880000000  0.5079120000000  0.4322250000000 1.0
C      1  0.5125880000000  0.5090590000000  0.4807210000000 1.0
C      1  0.5706700000000  0.4873790000000  0.5379210000000 1.0
C      1  0.5498690000000  0.5046730000000  0.5442650000000 1.0
C      1  0.5586700000000  0.5336260000000  0.4815860000000 1.0
C      1  0.4286540000000  0.4814510000000  0.4647720000000 1.0
C      1  0.4607090000000  0.5127140000000  0.5541490000000 1.0
C      1  0.4552350000000  0.4679890000000  0.5176450000000 1.0
C      1  0.4919060000000  0.4901560000000  0.5810250000000 1.0
C      1  0.4415970000000  0.4587170000000  0.4550770000000 1.0
C      1  0.5312120000000  0.4450540000000  0.4662900000000 1.0
C      1  0.4939130000000  0.4241770000000  0.5269950000000 1.0
C      1  0.5394310000000  0.5203690000000  0.4383660000000 1.0
C      1  0.5035010000000  0.4363650000000  0.4586350000000 1.0
C      1  0.4731920000000  0.5597620000000  0.5227390000000 1.0
C      1  0.4563020000000  0.5204860000000  0.4696230000000 1.0
C      1  0.4490720000000  0.5450330000000  0.5236780000000 1.0
C      1  0.4663980000000  0.5152540000000  0.4425690000000 1.0
C      1  0.4913100000000  0.4203280000000  0.4785400000000 1.0
C      1  0.4701410000000  0.5628240000000  0.4526720000000 1.0
C      1  0.5155540000000  0.5677790000000  0.4611440000000 1.0
C      1  0.4462940000000  0.4412320000000  0.4756710000000 1.0
C      1  0.5400350000000  0.4683240000000  0.4494400000000 1.0
C      1  0.5034100000000  0.5282980000000  0.5050600000000 1.0
C      1  0.5262830000000  0.5245150000000  0.5826180000000 1.0
C      1  0.5422280000000  0.5127790000000  0.4668090000000 1.0
C      1  0.4366500000000  0.5021750000000  0.4820430000000 1.0
C      1  0.5766560000000  0.4689070000000  0.5195340000000 1.0
C      1  0.4854410000000  0.5530830000000  0.4967020000000 1.0
C      1  0.5059940000000  0.5736040000000  0.4879650000000 1.0
C      1  0.5476190000000  0.5601860000000  0.4804770000000 1.0
C      1  0.4923620000000  0.4611070000000  0.4474170000000 1.0
C      1  0.4911640000000  0.5121810000000  0.5292810000000 1.0
C      1  0.4649140000000  0.4655750000000  0.4384510000000 1.0
C      1  0.4951830000000  0.5228030000000  0.4485380000000 1.0
C      1  0.4636720000000  0.5483770000000  0.4762510000000 1.0
C      1  0.5092130000000  0.4804670000000  0.4957440000000 1.0
C      1  0.4793640000000  0.4251620000000  0.5034100000000 1.0
C      1  0.5146400000000  0.4784220000000  0.4380120000000 1.0
C      1  0.5657190000000  0.5281120000000  0.5079030000000 1.0
C      1  0.4958640000000  0.5529970000000  0.4460360000000 1.0
END
