TITL C-3578209-2550-633 6.60865205231536e-07 125000 -702.435526573695 0 0 114 (C1) n - 1
REM
REM in /home/bkarasulu/work/CARBON/AIRSS/Generating-Clusters/EDIP-Nigel-Params/with-SteepDescent/Higher-Symm/SD-CG/HFTN-CG
REM
REM
REM
REM
REM
REM ./C.cell (12c818d87b63d06a65506943cc24bca4)
REM
REM compiler GCC version 9.2.1 20190827 (Red Hat 9.2.1-1)
REM options -cpp -mtune=generic -march=x86-64 -g -O0 -fpre-include=/usr/include/finclude/math-vector-fortran.h
REM seed -571708300 -1866204935 1955432209 922106751 954444484 -1591872314 1944007147 -62072147 375114424 41770120 -2069453438 -1123702097 806843645 782280963 291591449 1239384417 -371326586 1024386805 -268211855 970248029 1677064193 -875721789 -890198576 -577116585 1169945418 -721624270 310938998 -1258775273 82765120 -2069156073 -700414967 2048988838 1534709228
REM
CELL 1.54180   50.00000   50.00000   50.00000   90.00000   90.00000   90.00000
LATT -1
SFAC C  
C      1  0.4845480000000  0.5483830000000  0.5605350000000 1.0
C      1  0.4776740000000  0.4684600000000  0.5494390000000 1.0
C      1  0.5559560000000  0.4826400000000  0.5693640000000 1.0
C      1  0.5162770000000  0.5050890000000  0.5507790000000 1.0
C      1  0.4885420000000  0.5197640000000  0.5495730000000 1.0
C      1  0.5106090000000  0.4722570000000  0.5473140000000 1.0
C      1  0.5518360000000  0.4298310000000  0.5148490000000 1.0
C      1  0.5343510000000  0.5816570000000  0.5141260000000 1.0
C      1  0.4099090000000  0.4902110000000  0.5207410000000 1.0
C      1  0.4747530000000  0.5826370000000  0.4612110000000 1.0
C      1  0.4410500000000  0.4390010000000  0.4681620000000 1.0
C      1  0.5828610000000  0.4792500000000  0.4623380000000 1.0
C      1  0.4352160000000  0.5455310000000  0.5200370000000 1.0
C      1  0.4895570000000  0.4250720000000  0.5192050000000 1.0
C      1  0.5733990000000  0.5334630000000  0.5173300000000 1.0
C      1  0.5525900000000  0.4553010000000  0.4290920000000 1.0
C      1  0.5140770000000  0.5669800000000  0.4279270000000 1.0
C      1  0.4342940000000  0.4781320000000  0.4345350000000 1.0
C      1  0.5269360000000  0.4876270000000  0.5061360000000 1.0
C      1  0.5019340000000  0.5241810000000  0.5075550000000 1.0
C      1  0.4768700000000  0.4837090000000  0.5186490000000 1.0
C      1  0.5643930000000  0.5079790000000  0.4253230000000 1.0
C      1  0.4661940000000  0.5469120000000  0.4276440000000 1.0
C      1  0.4749960000000  0.4473730000000  0.4313720000000 1.0
C      1  0.4841370000000  0.5446140000000  0.4680070000000 1.0
C      1  0.4721480000000  0.4667230000000  0.4711480000000 1.0
C      1  0.5471770000000  0.4951530000000  0.4640510000000 1.0
C      1  0.4964690000000  0.5708230000000  0.5452230000000 1.0
C      1  0.4343510000000  0.4616470000000  0.5541950000000 1.0
C      1  0.5639590000000  0.4649740000000  0.5480300000000 1.0
C      1  0.4705480000000  0.4798510000000  0.5907700000000 1.0
C      1  0.5211080000000  0.4859990000000  0.5966140000000 1.0
C      1  0.4917060000000  0.5251070000000  0.5977270000000 1.0
C      1  0.5773730000000  0.5109650000000  0.5373710000000 1.0
C      1  0.4489660000000  0.5640310000000  0.5386570000000 1.0
C      1  0.4707170000000  0.4368100000000  0.5411790000000 1.0
C      1  0.4544050000000  0.5201810000000  0.4208270000000 1.0
C      1  0.5013470000000  0.4424810000000  0.4216190000000 1.0
C      1  0.5531540000000  0.5331620000000  0.4187460000000 1.0
C      1  0.5014200000000  0.4425330000000  0.5784980000000 1.0
C      1  0.5424060000000  0.5304920000000  0.5733080000000 1.0
C      1  0.4454840000000  0.5242610000000  0.5766430000000 1.0
C      1  0.5444790000000  0.4449640000000  0.5396630000000 1.0
C      1  0.5240420000000  0.5662570000000  0.5375040000000 1.0
C      1  0.4259220000000  0.4881970000000  0.5451510000000 1.0
C      1  0.4323200000000  0.4672800000000  0.4621310000000 1.0
C      1  0.5735600000000  0.4527010000000  0.4506420000000 1.0
C      1  0.5038460000000  0.5809520000000  0.4524400000000 1.0
C      1  0.4587850000000  0.4720510000000  0.4976190000000 1.0
C      1  0.5468830000000  0.4777970000000  0.4878880000000 1.0
C      1  0.5013050000000  0.5485420000000  0.4915500000000 1.0
C      1  0.4567580000000  0.5323320000000  0.4768070000000 1.0
C      1  0.4966840000000  0.4466610000000  0.4751890000000 1.0
C      1  0.5514130000000  0.5242810000000  0.4734040000000 1.0
C      1  0.4375470000000  0.4512510000000  0.5044950000000 1.0
C      1  0.5748360000000  0.4713460000000  0.4984980000000 1.0
C      1  0.4873990000000  0.5758430000000  0.4972190000000 1.0
C      1  0.4605370000000  0.4712810000000  0.4214570000000 1.0
C      1  0.5479730000000  0.4839590000000  0.4184200000000 1.0
C      1  0.4942770000000  0.5473730000000  0.4167390000000 1.0
C      1  0.4755670000000  0.4982590000000  0.4230980000000 1.0
C      1  0.5189040000000  0.4895250000000  0.4206220000000 1.0
C      1  0.5047020000000  0.5184870000000  0.4217470000000 1.0
C      1  0.4751070000000  0.5750540000000  0.5259540000000 1.0
C      1  0.4420750000000  0.4417310000000  0.5332100000000 1.0
C      1  0.5771560000000  0.4818310000000  0.5275380000000 1.0
C      1  0.5673880000000  0.4323300000000  0.4716670000000 1.0
C      1  0.5250380000000  0.5904140000000  0.4717410000000 1.0
C      1  0.4094270000000  0.4789930000000  0.4781100000000 1.0
C      1  0.5409890000000  0.5533140000000  0.4344330000000 1.0
C      1  0.4346640000000  0.5081320000000  0.4392110000000 1.0
C      1  0.5258920000000  0.4403880000000  0.4359770000000 1.0
C      1  0.5064940000000  0.4706920000000  0.5161470000000 1.0
C      1  0.5270300000000  0.5135940000000  0.5185870000000 1.0
C      1  0.4781650000000  0.5148920000000  0.5214290000000 1.0
C      1  0.5849250000000  0.5063870000000  0.4470090000000 1.0
C      1  0.4532130000000  0.5667750000000  0.4468360000000 1.0
C      1  0.4634750000000  0.4285260000000  0.4515590000000 1.0
C      1  0.5186870000000  0.5146110000000  0.5883640000000 1.0
C      1  0.4685740000000  0.5092000000000  0.5876110000000 1.0
C      1  0.4979470000000  0.4698850000000  0.5891250000000 1.0
C      1  0.4263810000000  0.5094320000000  0.5629510000000 1.0
C      1  0.5232990000000  0.4373810000000  0.5586070000000 1.0
C      1  0.5390820000000  0.5541360000000  0.5580110000000 1.0
C      1  0.5190720000000  0.4865170000000  0.4517980000000 1.0
C      1  0.5057460000000  0.5255730000000  0.4535620000000 1.0
C      1  0.4788590000000  0.4939770000000  0.4552090000000 1.0
C      1  0.5592290000000  0.5099900000000  0.5611000000000 1.0
C      1  0.4547630000000  0.5522290000000  0.5677320000000 1.0
C      1  0.4739020000000  0.4318370000000  0.5721330000000 1.0
C      1  0.4101640000000  0.4641200000000  0.5045700000000 1.0
C      1  0.5742920000000  0.4412000000000  0.4988560000000 1.0
C      1  0.5114660000000  0.5947080000000  0.4984730000000 1.0
C      1  0.4052900000000  0.5338780000000  0.4845790000000 1.0
C      1  0.5151940000000  0.4001270000000  0.4875390000000 1.0
C      1  0.5762820000000  0.5662000000000  0.4821080000000 1.0
C      1  0.4536570000000  0.4569960000000  0.5784290000000 1.0
C      1  0.5460590000000  0.4739490000000  0.5940230000000 1.0
C      1  0.4872890000000  0.5520390000000  0.5892620000000 1.0
C      1  0.4160320000000  0.5550480000000  0.5004600000000 1.0
C      1  0.4905260000000  0.4020650000000  0.5020870000000 1.0
C      1  0.5907580000000  0.5474180000000  0.4985460000000 1.0
C      1  0.4110500000000  0.5065560000000  0.4930900000000 1.0
C      1  0.5378610000000  0.4178580000000  0.4909070000000 1.0
C      1  0.5478920000000  0.5728860000000  0.4866510000000 1.0
C      1  0.5313500000000  0.5413260000000  0.4599630000000 1.0
C      1  0.4528420000000  0.5065150000000  0.4633510000000 1.0
C      1  0.5200630000000  0.4568560000000  0.4596120000000 1.0
C      1  0.4876710000000  0.4183600000000  0.4672790000000 1.0
C      1  0.5798890000000  0.5314790000000  0.4650950000000 1.0
C      1  0.4351330000000  0.5514930000000  0.4671380000000 1.0
C      1  0.4554450000000  0.5290890000000  0.5068810000000 1.0
C      1  0.5047910000000  0.4443720000000  0.5038720000000 1.0
C      1  0.5489870000000  0.5270590000000  0.5034870000000 1.0
END
