TITL C-3577089-586-81 -1.57224727844609e-06 125000 -1122.707333481 0 0 179 (C1) n - 1
REM
REM in /home/bkarasulu/work/CARBON/AIRSS/Generating-Clusters/EDIP-Nigel-Params/with-SteepDescent/Higher-Symm/SD-CG/HFTN-CG
REM
REM
REM
REM
REM
REM ./C.cell (12c818d87b63d06a65506943cc24bca4)
REM
REM compiler GCC version 9.2.1 20190827 (Red Hat 9.2.1-1)
REM options -cpp -mtune=generic -march=x86-64 -g -O0 -fpre-include=/usr/include/finclude/math-vector-fortran.h
REM seed 1200032623 27693551 -769567052 -1660666546 1307190390 1382263542 1129115684 1147615466 -144658564 -1966904054 -49010372 -2076958809 -1083381909 -2004939581 870757037 1929061791 279554692 327644697 136520633 -129703771 1358403738 -1979915822 1706460412 623784580 -1420964294 -83726939 1569051328 633524627 1757260037 202161827 -78222037 -1188706204 -753245163
REM
CELL 1.54180   50.00000   50.00000   50.00000   90.00000   90.00000   90.00000
LATT -1
SFAC C  
C      1  0.4671570000000  0.3895320000000  0.5218530000000 1.0
C      1  0.5331590000000  0.6145900000000  0.5199880000000 1.0
C      1  0.5448170000000  0.5292850000000  0.5889580000000 1.0
C      1  0.4501120000000  0.4683230000000  0.5971480000000 1.0
C      1  0.4938940000000  0.4477420000000  0.6131700000000 1.0
C      1  0.4972200000000  0.5521160000000  0.6110110000000 1.0
C      1  0.5858390000000  0.4554430000000  0.5482570000000 1.0
C      1  0.4149070000000  0.5444740000000  0.5492840000000 1.0
C      1  0.5655750000000  0.5560540000000  0.5459200000000 1.0
C      1  0.4187880000000  0.4356840000000  0.5570610000000 1.0
C      1  0.5602970000000  0.4848970000000  0.4217350000000 1.0
C      1  0.4461970000000  0.5134540000000  0.4194230000000 1.0
C      1  0.5789140000000  0.4837370000000  0.5523900000000 1.0
C      1  0.4231310000000  0.5159340000000  0.5523400000000 1.0
C      1  0.5359590000000  0.4180150000000  0.4046470000000 1.0
C      1  0.4628600000000  0.5844210000000  0.4038190000000 1.0
C      1  0.4307730000000  0.5309190000000  0.4820170000000 1.0
C      1  0.5685360000000  0.4706380000000  0.4834490000000 1.0
C      1  0.4521760000000  0.5063970000000  0.5390740000000 1.0
C      1  0.5504210000000  0.4930060000000  0.5377780000000 1.0
C      1  0.4918700000000  0.4870840000000  0.5440020000000 1.0
C      1  0.5081800000000  0.5108830000000  0.5448530000000 1.0
C      1  0.5663620000000  0.5233650000000  0.4937870000000 1.0
C      1  0.4306360000000  0.4802830000000  0.4952310000000 1.0
C      1  0.5398760000000  0.5316230000000  0.4279600000000 1.0
C      1  0.4586830000000  0.4666360000000  0.4284110000000 1.0
C      1  0.5311760000000  0.4087630000000  0.5560290000000 1.0
C      1  0.4702800000000  0.5903990000000  0.5530740000000 1.0
C      1  0.4739120000000  0.5706740000000  0.5744810000000 1.0
C      1  0.5268790000000  0.4287180000000  0.5776170000000 1.0
C      1  0.4643740000000  0.6008740000000  0.4607930000000 1.0
C      1  0.5353550000000  0.4009560000000  0.4617630000000 1.0
C      1  0.4568400000000  0.4149120000000  0.5724250000000 1.0
C      1  0.5411150000000  0.5878930000000  0.5706470000000 1.0
C      1  0.5100610000000  0.5976790000000  0.4766180000000 1.0
C      1  0.4900540000000  0.4065910000000  0.4779090000000 1.0
C      1  0.4412840000000  0.5642290000000  0.4048330000000 1.0
C      1  0.5578840000000  0.4373820000000  0.4055270000000 1.0
C      1  0.5084720000000  0.6185600000000  0.4997610000000 1.0
C      1  0.4911860000000  0.3862140000000  0.5010790000000 1.0
C      1  0.5246780000000  0.5133310000000  0.6021820000000 1.0
C      1  0.4764140000000  0.4707890000000  0.6075880000000 1.0
C      1  0.4372500000000  0.4156060000000  0.5527490000000 1.0
C      1  0.5589950000000  0.5834240000000  0.5495350000000 1.0
C      1  0.4922560000000  0.6056050000000  0.4535970000000 1.0
C      1  0.5070980000000  0.3971950000000  0.4550040000000 1.0
C      1  0.5237290000000  0.5464070000000  0.4475860000000 1.0
C      1  0.4759870000000  0.4545320000000  0.4481140000000 1.0
C      1  0.5099600000000  0.5603040000000  0.5424070000000 1.0
C      1  0.4925730000000  0.4353560000000  0.5433560000000 1.0
C      1  0.4335660000000  0.4552720000000  0.4225720000000 1.0
C      1  0.5654510000000  0.5410780000000  0.4206600000000 1.0
C      1  0.4306480000000  0.5979230000000  0.5229090000000 1.0
C      1  0.5706590000000  0.4001000000000  0.5252610000000 1.0
C      1  0.4697110000000  0.4921740000000  0.4206820000000 1.0
C      1  0.5251770000000  0.5083750000000  0.4170930000000 1.0
C      1  0.5820730000000  0.4480790000000  0.4476660000000 1.0
C      1  0.4173910000000  0.5542720000000  0.4466570000000 1.0
C      1  0.4299600000000  0.4784060000000  0.5800330000000 1.0
C      1  0.5701020000000  0.5196930000000  0.5791380000000 1.0
C      1  0.6014580000000  0.4624160000000  0.4330600000000 1.0
C      1  0.4057970000000  0.5355170000000  0.4298230000000 1.0
C      1  0.5002210000000  0.4301430000000  0.5909780000000 1.0
C      1  0.4983810000000  0.5709000000000  0.5899460000000 1.0
C      1  0.4167150000000  0.5098110000000  0.4265570000000 1.0
C      1  0.5887510000000  0.4874910000000  0.4288230000000 1.0
C      1  0.5341740000000  0.5496470000000  0.5243590000000 1.0
C      1  0.4696590000000  0.4378650000000  0.5256500000000 1.0
C      1  0.3972330000000  0.4635110000000  0.4503540000000 1.0
C      1  0.6021170000000  0.5359880000000  0.4495150000000 1.0
C      1  0.5391730000000  0.4241600000000  0.4427340000000 1.0
C      1  0.4600300000000  0.5781360000000  0.4419120000000 1.0
C      1  0.4504590000000  0.4154330000000  0.5257140000000 1.0
C      1  0.5504390000000  0.5907770000000  0.5227740000000 1.0
C      1  0.5116880000000  0.6148170000000  0.5389320000000 1.0
C      1  0.4883490000000  0.3862960000000  0.5410880000000 1.0
C      1  0.4934050000000  0.5352310000000  0.5444930000000 1.0
C      1  0.5075650000000  0.4625900000000  0.5436420000000 1.0
C      1  0.4623470000000  0.5928180000000  0.4889920000000 1.0
C      1  0.5388700000000  0.4064110000000  0.4906550000000 1.0
C      1  0.4225350000000  0.4504520000000  0.4480870000000 1.0
C      1  0.5769010000000  0.5486040000000  0.4453480000000 1.0
C      1  0.5221810000000  0.4517900000000  0.4898430000000 1.0
C      1  0.4796640000000  0.5517670000000  0.4888370000000 1.0
C      1  0.4142900000000  0.4459760000000  0.5038900000000 1.0
C      1  0.5836670000000  0.5561800000000  0.5054220000000 1.0
C      1  0.4463590000000  0.5799330000000  0.5395270000000 1.0
C      1  0.5548520000000  0.4184860000000  0.5410270000000 1.0
C      1  0.5420060000000  0.5186160000000  0.5129650000000 1.0
C      1  0.4530790000000  0.4873810000000  0.5142130000000 1.0
C      1  0.4896320000000  0.5363010000000  0.4422960000000 1.0
C      1  0.5092220000000  0.4646430000000  0.4418220000000 1.0
C      1  0.5566870000000  0.5427920000000  0.4673600000000 1.0
C      1  0.4424880000000  0.4608530000000  0.4690640000000 1.0
C      1  0.5089080000000  0.4069360000000  0.5368970000000 1.0
C      1  0.4921080000000  0.5935660000000  0.5335600000000 1.0
C      1  0.5936470000000  0.4526350000000  0.5201390000000 1.0
C      1  0.4080100000000  0.5475370000000  0.5209470000000 1.0
C      1  0.4667130000000  0.5511860000000  0.4571680000000 1.0
C      1  0.5326390000000  0.4514170000000  0.4579570000000 1.0
C      1  0.6028820000000  0.4956180000000  0.5389930000000 1.0
C      1  0.3997720000000  0.5039080000000  0.5388160000000 1.0
C      1  0.4486020000000  0.5257560000000  0.5913040000000 1.0
C      1  0.5519920000000  0.4731290000000  0.5914940000000 1.0
C      1  0.5675000000000  0.5800460000000  0.5007010000000 1.0
C      1  0.4323670000000  0.4235680000000  0.5022260000000 1.0
C      1  0.4632810000000  0.4132720000000  0.4657570000000 1.0
C      1  0.5365900000000  0.5905410000000  0.4635190000000 1.0
C      1  0.4345960000000  0.5855670000000  0.4974560000000 1.0
C      1  0.5669030000000  0.4110040000000  0.4992440000000 1.0
C      1  0.4596010000000  0.5535420000000  0.5141590000000 1.0
C      1  0.5429330000000  0.4440800000000  0.5135960000000 1.0
C      1  0.5263850000000  0.5579430000000  0.4963590000000 1.0
C      1  0.4747990000000  0.4466550000000  0.4985330000000 1.0
C      1  0.4726200000000  0.4908790000000  0.4702180000000 1.0
C      1  0.5265230000000  0.5027870000000  0.4670870000000 1.0
C      1  0.5752870000000  0.4900850000000  0.5812340000000 1.0
C      1  0.4263200000000  0.5079320000000  0.5803500000000 1.0
C      1  0.4694210000000  0.4902960000000  0.5652220000000 1.0
C      1  0.5329920000000  0.5063680000000  0.5598280000000 1.0
C      1  0.3978570000000  0.5201020000000  0.5145460000000 1.0
C      1  0.6032070000000  0.4804350000000  0.5139930000000 1.0
C      1  0.4884650000000  0.5733630000000  0.4094190000000 1.0
C      1  0.5105800000000  0.4294280000000  0.4100600000000 1.0
C      1  0.5515950000000  0.4443420000000  0.5821490000000 1.0
C      1  0.4494860000000  0.5555390000000  0.5819540000000 1.0
C      1  0.4970880000000  0.4147480000000  0.4323460000000 1.0
C      1  0.5021960000000  0.5873410000000  0.4316420000000 1.0
C      1  0.5939710000000  0.5078540000000  0.4501630000000 1.0
C      1  0.4065400000000  0.4916720000000  0.4485380000000 1.0
C      1  0.4951250000000  0.5268190000000  0.4917660000000 1.0
C      1  0.5076980000000  0.4807370000000  0.5034780000000 1.0
C      1  0.6073430000000  0.5000620000000  0.4744070000000 1.0
C      1  0.3920330000000  0.5014850000000  0.4717580000000 1.0
C      1  0.4391700000000  0.5352310000000  0.4542230000000 1.0
C      1  0.5598450000000  0.4665270000000  0.4556990000000 1.0
C      1  0.4977490000000  0.4737640000000  0.5846500000000 1.0
C      1  0.4982080000000  0.5254110000000  0.6021220000000 1.0
C      1  0.5196770000000  0.3944350000000  0.5105010000000 1.0
C      1  0.4801500000000  0.6069770000000  0.5087450000000 1.0
C      1  0.5482930000000  0.5695950000000  0.4807590000000 1.0
C      1  0.4521870000000  0.4350270000000  0.4827600000000 1.0
C      1  0.5714740000000  0.4455360000000  0.5008000000000 1.0
C      1  0.4309400000000  0.5540510000000  0.5018570000000 1.0
C      1  0.4013870000000  0.4758290000000  0.5359670000000 1.0
C      1  0.5980880000000  0.5230800000000  0.5348070000000 1.0
C      1  0.4302790000000  0.5756230000000  0.4322140000000 1.0
C      1  0.5689470000000  0.4269360000000  0.4326810000000 1.0
C      1  0.5204450000000  0.5686620000000  0.5702510000000 1.0
C      1  0.4799550000000  0.4305290000000  0.5702740000000 1.0
C      1  0.4131040000000  0.5084140000000  0.4911010000000 1.0
C      1  0.5853320000000  0.4937000000000  0.4927100000000 1.0
C      1  0.4746500000000  0.5112710000000  0.5898100000000 1.0
C      1  0.5260650000000  0.4884550000000  0.5860300000000 1.0
C      1  0.5813610000000  0.5346840000000  0.5558470000000 1.0
C      1  0.4160530000000  0.4630840000000  0.5583950000000 1.0
C      1  0.4717890000000  0.4260830000000  0.4409670000000 1.0
C      1  0.5272880000000  0.5755050000000  0.4399940000000 1.0
C      1  0.4924320000000  0.4811440000000  0.4007730000000 1.0
C      1  0.5070140000000  0.5271210000000  0.3983290000000 1.0
C      1  0.3925690000000  0.4638920000000  0.5090790000000 1.0
C      1  0.6049370000000  0.5371830000000  0.5091120000000 1.0
C      1  0.5137750000000  0.4600130000000  0.4123290000000 1.0
C      1  0.4856830000000  0.5432990000000  0.4124980000000 1.0
C      1  0.4769000000000  0.4781230000000  0.4968440000000 1.0
C      1  0.5178080000000  0.5080610000000  0.4937600000000 1.0
C      1  0.5334410000000  0.4677590000000  0.5298680000000 1.0
C      1  0.4677440000000  0.5312210000000  0.5317340000000 1.0
C      1  0.6166540000000  0.5262230000000  0.4838610000000 1.0
C      1  0.3816880000000  0.4760160000000  0.4831660000000 1.0
C      1  0.4989940000000  0.4333460000000  0.4898150000000 1.0
C      1  0.5015040000000  0.5720620000000  0.4915980000000 1.0
C      1  0.4313270000000  0.5651690000000  0.5606070000000 1.0
C      1  0.5695970000000  0.4351150000000  0.5604660000000 1.0
C      1  0.5123700000000  0.4949360000000  0.4433370000000 1.0
C      1  0.4844040000000  0.5040560000000  0.4457200000000 1.0
C      1  0.4564610000000  0.5377470000000  0.4060740000000 1.0
C      1  0.5446140000000  0.4645530000000  0.4071910000000 1.0
C      1  0.5025080000000  0.5023490000000  0.3853410000000 1.0
END
