TITL C-3577084-3642-387 -1.1871448275018e-06 125000 -1170.39457364181 0 0 185 (C1) n - 1
REM
REM in /home/bkarasulu/work/CARBON/AIRSS/Generating-Clusters/EDIP-Nigel-Params/with-SteepDescent/Higher-Symm/SD-CG/HFTN-CG
REM
REM
REM
REM
REM
REM ./C.cell (12c818d87b63d06a65506943cc24bca4)
REM
REM compiler GCC version 9.2.1 20190827 (Red Hat 9.2.1-1)
REM options -cpp -mtune=generic -march=x86-64 -g -O0 -fpre-include=/usr/include/finclude/math-vector-fortran.h
REM seed -1686686248 -316564068 -34597556 -1526579172 398451222 1667564272 -1633498158 -1799242246 -1260122764 1439741426 131589875 1682359154 228849652 188056961 872515937 -1349253551 328218049 740159294 278130890 -990754322 -774971134 1691370248 -622209510 -1959854507 309815805 -957183140 -409941479 1740806293 851482924 -266235299 1649247619 -553642403 939292199
REM
CELL 1.54180   50.00000   50.00000   50.00000   90.00000   90.00000   90.00000
LATT -1
SFAC C  
C      1  0.4830760000000  0.6144060000000  0.4761580000000 1.0
C      1  0.5162460000000  0.3861600000000  0.4761440000000 1.0
C      1  0.5130450000000  0.6131720000000  0.4774530000000 1.0
C      1  0.4862450000000  0.3862360000000  0.4775700000000 1.0
C      1  0.4478400000000  0.4464670000000  0.4887950000000 1.0
C      1  0.5514700000000  0.5541560000000  0.4869870000000 1.0
C      1  0.5525950000000  0.4431290000000  0.4875960000000 1.0
C      1  0.4467500000000  0.5562030000000  0.4882110000000 1.0
C      1  0.4311250000000  0.5675540000000  0.4447020000000 1.0
C      1  0.5677730000000  0.4327670000000  0.4452590000000 1.0
C      1  0.5678150000000  0.5682600000000  0.4482460000000 1.0
C      1  0.4314230000000  0.4317310000000  0.4479270000000 1.0
C      1  0.4872600000000  0.5238490000000  0.4654220000000 1.0
C      1  0.5147000000000  0.4864040000000  0.4645430000000 1.0
C      1  0.5143360000000  0.5159060000000  0.4637330000000 1.0
C      1  0.4878280000000  0.4774040000000  0.4660540000000 1.0
C      1  0.4330340000000  0.4763560000000  0.5288550000000 1.0
C      1  0.5655400000000  0.5234160000000  0.5269390000000 1.0
C      1  0.5681280000000  0.4702070000000  0.5266670000000 1.0
C      1  0.4315370000000  0.5295470000000  0.5273960000000 1.0
C      1  0.4550680000000  0.4321530000000  0.4029900000000 1.0
C      1  0.5444770000000  0.5689440000000  0.4033330000000 1.0
C      1  0.5425410000000  0.4330430000000  0.4020490000000 1.0
C      1  0.4562750000000  0.5668560000000  0.4008990000000 1.0
C      1  0.5213270000000  0.5168080000000  0.6097670000000 1.0
C      1  0.4779530000000  0.4830790000000  0.6100870000000 1.0
C      1  0.4758260000000  0.5264040000000  0.6196940000000 1.0
C      1  0.5236860000000  0.4735540000000  0.6197120000000 1.0
C      1  0.5673860000000  0.5587270000000  0.4196890000000 1.0
C      1  0.4322440000000  0.4421990000000  0.4195750000000 1.0
C      1  0.4329630000000  0.5568860000000  0.4167880000000 1.0
C      1  0.5661120000000  0.4427850000000  0.4173500000000 1.0
C      1  0.5203620000000  0.5158690000000  0.4122350000000 1.0
C      1  0.4816830000000  0.4843530000000  0.4138330000000 1.0
C      1  0.4812250000000  0.5151150000000  0.4134690000000 1.0
C      1  0.5207850000000  0.4855350000000  0.4124750000000 1.0
C      1  0.4757540000000  0.5541640000000  0.5257250000000 1.0
C      1  0.5241330000000  0.4453370000000  0.5256820000000 1.0
C      1  0.5233640000000  0.5523770000000  0.5258140000000 1.0
C      1  0.4762810000000  0.4486040000000  0.5260020000000 1.0
C      1  0.4709110000000  0.6104220000000  0.5022760000000 1.0
C      1  0.5285960000000  0.3895730000000  0.5022310000000 1.0
C      1  0.5234700000000  0.6108320000000  0.5044210000000 1.0
C      1  0.4758110000000  0.3886120000000  0.5046330000000 1.0
C      1  0.4756780000000  0.4383310000000  0.4824140000000 1.0
C      1  0.5229820000000  0.5601150000000  0.4812220000000 1.0
C      1  0.5240690000000  0.4378740000000  0.4816040000000 1.0
C      1  0.4748290000000  0.5629100000000  0.4817550000000 1.0
C      1  0.5518560000000  0.4811970000000  0.6157600000000 1.0
C      1  0.4475440000000  0.5188540000000  0.6158780000000 1.0
C      1  0.4516150000000  0.4923680000000  0.6051940000000 1.0
C      1  0.5476910000000  0.5076180000000  0.6050510000000 1.0
C      1  0.4200860000000  0.4248490000000  0.5416380000000 1.0
C      1  0.5797560000000  0.5748820000000  0.5413140000000 1.0
C      1  0.5860570000000  0.4225830000000  0.5387080000000 1.0
C      1  0.4136830000000  0.5773310000000  0.5387300000000 1.0
C      1  0.3851180000000  0.5170380000000  0.5371620000000 1.0
C      1  0.6143960000000  0.4829800000000  0.5367600000000 1.0
C      1  0.6133410000000  0.5154300000000  0.5379740000000 1.0
C      1  0.3858290000000  0.4847440000000  0.5388290000000 1.0
C      1  0.5942790000000  0.5283570000000  0.5180950000000 1.0
C      1  0.4049520000000  0.4716550000000  0.5190190000000 1.0
C      1  0.4037680000000  0.5296550000000  0.5166730000000 1.0
C      1  0.5960610000000  0.4702440000000  0.5161800000000 1.0
C      1  0.4735210000000  0.4727030000000  0.4408130000000 1.0
C      1  0.5280680000000  0.5264130000000  0.4393620000000 1.0
C      1  0.5286090000000  0.4747960000000  0.4398840000000 1.0
C      1  0.4728070000000  0.5276590000000  0.4401630000000 1.0
C      1  0.5577690000000  0.5948040000000  0.4591680000000 1.0
C      1  0.4415390000000  0.4051230000000  0.4591410000000 1.0
C      1  0.4394670000000  0.5951050000000  0.4545340000000 1.0
C      1  0.5596900000000  0.4052110000000  0.4546430000000 1.0
C      1  0.5311270000000  0.4844900000000  0.4905880000000 1.0
C      1  0.4714470000000  0.5155690000000  0.4893330000000 1.0
C      1  0.4715400000000  0.4850410000000  0.4896770000000 1.0
C      1  0.5348340000000  0.5144360000000  0.4964610000000 1.0
C      1  0.5594470000000  0.5483450000000  0.5803960000000 1.0
C      1  0.4400650000000  0.4514090000000  0.5808950000000 1.0
C      1  0.4391540000000  0.5454740000000  0.5745030000000 1.0
C      1  0.5602490000000  0.4548120000000  0.5740970000000 1.0
C      1  0.4459510000000  0.5551340000000  0.5194930000000 1.0
C      1  0.5538500000000  0.4443690000000  0.5190190000000 1.0
C      1  0.5523630000000  0.5500440000000  0.5184340000000 1.0
C      1  0.4472550000000  0.4507360000000  0.5195510000000 1.0
C      1  0.5978570000000  0.4392120000000  0.5148870000000 1.0
C      1  0.4019600000000  0.5605440000000  0.5150510000000 1.0
C      1  0.4046250000000  0.4391610000000  0.5187680000000 1.0
C      1  0.5950930000000  0.5608060000000  0.5183220000000 1.0
C      1  0.5686370000000  0.5282210000000  0.4182630000000 1.0
C      1  0.4326620000000  0.4727300000000  0.4191930000000 1.0
C      1  0.4329260000000  0.5265260000000  0.4176430000000 1.0
C      1  0.5681360000000  0.4730670000000  0.4170320000000 1.0
C      1  0.5981700000000  0.4857200000000  0.4902620000000 1.0
C      1  0.4021270000000  0.5142710000000  0.4907880000000 1.0
C      1  0.4011330000000  0.4852450000000  0.4922380000000 1.0
C      1  0.5993330000000  0.5149620000000  0.4915270000000 1.0
C      1  0.4852520000000  0.5655650000000  0.4085430000000 1.0
C      1  0.5139140000000  0.4372490000000  0.4089330000000 1.0
C      1  0.5152460000000  0.5649180000000  0.4089140000000 1.0
C      1  0.4842410000000  0.4337450000000  0.4097510000000 1.0
C      1  0.4423940000000  0.5267480000000  0.4790890000000 1.0
C      1  0.5583860000000  0.4721160000000  0.4783490000000 1.0
C      1  0.5608160000000  0.5264600000000  0.4750090000000 1.0
C      1  0.4401050000000  0.4741560000000  0.4762040000000 1.0
C      1  0.5696170000000  0.4082390000000  0.4831270000000 1.0
C      1  0.4301300000000  0.5912470000000  0.4831500000000 1.0
C      1  0.4342100000000  0.4096860000000  0.4883600000000 1.0
C      1  0.5654990000000  0.5908020000000  0.4882830000000 1.0
C      1  0.4866130000000  0.4617890000000  0.5938150000000 1.0
C      1  0.5128850000000  0.5383340000000  0.5936800000000 1.0
C      1  0.5143000000000  0.4569160000000  0.5973750000000 1.0
C      1  0.4851980000000  0.5432490000000  0.5973780000000 1.0
C      1  0.4318620000000  0.4876020000000  0.5575060000000 1.0
C      1  0.5670590000000  0.5125790000000  0.5561710000000 1.0
C      1  0.5685320000000  0.4790020000000  0.5552020000000 1.0
C      1  0.4307710000000  0.5211630000000  0.5559950000000 1.0
C      1  0.4484400000000  0.4157640000000  0.5364210000000 1.0
C      1  0.5516810000000  0.5845720000000  0.5364790000000 1.0
C      1  0.5626160000000  0.4084470000000  0.5302200000000 1.0
C      1  0.4372220000000  0.5912010000000  0.5302020000000 1.0
C      1  0.5489300000000  0.4855110000000  0.3974860000000 1.0
C      1  0.4530500000000  0.5145040000000  0.3986130000000 1.0
C      1  0.4529000000000  0.4839910000000  0.3993460000000 1.0
C      1  0.5492030000000  0.5163670000000  0.3979880000000 1.0
C      1  0.5899960000000  0.5583340000000  0.4662310000000 1.0
C      1  0.4103310000000  0.4426030000000  0.4665360000000 1.0
C      1  0.4106820000000  0.5554390000000  0.4630720000000 1.0
C      1  0.5891380000000  0.4441190000000  0.4630570000000 1.0
C      1  0.4866340000000  0.4747660000000  0.5152800000000 1.0
C      1  0.5141550000000  0.5253260000000  0.5178310000000 1.0
C      1  0.5155040000000  0.4720320000000  0.5144630000000 1.0
C      1  0.4849840000000  0.5271040000000  0.5150590000000 1.0
C      1  0.4429030000000  0.6050720000000  0.5060190000000 1.0
C      1  0.5566290000000  0.3947250000000  0.5060180000000 1.0
C      1  0.5489410000000  0.6002280000000  0.5115380000000 1.0
C      1  0.4502800000000  0.3992930000000  0.5117770000000 1.0
C      1  0.4007860000000  0.5180630000000  0.5632430000000 1.0
C      1  0.5983590000000  0.4823450000000  0.5626840000000 1.0
C      1  0.5978480000000  0.5131340000000  0.5639870000000 1.0
C      1  0.4011760000000  0.4872740000000  0.5651750000000 1.0
C      1  0.4092460000000  0.4265080000000  0.4918030000000 1.0
C      1  0.5902720000000  0.5738440000000  0.4916980000000 1.0
C      1  0.5931520000000  0.4271680000000  0.4873350000000 1.0
C      1  0.4064850000000  0.5724640000000  0.4873320000000 1.0
C      1  0.5574650000000  0.4837950000000  0.4444810000000 1.0
C      1  0.4443950000000  0.5167090000000  0.4456130000000 1.0
C      1  0.4454490000000  0.4838480000000  0.4456330000000 1.0
C      1  0.5563420000000  0.5164150000000  0.4444790000000 1.0
C      1  0.5314440000000  0.6077830000000  0.4551160000000 1.0
C      1  0.4678410000000  0.3917650000000  0.4550910000000 1.0
C      1  0.4665240000000  0.6077480000000  0.4524130000000 1.0
C      1  0.5326230000000  0.3929830000000  0.4524680000000 1.0
C      1  0.5297140000000  0.4484510000000  0.5744050000000 1.0
C      1  0.4697250000000  0.5518670000000  0.5745230000000 1.0
C      1  0.4685810000000  0.4481870000000  0.5761070000000 1.0
C      1  0.5309840000000  0.5518330000000  0.5758590000000 1.0
C      1  0.5790390000000  0.5613310000000  0.5655280000000 1.0
C      1  0.4206650000000  0.4381050000000  0.5660480000000 1.0
C      1  0.4207770000000  0.5657650000000  0.5638860000000 1.0
C      1  0.5786520000000  0.4344540000000  0.5636420000000 1.0
C      1  0.4843460000000  0.4256830000000  0.4576650000000 1.0
C      1  0.5147160000000  0.5737880000000  0.4572270000000 1.0
C      1  0.5150810000000  0.4261320000000  0.4569190000000 1.0
C      1  0.4839940000000  0.5746780000000  0.4567070000000 1.0
C      1  0.4869000000000  0.5619110000000  0.5527750000000 1.0
C      1  0.5126870000000  0.4381800000000  0.5527730000000 1.0
C      1  0.5196650000000  0.5671290000000  0.5531390000000 1.0
C      1  0.4801330000000  0.4332980000000  0.5531650000000 1.0
C      1  0.4850310000000  0.4258790000000  0.5065620000000 1.0
C      1  0.5143200000000  0.5734680000000  0.5053690000000 1.0
C      1  0.5143220000000  0.4248170000000  0.5057230000000 1.0
C      1  0.4851260000000  0.5751380000000  0.5058180000000 1.0
C      1  0.4024200000000  0.4702570000000  0.4680530000000 1.0
C      1  0.5985710000000  0.5306730000000  0.4676560000000 1.0
C      1  0.5948940000000  0.4723650000000  0.4652470000000 1.0
C      1  0.4060660000000  0.5270900000000  0.4655820000000 1.0
C      1  0.4320240000000  0.4751700000000  0.5941960000000 1.0
C      1  0.5670900000000  0.5242930000000  0.5931780000000 1.0
C      1  0.5670640000000  0.4625780000000  0.6010580000000 1.0
C      1  0.4324040000000  0.5377900000000  0.6015040000000 1.0
C      1  0.5265460000000  0.4442450000000  0.4356650000000 1.0
C      1  0.4725180000000  0.5575660000000  0.4348980000000 1.0
C      1  0.4723120000000  0.4425180000000  0.4361770000000 1.0
C      1  0.5270510000000  0.5569290000000  0.4357680000000 1.0
C      1  0.4995310000000  0.5001940000000  0.6240650000000 1.0
END
