TITL C-3577084-3642-536 -2.66743721263699e-06 125000 -1103.50124233006 0 0 176 (C1) n - 1
REM
REM in /home/bkarasulu/work/CARBON/AIRSS/Generating-Clusters/EDIP-Nigel-Params/with-SteepDescent/Higher-Symm/SD-CG/HFTN-CG
REM
REM
REM
REM
REM
REM ./C.cell (12c818d87b63d06a65506943cc24bca4)
REM
REM compiler GCC version 9.2.1 20190827 (Red Hat 9.2.1-1)
REM options -cpp -mtune=generic -march=x86-64 -g -O0 -fpre-include=/usr/include/finclude/math-vector-fortran.h
REM seed 2096920260 1479067281 -1605505350 1797611349 -492082122 -968205352 431571972 -282215336 -1096988635 566348735 -1757911821 -563183942 1301671286 280484259 -1955489070 -68924729 -1813859560 -2021337430 879277954 -2049903523 152293642 -1926638346 468116562 -576562661 549483318 325495891 164260862 -2087033391 399819379 -765393627 -95278713 -1655379804 -686281775
REM
CELL 1.54180   50.00000   50.00000   50.00000   90.00000   90.00000   90.00000
LATT -1
SFAC C  
C      1  0.5297230000000  0.4591660000000  0.6061380000000 1.0
C      1  0.5546090000000  0.5941800000000  0.5210160000000 1.0
C      1  0.5627440000000  0.4585900000000  0.5693680000000 1.0
C      1  0.4604730000000  0.4552520000000  0.5825330000000 1.0
C      1  0.5106670000000  0.5163490000000  0.3925470000000 1.0
C      1  0.4544050000000  0.4493610000000  0.5007520000000 1.0
C      1  0.5935290000000  0.4647430000000  0.5294910000000 1.0
C      1  0.5001790000000  0.4474480000000  0.5123470000000 1.0
C      1  0.4666670000000  0.3939370000000  0.4602300000000 1.0
C      1  0.4849590000000  0.5511430000000  0.4091910000000 1.0
C      1  0.5358610000000  0.6108130000000  0.4697640000000 1.0
C      1  0.4925310000000  0.5218940000000  0.4933670000000 1.0
C      1  0.6076530000000  0.4941650000000  0.4823080000000 1.0
C      1  0.4871210000000  0.6232480000000  0.4741540000000 1.0
C      1  0.4050920000000  0.4582390000000  0.5383170000000 1.0
C      1  0.5131200000000  0.6204190000000  0.5166960000000 1.0
C      1  0.5763880000000  0.4409080000000  0.5230280000000 1.0
C      1  0.4239200000000  0.4590290000000  0.4448270000000 1.0
C      1  0.4151900000000  0.4386080000000  0.5183790000000 1.0
C      1  0.5830030000000  0.5301610000000  0.4941030000000 1.0
C      1  0.4752270000000  0.4415620000000  0.4731130000000 1.0
C      1  0.4499210000000  0.5332910000000  0.5954450000000 1.0
C      1  0.5917670000000  0.4995900000000  0.5636250000000 1.0
C      1  0.4018280000000  0.5084680000000  0.5363110000000 1.0
C      1  0.5528180000000  0.3875070000000  0.5068080000000 1.0
C      1  0.5507120000000  0.4889570000000  0.5219840000000 1.0
C      1  0.4829300000000  0.5733450000000  0.5626400000000 1.0
C      1  0.4457460000000  0.5560590000000  0.5332610000000 1.0
C      1  0.5232540000000  0.5629810000000  0.5486960000000 1.0
C      1  0.5448430000000  0.4601300000000  0.4882660000000 1.0
C      1  0.5842700000000  0.4340050000000  0.4940330000000 1.0
C      1  0.4782310000000  0.4168960000000  0.5610550000000 1.0
C      1  0.5083140000000  0.6135290000000  0.4579410000000 1.0
C      1  0.5295430000000  0.5307460000000  0.4105960000000 1.0
C      1  0.5914230000000  0.5551280000000  0.4499300000000 1.0
C      1  0.4228100000000  0.4942840000000  0.4285000000000 1.0
C      1  0.4729810000000  0.5291660000000  0.4542660000000 1.0
C      1  0.4790620000000  0.5229440000000  0.5653620000000 1.0
C      1  0.4694170000000  0.5023880000000  0.4125240000000 1.0
C      1  0.5437080000000  0.5038790000000  0.4700730000000 1.0
C      1  0.5138430000000  0.3876370000000  0.4513930000000 1.0
C      1  0.5779510000000  0.5745740000000  0.5222210000000 1.0
C      1  0.4173730000000  0.5126770000000  0.5617430000000 1.0
C      1  0.4879170000000  0.5492220000000  0.5791480000000 1.0
C      1  0.5495900000000  0.5208960000000  0.5649160000000 1.0
C      1  0.5694280000000  0.4366610000000  0.4485560000000 1.0
C      1  0.5447210000000  0.4373950000000  0.4333720000000 1.0
C      1  0.4382160000000  0.5544750000000  0.5800460000000 1.0
C      1  0.5685270000000  0.4202620000000  0.4736420000000 1.0
C      1  0.5592020000000  0.4283680000000  0.5647400000000 1.0
C      1  0.5145320000000  0.4526330000000  0.5587230000000 1.0
C      1  0.5010940000000  0.5039980000000  0.5591180000000 1.0
C      1  0.5038370000000  0.4673770000000  0.5992180000000 1.0
C      1  0.5407490000000  0.4584860000000  0.4126840000000 1.0
C      1  0.5384760000000  0.5897330000000  0.5448930000000 1.0
C      1  0.4502660000000  0.4598230000000  0.4324330000000 1.0
C      1  0.5792510000000  0.5240250000000  0.5658270000000 1.0
C      1  0.3979120000000  0.4771850000000  0.4953500000000 1.0
C      1  0.5949460000000  0.4898540000000  0.4553680000000 1.0
C      1  0.4391590000000  0.5421750000000  0.4257780000000 1.0
C      1  0.5152350000000  0.5151990000000  0.5997330000000 1.0
C      1  0.5057390000000  0.4140160000000  0.4418280000000 1.0
C      1  0.4902590000000  0.5353860000000  0.3842130000000 1.0
C      1  0.4424620000000  0.5710990000000  0.4359100000000 1.0
C      1  0.5380050000000  0.5846660000000  0.4980700000000 1.0
C      1  0.4150660000000  0.5430540000000  0.5665900000000 1.0
C      1  0.5361060000000  0.5477130000000  0.5712340000000 1.0
C      1  0.5561430000000  0.4816230000000  0.4240010000000 1.0
C      1  0.4734740000000  0.4784130000000  0.4969850000000 1.0
C      1  0.4177100000000  0.5228970000000  0.4310710000000 1.0
C      1  0.5718490000000  0.5152570000000  0.4671550000000 1.0
C      1  0.4171770000000  0.4410800000000  0.4666100000000 1.0
C      1  0.4481000000000  0.6005040000000  0.5374010000000 1.0
C      1  0.5577350000000  0.5259970000000  0.4188270000000 1.0
C      1  0.4994170000000  0.5151040000000  0.4552740000000 1.0
C      1  0.5149570000000  0.5436520000000  0.5909990000000 1.0
C      1  0.5399050000000  0.3836880000000  0.4605920000000 1.0
C      1  0.4468970000000  0.4820810000000  0.5921800000000 1.0
C      1  0.5215970000000  0.4417600000000  0.5315790000000 1.0
C      1  0.5252460000000  0.5252590000000  0.4647270000000 1.0
C      1  0.4715050000000  0.6054860000000  0.5196050000000 1.0
C      1  0.4319660000000  0.5787240000000  0.4634420000000 1.0
C      1  0.5258650000000  0.3965720000000  0.5117630000000 1.0
C      1  0.4459360000000  0.5092490000000  0.5508170000000 1.0
C      1  0.3980520000000  0.4825530000000  0.5234670000000 1.0
C      1  0.5018240000000  0.4337070000000  0.4857140000000 1.0
C      1  0.4423410000000  0.5098930000000  0.4928420000000 1.0
C      1  0.4769510000000  0.4209230000000  0.4491670000000 1.0
C      1  0.5014890000000  0.4021390000000  0.4938030000000 1.0
C      1  0.6115620000000  0.5236880000000  0.4851810000000 1.0
C      1  0.5093770000000  0.4656910000000  0.4157600000000 1.0
C      1  0.4529900000000  0.4060360000000  0.5079360000000 1.0
C      1  0.5480270000000  0.4542720000000  0.5205060000000 1.0
C      1  0.5039640000000  0.5489030000000  0.5031680000000 1.0
C      1  0.3898900000000  0.4956550000000  0.4764960000000 1.0
C      1  0.5118920000000  0.5144060000000  0.5336940000000 1.0
C      1  0.4252760000000  0.4146240000000  0.4674350000000 1.0
C      1  0.4663850000000  0.6127880000000  0.4903650000000 1.0
C      1  0.4202630000000  0.4854380000000  0.5785170000000 1.0
C      1  0.4454900000000  0.4817570000000  0.5395210000000 1.0
C      1  0.5821250000000  0.5766170000000  0.4690480000000 1.0
C      1  0.4397380000000  0.4808200000000  0.5089420000000 1.0
C      1  0.5524810000000  0.5370630000000  0.5169600000000 1.0
C      1  0.4668880000000  0.4369030000000  0.4253600000000 1.0
C      1  0.5014480000000  0.4297870000000  0.5761970000000 1.0
C      1  0.4369760000000  0.4203760000000  0.5287870000000 1.0
C      1  0.6125160000000  0.5392830000000  0.4611300000000 1.0
C      1  0.4884260000000  0.5069820000000  0.6069410000000 1.0
C      1  0.4110650000000  0.4519600000000  0.4922550000000 1.0
C      1  0.5876030000000  0.4614420000000  0.4475570000000 1.0
C      1  0.4930020000000  0.3834070000000  0.4714590000000 1.0
C      1  0.5850320000000  0.4735300000000  0.5562740000000 1.0
C      1  0.5098120000000  0.5971730000000  0.4983140000000 1.0
C      1  0.4535540000000  0.5754420000000  0.5564590000000 1.0
C      1  0.5217680000000  0.5762000000000  0.4302060000000 1.0
C      1  0.4656540000000  0.5210800000000  0.5063110000000 1.0
C      1  0.5048890000000  0.4976110000000  0.5072800000000 1.0
C      1  0.4750570000000  0.5743740000000  0.4376320000000 1.0
C      1  0.5131950000000  0.5529750000000  0.4176670000000 1.0
C      1  0.4963210000000  0.4868690000000  0.4598190000000 1.0
C      1  0.5387410000000  0.4868800000000  0.4467970000000 1.0
C      1  0.5210690000000  0.4111090000000  0.5377930000000 1.0
C      1  0.4920900000000  0.4050820000000  0.5396560000000 1.0
C      1  0.5699140000000  0.3946480000000  0.5282450000000 1.0
C      1  0.4543450000000  0.5059030000000  0.4660240000000 1.0
C      1  0.5407450000000  0.5507590000000  0.4602470000000 1.0
C      1  0.3964320000000  0.5315910000000  0.4466590000000 1.0
C      1  0.3967680000000  0.5220120000000  0.4727750000000 1.0
C      1  0.5343560000000  0.4887290000000  0.4957450000000 1.0
C      1  0.5817270000000  0.5617820000000  0.4948600000000 1.0
C      1  0.5490250000000  0.5794350000000  0.4351950000000 1.0
C      1  0.5343000000000  0.5543720000000  0.4961490000000 1.0
C      1  0.4700240000000  0.4793440000000  0.4666070000000 1.0
C      1  0.4922440000000  0.4413490000000  0.4099020000000 1.0
C      1  0.4472980000000  0.4838520000000  0.4166760000000 1.0
C      1  0.4165410000000  0.5516700000000  0.5381940000000 1.0
C      1  0.4480650000000  0.5703860000000  0.5057350000000 1.0
C      1  0.5028590000000  0.5951620000000  0.5572580000000 1.0
C      1  0.5258500000000  0.4448300000000  0.4662110000000 1.0
C      1  0.4850180000000  0.4461750000000  0.5963100000000 1.0
C      1  0.4665430000000  0.5307310000000  0.4240140000000 1.0
C      1  0.5372730000000  0.5012170000000  0.5843790000000 1.0
C      1  0.5679930000000  0.5021160000000  0.4085260000000 1.0
C      1  0.4963570000000  0.4925280000000  0.4036490000000 1.0
C      1  0.5331530000000  0.4133150000000  0.5666320000000 1.0
C      1  0.4298330000000  0.5941060000000  0.5152890000000 1.0
C      1  0.5757870000000  0.4183640000000  0.5420590000000 1.0
C      1  0.5155080000000  0.4691810000000  0.4478250000000 1.0
C      1  0.5004200000000  0.5934290000000  0.4382680000000 1.0
C      1  0.5047740000000  0.5440290000000  0.5318510000000 1.0
C      1  0.4801490000000  0.4000780000000  0.5142650000000 1.0
C      1  0.5466720000000  0.4736470000000  0.5893420000000 1.0
C      1  0.4786210000000  0.5590140000000  0.4642030000000 1.0
C      1  0.4452170000000  0.6018050000000  0.4745960000000 1.0
C      1  0.4318310000000  0.5571600000000  0.4842930000000 1.0
C      1  0.4939800000000  0.6137030000000  0.5356090000000 1.0
C      1  0.4051050000000  0.5321420000000  0.5197680000000 1.0
C      1  0.5091600000000  0.4189060000000  0.4141190000000 1.0
C      1  0.5766790000000  0.4624210000000  0.4840440000000 1.0
C      1  0.4451010000000  0.3996980000000  0.4799590000000 1.0
C      1  0.5597730000000  0.3926070000000  0.4782040000000 1.0
C      1  0.5875050000000  0.5458600000000  0.5491620000000 1.0
C      1  0.5568840000000  0.5913660000000  0.4593220000000 1.0
C      1  0.4732800000000  0.4425550000000  0.5256330000000 1.0
C      1  0.5417190000000  0.5142110000000  0.5349080000000 1.0
C      1  0.4699730000000  0.4661240000000  0.5462970000000 1.0
C      1  0.5667300000000  0.5376300000000  0.4467490000000 1.0
C      1  0.5905020000000  0.4816670000000  0.5038240000000 1.0
C      1  0.5639280000000  0.5546030000000  0.5376630000000 1.0
C      1  0.4624060000000  0.5309540000000  0.5340820000000 1.0
C      1  0.4604860000000  0.5073390000000  0.6014200000000 1.0
C      1  0.4509320000000  0.4285150000000  0.5559080000000 1.0
C      1  0.4948200000000  0.4749150000000  0.5640180000000 1.0
C      1  0.4179230000000  0.5307420000000  0.4920530000000 1.0
C      1  0.4265890000000  0.4651340000000  0.5566380000000 1.0
C      1  0.4836840000000  0.5723050000000  0.4934480000000 1.0
END
