TITL C-3577080-309-682 1.55791151918036e-07 125000 -618.41878389485 0 0 98 (C1) n - 1
REM
REM in /home/bkarasulu/work/CARBON/AIRSS/Generating-Clusters/EDIP-Nigel-Params/with-SteepDescent/Higher-Symm/SD-CG/HFTN-CG
REM
REM
REM
REM
REM
REM ./C.cell (12c818d87b63d06a65506943cc24bca4)
REM
REM compiler GCC version 9.2.1 20190827 (Red Hat 9.2.1-1)
REM options -cpp -mtune=generic -march=x86-64 -g -O0 -fpre-include=/usr/include/finclude/math-vector-fortran.h
REM seed 661021282 -1827993311 2054780172 1052585427 -1560138709 -108046626 -1735184603 1889390866 663487855 -690371365 2007936207 1018098313 66374066 826564446 973066695 228833424 -1123665388 1295998989 -1833196803 -1859541643 -221220571 1093505258 -2024881231 1425576728 49512141 -2098366478 1372210925 277963376 -314345542 1958532851 412831347 142794508 -1866227490
REM
CELL 1.54180   50.00000   50.00000   50.00000   90.00000   90.00000   90.00000
LATT -1
SFAC C  
C      1  0.4428910000000  0.5759720000000  0.4662050000000 1.0
C      1  0.4664930000000  0.4144680000000  0.4660880000000 1.0
C      1  0.5922710000000  0.5074660000000  0.4672730000000 1.0
C      1  0.4703260000000  0.5394000000000  0.4487520000000 1.0
C      1  0.4869420000000  0.4568590000000  0.4493430000000 1.0
C      1  0.5467040000000  0.5122930000000  0.4499290000000 1.0
C      1  0.4315400000000  0.5605020000000  0.4866260000000 1.0
C      1  0.4814200000000  0.4080390000000  0.4886600000000 1.0
C      1  0.5890080000000  0.5273180000000  0.4869920000000 1.0
C      1  0.4618250000000  0.4385260000000  0.4524710000000 1.0
C      1  0.5726220000000  0.4948420000000  0.4515010000000 1.0
C      1  0.4656030000000  0.5695600000000  0.4511170000000 1.0
C      1  0.4563960000000  0.5108120000000  0.5525600000000 1.0
C      1  0.5002070000000  0.4567330000000  0.5721410000000 1.0
C      1  0.5309000000000  0.5340650000000  0.5535700000000 1.0
C      1  0.4430380000000  0.4128180000000  0.5171360000000 1.0
C      1  0.6012290000000  0.4924680000000  0.5146390000000 1.0
C      1  0.4530430000000  0.5915320000000  0.5168520000000 1.0
C      1  0.4473490000000  0.5229490000000  0.4592940000000 1.0
C      1  0.5196150000000  0.4199270000000  0.4609310000000 1.0
C      1  0.5479270000000  0.5385010000000  0.4629040000000 1.0
C      1  0.4705520000000  0.4122580000000  0.5148320000000 1.0
C      1  0.5973650000000  0.5200450000000  0.5139320000000 1.0
C      1  0.4337070000000  0.5715470000000  0.5138490000000 1.0
C      1  0.5236970000000  0.5769420000000  0.5341870000000 1.0
C      1  0.4199330000000  0.4795960000000  0.5356300000000 1.0
C      1  0.5556730000000  0.4397330000000  0.5375200000000 1.0
C      1  0.5805730000000  0.5309300000000  0.5351470000000 1.0
C      1  0.4359350000000  0.5505610000000  0.5348120000000 1.0
C      1  0.4865160000000  0.4091960000000  0.5378490000000 1.0
C      1  0.5127650000000  0.5287100000000  0.5765990000000 1.0
C      1  0.4726060000000  0.4985990000000  0.5753390000000 1.0
C      1  0.5161710000000  0.4792780000000  0.5804890000000 1.0
C      1  0.5491100000000  0.5106380000000  0.5401500000000 1.0
C      1  0.4642650000000  0.5400220000000  0.5419310000000 1.0
C      1  0.4863900000000  0.4477750000000  0.5363030000000 1.0
C      1  0.4643020000000  0.4935830000000  0.5279420000000 1.0
C      1  0.5225420000000  0.4656400000000  0.5246150000000 1.0
C      1  0.5144350000000  0.5322920000000  0.5224530000000 1.0
C      1  0.4806410000000  0.5597670000000  0.5581280000000 1.0
C      1  0.4629530000000  0.4655460000000  0.5447810000000 1.0
C      1  0.5476560000000  0.4816810000000  0.5494370000000 1.0
C      1  0.4904480000000  0.5809180000000  0.4626540000000 1.0
C      1  0.4388150000000  0.4540180000000  0.4643950000000 1.0
C      1  0.5640660000000  0.4670940000000  0.4612870000000 1.0
C      1  0.5234600000000  0.4718760000000  0.4219910000000 1.0
C      1  0.5168680000000  0.5413200000000  0.4225490000000 1.0
C      1  0.4645610000000  0.5009980000000  0.4217530000000 1.0
C      1  0.4814850000000  0.5419560000000  0.4939670000000 1.0
C      1  0.4733930000000  0.4697890000000  0.4924130000000 1.0
C      1  0.5399470000000  0.4911570000000  0.4933650000000 1.0
C      1  0.4945960000000  0.5493440000000  0.5797370000000 1.0
C      1  0.4720200000000  0.4690530000000  0.5723870000000 1.0
C      1  0.5435590000000  0.4793410000000  0.5776230000000 1.0
C      1  0.5711510000000  0.4646430000000  0.5406070000000 1.0
C      1  0.4944600000000  0.5812610000000  0.5418050000000 1.0
C      1  0.4349700000000  0.4542970000000  0.5414120000000 1.0
C      1  0.5099010000000  0.4106470000000  0.4855820000000 1.0
C      1  0.5634250000000  0.5402950000000  0.4865750000000 1.0
C      1  0.4367040000000  0.5320260000000  0.4846320000000 1.0
C      1  0.5595400000000  0.4683390000000  0.4930790000000 1.0
C      1  0.4930930000000  0.5703480000000  0.4938600000000 1.0
C      1  0.4449250000000  0.4605380000000  0.4939950000000 1.0
C      1  0.4806960000000  0.5877410000000  0.5158150000000 1.0
C      1  0.4357620000000  0.4397860000000  0.5156150000000 1.0
C      1  0.5824470000000  0.4717150000000  0.5139690000000 1.0
C      1  0.5353360000000  0.5184740000000  0.4232780000000 1.0
C      1  0.4745380000000  0.5284910000000  0.4214270000000 1.0
C      1  0.4948550000000  0.4646770000000  0.4212970000000 1.0
C      1  0.4241620000000  0.5145240000000  0.5036460000000 1.0
C      1  0.5256260000000  0.4176950000000  0.5089410000000 1.0
C      1  0.5538590000000  0.5592910000000  0.5058520000000 1.0
C      1  0.5147130000000  0.4139680000000  0.5361650000000 1.0
C      1  0.5665780000000  0.5568030000000  0.5325820000000 1.0
C      1  0.4182390000000  0.5268340000000  0.5305770000000 1.0
C      1  0.5206700000000  0.5489920000000  0.4661530000000 1.0
C      1  0.4543250000000  0.4949060000000  0.4497480000000 1.0
C      1  0.5132460000000  0.4472020000000  0.4609990000000 1.0
C      1  0.5278940000000  0.4941320000000  0.4663300000000 1.0
C      1  0.4941490000000  0.5315320000000  0.4684280000000 1.0
C      1  0.4788090000000  0.4820080000000  0.4655290000000 1.0
C      1  0.5328830000000  0.4672970000000  0.4509090000000 1.0
C      1  0.5134950000000  0.5696620000000  0.4470730000000 1.0
C      1  0.4319900000000  0.4767300000000  0.4494730000000 1.0
C      1  0.5425250000000  0.4435090000000  0.5096170000000 1.0
C      1  0.5231590000000  0.5602230000000  0.5089360000000 1.0
C      1  0.4372050000000  0.4885320000000  0.5114580000000 1.0
C      1  0.5432500000000  0.5616830000000  0.5516320000000 1.0
C      1  0.4255710000000  0.5054590000000  0.5513270000000 1.0
C      1  0.5263520000000  0.4374640000000  0.5505970000000 1.0
C      1  0.4938850000000  0.4642090000000  0.5127490000000 1.0
C      1  0.5321970000000  0.5077690000000  0.5159220000000 1.0
C      1  0.4830700000000  0.5268480000000  0.5194940000000 1.0
C      1  0.4777150000000  0.4814040000000  0.4070960000000 1.0
C      1  0.5298500000000  0.4955620000000  0.4087870000000 1.0
C      1  0.4952630000000  0.5381220000000  0.4052520000000 1.0
C      1  0.5012640000000  0.5025580000000  0.5739640000000 1.0
C      1  0.4999470000000  0.5024360000000  0.4680930000000 1.0
END
