TITL C-3578209-2550-117 1.64640978001233e-06 125000 -902.915871011307 0 0 146 (C1) n - 1
REM
REM in /home/bkarasulu/work/CARBON/AIRSS/Generating-Clusters/EDIP-Nigel-Params/with-SteepDescent/Higher-Symm/SD-CG/HFTN-CG
REM
REM
REM
REM
REM
REM ./C.cell (12c818d87b63d06a65506943cc24bca4)
REM
REM compiler GCC version 9.2.1 20190827 (Red Hat 9.2.1-1)
REM options -cpp -mtune=generic -march=x86-64 -g -O0 -fpre-include=/usr/include/finclude/math-vector-fortran.h
REM seed -2027386157 -1102655824 -1280285487 -1461064327 583906826 1750546305 2107797290 1257983145 -1840124428 364320499 -447203997 -1044638811 -216254728 -427505900 540321319 -1599289046 1121078540 -395708554 -349994487 -48812812 -47523742 -1188578464 -824115786 -1402025347 658291751 -1406252783 -510602997 -2044033320 1674351761 480611785 -1978582664 1822626096 219568872
REM
CELL 1.54180   50.00000   50.00000   50.00000   90.00000   90.00000   90.00000
LATT -1
SFAC C  
C      1  0.5231280000000  0.5625700000000  0.4157280000000 1.0
C      1  0.5653750000000  0.5634200000000  0.4346380000000 1.0
C      1  0.5652310000000  0.5643520000000  0.4832610000000 1.0
C      1  0.5907820000000  0.5419470000000  0.5434590000000 1.0
C      1  0.5609910000000  0.5577940000000  0.5784820000000 1.0
C      1  0.5062240000000  0.5548110000000  0.5860080000000 1.0
C      1  0.4646960000000  0.5648290000000  0.5657840000000 1.0
C      1  0.4240200000000  0.5545130000000  0.5389730000000 1.0
C      1  0.4100850000000  0.5566560000000  0.4862260000000 1.0
C      1  0.4414290000000  0.5609390000000  0.4549810000000 1.0
C      1  0.4758080000000  0.5611460000000  0.4166270000000 1.0
C      1  0.4506800000000  0.4333250000000  0.4166660000000 1.0
C      1  0.5018780000000  0.4331150000000  0.4065290000000 1.0
C      1  0.5521180000000  0.4365690000000  0.4174850000000 1.0
C      1  0.5860440000000  0.4375090000000  0.4557050000000 1.0
C      1  0.5885660000000  0.4518210000000  0.5239390000000 1.0
C      1  0.5628020000000  0.4255390000000  0.5682490000000 1.0
C      1  0.5178240000000  0.4341980000000  0.5930140000000 1.0
C      1  0.4734790000000  0.4371000000000  0.5895430000000 1.0
C      1  0.4287740000000  0.4402220000000  0.5644760000000 1.0
C      1  0.4060700000000  0.4529410000000  0.5022190000000 1.0
C      1  0.4176340000000  0.4306660000000  0.4531650000000 1.0
C      1  0.5290930000000  0.4153440000000  0.4588230000000 1.0
C      1  0.5481920000000  0.4108760000000  0.4806700000000 1.0
C      1  0.5472440000000  0.4201380000000  0.5086910000000 1.0
C      1  0.5338760000000  0.4058300000000  0.5308070000000 1.0
C      1  0.5102530000000  0.4140150000000  0.5463580000000 1.0
C      1  0.4809850000000  0.4115540000000  0.5450690000000 1.0
C      1  0.4559620000000  0.4137710000000  0.5296590000000 1.0
C      1  0.4479160000000  0.4195500000000  0.5022150000000 1.0
C      1  0.4548750000000  0.4058760000000  0.4772030000000 1.0
C      1  0.4744380000000  0.4124820000000  0.4562430000000 1.0
C      1  0.5025380000000  0.4058060000000  0.4503830000000 1.0
C      1  0.5550310000000  0.5200930000000  0.5072830000000 1.0
C      1  0.5422790000000  0.5091280000000  0.5376520000000 1.0
C      1  0.5174920000000  0.5212270000000  0.5543090000000 1.0
C      1  0.4865380000000  0.5129050000000  0.5555260000000 1.0
C      1  0.4610550000000  0.5104920000000  0.5382240000000 1.0
C      1  0.4474230000000  0.5236330000000  0.5134990000000 1.0
C      1  0.4530310000000  0.5113030000000  0.4812390000000 1.0
C      1  0.4711740000000  0.5245440000000  0.4566480000000 1.0
C      1  0.4993540000000  0.5168510000000  0.4468460000000 1.0
C      1  0.5251830000000  0.5305370000000  0.4518690000000 1.0
C      1  0.5448150000000  0.5144020000000  0.4772920000000 1.0
C      1  0.4041230000000  0.5094500000000  0.5405600000000 1.0
C      1  0.4034670000000  0.5000710000000  0.4801650000000 1.0
C      1  0.4311800000000  0.5033200000000  0.4373790000000 1.0
C      1  0.4741110000000  0.5032200000000  0.4101780000000 1.0
C      1  0.5249440000000  0.5049990000000  0.4077780000000 1.0
C      1  0.5680590000000  0.5078290000000  0.4345790000000 1.0
C      1  0.5945650000000  0.5095390000000  0.4774760000000 1.0
C      1  0.5893800000000  0.4942330000000  0.5530170000000 1.0
C      1  0.5516500000000  0.4985240000000  0.5856850000000 1.0
C      1  0.4940500000000  0.5085040000000  0.6060370000000 1.0
C      1  0.4486250000000  0.5078540000000  0.5864130000000 1.0
C      1  0.4951130000000  0.4623990000000  0.4591720000000 1.0
C      1  0.5163710000000  0.4782250000000  0.4604190000000 1.0
C      1  0.5381120000000  0.4858970000000  0.4749560000000 1.0
C      1  0.5492950000000  0.4672820000000  0.4917560000000 1.0
C      1  0.5459880000000  0.4631700000000  0.5181470000000 1.0
C      1  0.5323560000000  0.4812550000000  0.5344020000000 1.0
C      1  0.5058130000000  0.4763110000000  0.5395950000000 1.0
C      1  0.4807040000000  0.4713920000000  0.5319850000000 1.0
C      1  0.4624500000000  0.4746570000000  0.5127630000000 1.0
C      1  0.4588450000000  0.4827390000000  0.4867530000000 1.0
C      1  0.4705640000000  0.4668220000000  0.4679980000000 1.0
C      1  0.4008350000000  0.4636480000000  0.5273590000000 1.0
C      1  0.4153240000000  0.4584690000000  0.4534310000000 1.0
C      1  0.4498460000000  0.4610690000000  0.4157760000000 1.0
C      1  0.5007660000000  0.4609530000000  0.4036290000000 1.0
C      1  0.5517070000000  0.4641750000000  0.4149150000000 1.0
C      1  0.5877120000000  0.4651810000000  0.4517530000000 1.0
C      1  0.5925540000000  0.4702510000000  0.5020800000000 1.0
C      1  0.5673730000000  0.4529100000000  0.5709830000000 1.0
C      1  0.5225910000000  0.4612850000000  0.5974000000000 1.0
C      1  0.4732260000000  0.4646080000000  0.5941890000000 1.0
C      1  0.4289470000000  0.4678130000000  0.5667890000000 1.0
C      1  0.4985400000000  0.4789230000000  0.5987980000000 1.0
C      1  0.4480010000000  0.4784960000000  0.5871520000000 1.0
C      1  0.4092160000000  0.4801720000000  0.5482450000000 1.0
C      1  0.4068340000000  0.4703610000000  0.4787270000000 1.0
C      1  0.4318980000000  0.4742300000000  0.4351330000000 1.0
C      1  0.4751920000000  0.4744360000000  0.4101050000000 1.0
C      1  0.5256270000000  0.4761160000000  0.4090760000000 1.0
C      1  0.5694620000000  0.4788640000000  0.4331580000000 1.0
C      1  0.5988730000000  0.4801220000000  0.4750880000000 1.0
C      1  0.5819760000000  0.4659080000000  0.5489520000000 1.0
C      1  0.5483840000000  0.4699030000000  0.5863010000000 1.0
C      1  0.5564360000000  0.5500800000000  0.5070630000000 1.0
C      1  0.5662690000000  0.5590460000000  0.5331240000000 1.0
C      1  0.5459210000000  0.5629080000000  0.5552840000000 1.0
C      1  0.5172160000000  0.5520850000000  0.5563600000000 1.0
C      1  0.4700700000000  0.5640720000000  0.5384470000000 1.0
C      1  0.4466140000000  0.5539830000000  0.5207340000000 1.0
C      1  0.4398820000000  0.5675190000000  0.4929420000000 1.0
C      1  0.4680890000000  0.5535610000000  0.4624890000000 1.0
C      1  0.4861050000000  0.5691800000000  0.4447670000000 1.0
C      1  0.5183410000000  0.5610110000000  0.4458170000000 1.0
C      1  0.5397240000000  0.5789420000000  0.4591080000000 1.0
C      1  0.5163600000000  0.6390870000000  0.5229890000000 1.0
C      1  0.4914400000000  0.6361660000000  0.5315170000000 1.0
C      1  0.4671250000000  0.6260600000000  0.5285410000000 1.0
C      1  0.4503200000000  0.6110770000000  0.5144460000000 1.0
C      1  0.4459580000000  0.5968520000000  0.4912900000000 1.0
C      1  0.4618830000000  0.6036840000000  0.4694710000000 1.0
C      1  0.4822010000000  0.5980130000000  0.4512870000000 1.0
C      1  0.5058200000000  0.6119830000000  0.4533810000000 1.0
C      1  0.5318670000000  0.6072150000000  0.4610160000000 1.0
C      1  0.5414330000000  0.6220920000000  0.4820840000000 1.0
C      1  0.5351100000000  0.6340480000000  0.5049450000000 1.0
C      1  0.4522630000000  0.5447630000000  0.4155320000000 1.0
C      1  0.4993930000000  0.5472520000000  0.4055830000000 1.0
C      1  0.5496080000000  0.5493330000000  0.4145370000000 1.0
C      1  0.5731170000000  0.5502040000000  0.4592880000000 1.0
C      1  0.5987060000000  0.5142080000000  0.5315010000000 1.0
C      1  0.5784580000000  0.5370550000000  0.5702130000000 1.0
C      1  0.5175910000000  0.5321080000000  0.6024270000000 1.0
C      1  0.4768690000000  0.5502610000000  0.5863110000000 1.0
C      1  0.4175680000000  0.5328450000000  0.5557710000000 1.0
C      1  0.3989150000000  0.5336780000000  0.4995750000000 1.0
C      1  0.4192040000000  0.5442460000000  0.4615460000000 1.0
C      1  0.4213850000000  0.4293550000000  0.5011100000000 1.0
C      1  0.4305370000000  0.4086090000000  0.4627700000000 1.0
C      1  0.4602130000000  0.4129480000000  0.4318610000000 1.0
C      1  0.5032560000000  0.4108130000000  0.4223730000000 1.0
C      1  0.5442050000000  0.4177080000000  0.4352190000000 1.0
C      1  0.5729540000000  0.4182540000000  0.4695490000000 1.0
C      1  0.5731490000000  0.4286670000000  0.5176580000000 1.0
C      1  0.5538000000000  0.4065600000000  0.5509450000000 1.0
C      1  0.5177300000000  0.4151560000000  0.5735310000000 1.0
C      1  0.4737000000000  0.4164070000000  0.5718510000000 1.0
C      1  0.4357740000000  0.4205020000000  0.5476080000000 1.0
C      1  0.5433030000000  0.5219690000000  0.4254640000000 1.0
C      1  0.5716480000000  0.5202710000000  0.4614420000000 1.0
C      1  0.5836600000000  0.5073850000000  0.5063950000000 1.0
C      1  0.5660220000000  0.5101140000000  0.5625430000000 1.0
C      1  0.5247280000000  0.5103980000000  0.5825020000000 1.0
C      1  0.4758160000000  0.5197830000000  0.5841210000000 1.0
C      1  0.4385780000000  0.5102780000000  0.5584530000000 1.0
C      1  0.4164300000000  0.5147110000000  0.5133310000000 1.0
C      1  0.4256750000000  0.5145260000000  0.4647350000000 1.0
C      1  0.4555530000000  0.5187860000000  0.4287360000000 1.0
C      1  0.4993540000000  0.5179810000000  0.4159840000000 1.0
C      1  0.5073390000000  0.5322450000000  0.4922510000000 1.0
C      1  0.4986060000000  0.5610350000000  0.5333540000000 1.0
C      1  0.5045580000000  0.5522610000000  0.5080100000000 1.0
END
