TITL C-3577078-809-135 -2.75051680368677e-06 125000 -925.770835377701 0 0 146 (C1) n - 1
REM
REM in /home/bkarasulu/work/CARBON/AIRSS/Generating-Clusters/EDIP-Nigel-Params/with-SteepDescent/Higher-Symm/SD-CG/HFTN-CG
REM
REM
REM
REM
REM
REM ./C.cell (12c818d87b63d06a65506943cc24bca4)
REM
REM compiler GCC version 9.2.1 20190827 (Red Hat 9.2.1-1)
REM options -cpp -mtune=generic -march=x86-64 -g -O0 -fpre-include=/usr/include/finclude/math-vector-fortran.h
REM seed 1091539107 1604514688 -1146395760 173499618 463614681 1250480508 -1481425932 -76943163 762326575 676935644 1112991211 856451620 -1352558272 -480274028 649082580 946744482 -771452140 -1464093513 -62886914 -1081010635 -1176537344 -1910956833 1406343895 1719531749 33453978 -547353690 1248342398 683073328 -1780027072 -353275184 1092531303 -960094441 -2028309729
REM
CELL 1.54180   50.00000   50.00000   50.00000   90.00000   90.00000   90.00000
LATT -1
SFAC C  
C      1  0.5709040000000  0.5604110000000  0.5395530000000 1.0
C      1  0.5670110000000  0.5585240000000  0.4613380000000 1.0
C      1  0.5639520000000  0.4836670000000  0.4369570000000 1.0
C      1  0.5692660000000  0.4276520000000  0.4976760000000 1.0
C      1  0.5659000000000  0.4805870000000  0.5669700000000 1.0
C      1  0.4541300000000  0.5694610000000  0.4450570000000 1.0
C      1  0.4526880000000  0.4634710000000  0.4107450000000 1.0
C      1  0.4548360000000  0.4137100000000  0.5011050000000 1.0
C      1  0.4528840000000  0.4720850000000  0.5843410000000 1.0
C      1  0.4525160000000  0.5769250000000  0.5544530000000 1.0
C      1  0.4424570000000  0.5318530000000  0.5358150000000 1.0
C      1  0.4277870000000  0.5489190000000  0.4828140000000 1.0
C      1  0.4236290000000  0.5010720000000  0.4428370000000 1.0
C      1  0.4231650000000  0.4503210000000  0.4773120000000 1.0
C      1  0.4234130000000  0.4679760000000  0.5364090000000 1.0
C      1  0.4410860000000  0.5220270000000  0.4886290000000 1.0
C      1  0.4308270000000  0.5005830000000  0.4704950000000 1.0
C      1  0.4279010000000  0.4771030000000  0.4863890000000 1.0
C      1  0.4320560000000  0.4836200000000  0.5140230000000 1.0
C      1  0.4335860000000  0.5124080000000  0.5154070000000 1.0
C      1  0.4383410000000  0.4422650000000  0.5416510000000 1.0
C      1  0.4511130000000  0.5201500000000  0.5638400000000 1.0
C      1  0.4386980000000  0.5749480000000  0.4943160000000 1.0
C      1  0.4375580000000  0.5211110000000  0.4251770000000 1.0
C      1  0.4412120000000  0.4392940000000  0.4554130000000 1.0
C      1  0.4322700000000  0.4231720000000  0.5175900000000 1.0
C      1  0.4363420000000  0.4952320000000  0.5740810000000 1.0
C      1  0.4322020000000  0.5748940000000  0.5320330000000 1.0
C      1  0.4325350000000  0.5496990000000  0.4386390000000 1.0
C      1  0.4316630000000  0.4531980000000  0.4287370000000 1.0
C      1  0.4971110000000  0.4082330000000  0.4743950000000 1.0
C      1  0.4963650000000  0.4433080000000  0.5747600000000 1.0
C      1  0.5040650000000  0.5555560000000  0.5740670000000 1.0
C      1  0.4988980000000  0.5880290000000  0.4695380000000 1.0
C      1  0.4973180000000  0.4981650000000  0.4055620000000 1.0
C      1  0.5873910000000  0.4490200000000  0.4873200000000 1.0
C      1  0.5860090000000  0.4713760000000  0.5478940000000 1.0
C      1  0.5892580000000  0.5372490000000  0.5432790000000 1.0
C      1  0.5880810000000  0.5535680000000  0.4817260000000 1.0
C      1  0.5841310000000  0.5018240000000  0.4478170000000 1.0
C      1  0.4729660000000  0.4047040000000  0.5632390000000 1.0
C      1  0.4790510000000  0.5308300000000  0.6098490000000 1.0
C      1  0.4737580000000  0.6179450000000  0.5004500000000 1.0
C      1  0.4686730000000  0.5341810000000  0.3937890000000 1.0
C      1  0.4735500000000  0.4037020000000  0.4319090000000 1.0
C      1  0.5681490000000  0.5078180000000  0.5785510000000 1.0
C      1  0.5694140000000  0.5761920000000  0.5150100000000 1.0
C      1  0.5656720000000  0.5408870000000  0.4383090000000 1.0
C      1  0.5629960000000  0.4579640000000  0.4513670000000 1.0
C      1  0.5682310000000  0.4260890000000  0.5272200000000 1.0
C      1  0.5401760000000  0.5423330000000  0.4232450000000 1.0
C      1  0.5179860000000  0.4217000000000  0.4355120000000 1.0
C      1  0.5417540000000  0.4190030000000  0.5377980000000 1.0
C      1  0.5443910000000  0.5224360000000  0.5861020000000 1.0
C      1  0.5437970000000  0.5918030000000  0.5101270000000 1.0
C      1  0.4735020000000  0.3965680000000  0.4589830000000 1.0
C      1  0.4705920000000  0.4255870000000  0.5813920000000 1.0
C      1  0.4792820000000  0.5523210000000  0.5917180000000 1.0
C      1  0.4745590000000  0.6065850000000  0.4741530000000 1.0
C      1  0.4716590000000  0.5060010000000  0.3895180000000 1.0
C      1  0.4944980000000  0.4534640000000  0.4987540000000 1.0
C      1  0.4899170000000  0.4873450000000  0.5505240000000 1.0
C      1  0.4936920000000  0.5394350000000  0.5269590000000 1.0
C      1  0.4839380000000  0.5383180000000  0.4687300000000 1.0
C      1  0.4966030000000  0.4860750000000  0.4551940000000 1.0
C      1  0.5407700000000  0.5086790000000  0.5249670000000 1.0
C      1  0.5253960000000  0.5186700000000  0.5015710000000 1.0
C      1  0.5331640000000  0.5022280000000  0.4795990000000 1.0
C      1  0.5382740000000  0.4765240000000  0.4894460000000 1.0
C      1  0.5487110000000  0.4798780000000  0.5175420000000 1.0
C      1  0.4807420000000  0.5119970000000  0.5660790000000 1.0
C      1  0.4672020000000  0.5701790000000  0.5047760000000 1.0
C      1  0.4681970000000  0.5236210000000  0.4315740000000 1.0
C      1  0.4701570000000  0.4510590000000  0.4572150000000 1.0
C      1  0.4681710000000  0.4459860000000  0.5335080000000 1.0
C      1  0.4818890000000  0.4969490000000  0.4315460000000 1.0
C      1  0.4855900000000  0.4358840000000  0.4779630000000 1.0
C      1  0.4787180000000  0.4615400000000  0.5570020000000 1.0
C      1  0.5014110000000  0.5314510000000  0.5546000000000 1.0
C      1  0.4864180000000  0.5638190000000  0.4825990000000 1.0
C      1  0.5456220000000  0.5619430000000  0.5535490000000 1.0
C      1  0.5386910000000  0.5633340000000  0.4714990000000 1.0
C      1  0.5358980000000  0.4947630000000  0.4304930000000 1.0
C      1  0.5406140000000  0.4260960000000  0.4836350000000 1.0
C      1  0.5481030000000  0.4599080000000  0.5790000000000 1.0
C      1  0.5906070000000  0.5257680000000  0.4926550000000 1.0
C      1  0.5874900000000  0.5010710000000  0.4774220000000 1.0
C      1  0.5816680000000  0.4777260000000  0.4969650000000 1.0
C      1  0.5912050000000  0.4884080000000  0.5238600000000 1.0
C      1  0.5932770000000  0.5184730000000  0.5209220000000 1.0
C      1  0.4452780000000  0.4417220000000  0.5761760000000 1.0
C      1  0.4550020000000  0.5558940000000  0.5758570000000 1.0
C      1  0.4498140000000  0.5899900000000  0.4674810000000 1.0
C      1  0.4490930000000  0.4922250000000  0.4024670000000 1.0
C      1  0.4503180000000  0.4090530000000  0.4719530000000 1.0
C      1  0.5918190000000  0.5760510000000  0.4984090000000 1.0
C      1  0.5879800000000  0.5252100000000  0.4321280000000 1.0
C      1  0.5879690000000  0.4477640000000  0.4593700000000 1.0
C      1  0.5837380000000  0.4442710000000  0.5416340000000 1.0
C      1  0.5876460000000  0.5244200000000  0.5678900000000 1.0
C      1  0.4159690000000  0.4761700000000  0.4324150000000 1.0
C      1  0.4150790000000  0.4333730000000  0.4982040000000 1.0
C      1  0.4170520000000  0.4842870000000  0.5579280000000 1.0
C      1  0.4201190000000  0.5506680000000  0.5389990000000 1.0
C      1  0.4132160000000  0.5503420000000  0.4587980000000 1.0
C      1  0.5282890000000  0.5132500000000  0.5525640000000 1.0
C      1  0.5321490000000  0.5473520000000  0.4972890000000 1.0
C      1  0.5193810000000  0.5052290000000  0.4549510000000 1.0
C      1  0.5384570000000  0.4543880000000  0.4693170000000 1.0
C      1  0.5289430000000  0.4626820000000  0.5368310000000 1.0
C      1  0.5220360000000  0.5558290000000  0.4448330000000 1.0
C      1  0.5243160000000  0.4677280000000  0.4236720000000 1.0
C      1  0.5237570000000  0.4197610000000  0.5119300000000 1.0
C      1  0.5242950000000  0.4763210000000  0.5870170000000 1.0
C      1  0.5256930000000  0.5781210000000  0.5377470000000 1.0
C      1  0.4842690000000  0.5451240000000  0.4151020000000 1.0
C      1  0.4902780000000  0.4257340000000  0.4272610000000 1.0
C      1  0.4807910000000  0.4174510000000  0.5392170000000 1.0
C      1  0.4865960000000  0.5083920000000  0.5948750000000 1.0
C      1  0.4783380000000  0.5952780000000  0.5168180000000 1.0
C      1  0.5026100000000  0.4687120000000  0.4046740000000 1.0
C      1  0.5022780000000  0.3982120000000  0.5023340000000 1.0
C      1  0.5010610000000  0.4616350000000  0.5979460000000 1.0
C      1  0.5028860000000  0.5818010000000  0.5580520000000 1.0
C      1  0.5029450000000  0.5804000000000  0.4401710000000 1.0
C      1  0.4764710000000  0.4004950000000  0.5162350000000 1.0
C      1  0.4777810000000  0.4805390000000  0.6016850000000 1.0
C      1  0.4771470000000  0.5926150000000  0.5467650000000 1.0
C      1  0.4778450000000  0.5715040000000  0.4267060000000 1.0
C      1  0.4804370000000  0.4539580000000  0.4193980000000 1.0
C      1  0.5063610000000  0.5322820000000  0.4516430000000 1.0
C      1  0.5126650000000  0.4566160000000  0.4498720000000 1.0
C      1  0.5102760000000  0.4444710000000  0.5200910000000 1.0
C      1  0.5182810000000  0.4848220000000  0.5573050000000 1.0
C      1  0.5138430000000  0.5597940000000  0.5168900000000 1.0
C      1  0.4729350000000  0.5168940000000  0.4851530000000 1.0
C      1  0.4705380000000  0.4827180000000  0.4757510000000 1.0
C      1  0.4739540000000  0.4715330000000  0.5064320000000 1.0
C      1  0.4879040000000  0.4915220000000  0.5219870000000 1.0
C      1  0.4663830000000  0.5477360000000  0.5243150000000 1.0
C      1  0.5303240000000  0.5166400000000  0.4104320000000 1.0
C      1  0.5242440000000  0.4097080000000  0.4611390000000 1.0
C      1  0.5312080000000  0.4403260000000  0.5604190000000 1.0
C      1  0.5350250000000  0.5489800000000  0.5779810000000 1.0
C      1  0.5316040000000  0.5914390000000  0.4819840000000 1.0
C      1  0.4946130000000  0.5160700000000  0.5084520000000 1.0
END
