TITL C-3577083-591-251 -7.36258118871004e-07 125000 -482.199253967606 0 0 78 (C1) n - 1
REM
REM in /home/bkarasulu/work/CARBON/AIRSS/Generating-Clusters/EDIP-Nigel-Params/with-SteepDescent/Higher-Symm/SD-CG/HFTN-CG
REM
REM
REM
REM
REM
REM ./C.cell (12c818d87b63d06a65506943cc24bca4)
REM
REM compiler GCC version 9.2.1 20190827 (Red Hat 9.2.1-1)
REM options -cpp -mtune=generic -march=x86-64 -g -O0 -fpre-include=/usr/include/finclude/math-vector-fortran.h
REM seed 1558481892 -149943126 -1130201637 1229681225 -939306480 -1366376851 158497060 -2048806866 -1144704705 1985059818 2041002660 2122017942 -204293801 1143355972 -1157153908 370252243 809068483 -938197173 -2046465538 1276837435 123603941 -69573278 1193311409 1689211355 1251366681 286473942 -148790432 348339406 -194764915 -1033125175 1463172286 -113031278 -1424620751
REM
CELL 1.54180   50.00000   50.00000   50.00000   90.00000   90.00000   90.00000
LATT -1
SFAC C  
C      1  0.4335650000000  0.4706180000000  0.5163280000000 1.0
C      1  0.5656430000000  0.5271570000000  0.5165550000000 1.0
C      1  0.4311280000000  0.5312770000000  0.4846150000000 1.0
C      1  0.5681340000000  0.4695370000000  0.4813610000000 1.0
C      1  0.4710840000000  0.4334430000000  0.5152520000000 1.0
C      1  0.5297950000000  0.5659660000000  0.5157730000000 1.0
C      1  0.5316680000000  0.4305270000000  0.4832730000000 1.0
C      1  0.4692630000000  0.5685300000000  0.4841690000000 1.0
C      1  0.5241520000000  0.5615440000000  0.4692780000000 1.0
C      1  0.4743090000000  0.4387400000000  0.4679100000000 1.0
C      1  0.5275970000000  0.4371050000000  0.5310520000000 1.0
C      1  0.4747660000000  0.5640380000000  0.5319490000000 1.0
C      1  0.5611240000000  0.5231980000000  0.4687680000000 1.0
C      1  0.4371300000000  0.4766920000000  0.4695320000000 1.0
C      1  0.4363060000000  0.5260500000000  0.5324250000000 1.0
C      1  0.5647180000000  0.4765090000000  0.5277530000000 1.0
C      1  0.5515380000000  0.4680160000000  0.4544270000000 1.0
C      1  0.4467430000000  0.5323040000000  0.4572660000000 1.0
C      1  0.5508280000000  0.5307560000000  0.5430910000000 1.0
C      1  0.4497600000000  0.4696220000000  0.5429490000000 1.0
C      1  0.4678740000000  0.5526280000000  0.4570830000000 1.0
C      1  0.5309400000000  0.4467790000000  0.4556100000000 1.0
C      1  0.5302480000000  0.5513140000000  0.5429270000000 1.0
C      1  0.4708260000000  0.4493140000000  0.5421350000000 1.0
C      1  0.4465270000000  0.4265820000000  0.4720110000000 1.0
C      1  0.5528450000000  0.5727910000000  0.4731140000000 1.0
C      1  0.4465040000000  0.5762610000000  0.5281170000000 1.0
C      1  0.5566880000000  0.4261980000000  0.5266790000000 1.0
C      1  0.4249040000000  0.4485080000000  0.4733340000000 1.0
C      1  0.5741430000000  0.5504710000000  0.4725250000000 1.0
C      1  0.5778460000000  0.4484850000000  0.5244990000000 1.0
C      1  0.4245430000000  0.5546150000000  0.5284440000000 1.0
C      1  0.5473610000000  0.4731230000000  0.5030340000000 1.0
C      1  0.4515280000000  0.5265890000000  0.5062780000000 1.0
C      1  0.5451230000000  0.5230610000000  0.4945400000000 1.0
C      1  0.4538920000000  0.4761910000000  0.4948620000000 1.0
C      1  0.4736980000000  0.5483300000000  0.5060900000000 1.0
C      1  0.5261770000000  0.4510740000000  0.5043830000000 1.0
C      1  0.5238620000000  0.5451100000000  0.4948480000000 1.0
C      1  0.4753890000000  0.4541990000000  0.4938880000000 1.0
C      1  0.4933180000000  0.4659030000000  0.5523550000000 1.0
C      1  0.5080950000000  0.5351620000000  0.5542930000000 1.0
C      1  0.4898310000000  0.5369340000000  0.4441650000000 1.0
C      1  0.5087290000000  0.4635000000000  0.4436250000000 1.0
C      1  0.4658490000000  0.4921150000000  0.5537280000000 1.0
C      1  0.5355670000000  0.5086530000000  0.5544530000000 1.0
C      1  0.5357030000000  0.4904090000000  0.4424230000000 1.0
C      1  0.4623950000000  0.5103900000000  0.4442480000000 1.0
C      1  0.5190180000000  0.5414170000000  0.4476230000000 1.0
C      1  0.4792280000000  0.4592510000000  0.4467450000000 1.0
C      1  0.5223770000000  0.4592520000000  0.5510110000000 1.0
C      1  0.4795240000000  0.5427750000000  0.5529230000000 1.0
C      1  0.5407690000000  0.5193760000000  0.4469790000000 1.0
C      1  0.4573090000000  0.4813370000000  0.4476190000000 1.0
C      1  0.4580120000000  0.5208510000000  0.5528360000000 1.0
C      1  0.5432190000000  0.4810750000000  0.5492180000000 1.0
C      1  0.4132660000000  0.5083620000000  0.4893010000000 1.0
C      1  0.5861870000000  0.4924230000000  0.4880110000000 1.0
C      1  0.4148500000000  0.4929950000000  0.5122780000000 1.0
C      1  0.5812850000000  0.5006210000000  0.5153750000000 1.0
C      1  0.5106850000000  0.4110640000000  0.4893960000000 1.0
C      1  0.4924870000000  0.5860650000000  0.4882780000000 1.0
C      1  0.4941520000000  0.4155890000000  0.5109620000000 1.0
C      1  0.5078680000000  0.5850190000000  0.5112240000000 1.0
C      1  0.4208510000000  0.5581380000000  0.4970010000000 1.0
C      1  0.5799240000000  0.4435230000000  0.4934170000000 1.0
C      1  0.4225830000000  0.4441780000000  0.5046660000000 1.0
C      1  0.5778440000000  0.5532010000000  0.5038920000000 1.0
C      1  0.5591320000000  0.4214790000000  0.4950340000000 1.0
C      1  0.4426630000000  0.5795010000000  0.4966920000000 1.0
C      1  0.4441600000000  0.4226610000000  0.5035860000000 1.0
C      1  0.5568980000000  0.5756990000000  0.5043540000000 1.0
C      1  0.4654530000000  0.5018220000000  0.5010780000000 1.0
C      1  0.5330290000000  0.4974250000000  0.4989440000000 1.0
C      1  0.5013070000000  0.4651760000000  0.4992230000000 1.0
C      1  0.4980930000000  0.5338450000000  0.5009820000000 1.0
C      1  0.4898340000000  0.5094670000000  0.4909000000000 1.0
C      1  0.5083350000000  0.4900980000000  0.4896550000000 1.0
END
