TITL C-3578196-9646-651 1.52307250125528e-07 125000 -16.2501302961071 0 0 4 (D(inf)h) n - 1
REM
REM in /home/bkarasulu/work/CARBON/AIRSS/Generating-Clusters/EDIP-Nigel-Params/with-SteepDescent/Higher-Symm/SD-CG/HFTN-CG
REM
REM
REM
REM
REM
REM ./C.cell (12c818d87b63d06a65506943cc24bca4)
REM
REM compiler GCC version 9.2.1 20190827 (Red Hat 9.2.1-1)
REM options -cpp -mtune=generic -march=x86-64 -g -O0 -fpre-include=/usr/include/finclude/math-vector-fortran.h
REM seed 1558062804 431275029 -168728877 -575521947 1554169342 -912734269 -329759325 -1017895549 -266358211 946818709 -794143672 818950922 1240053097 -1956876567 34965445 -2020977955 -942409253 -788714987 -1250846570 223815174 -1294363938 2106455213 1626123795 -1580842118 1332991461 -896739135 119315976 64596705 865443804 -525355822 -252846409 678399112 2060714735
REM
CELL 1.54180   50.00000   50.00000   50.00000   90.00000   90.00000   90.00000
LATT -1
SFAC C  
C      1  0.4868070000000  0.4974540000000  0.5032980000000 1.0
C      1  0.4612370000000  0.4974540000000  0.5032980000000 1.0
C      1  0.5387630000000  0.4974540000000  0.5032980000000 1.0
C      1  0.5131930000000  0.4974540000000  0.5032980000000 1.0
END
