TITL C-3577082-504-14 -4.74517839991635e-06 125000 -905.743659512129 0 0 146 (C1) n - 1
REM
REM in /home/bkarasulu/work/CARBON/AIRSS/Generating-Clusters/EDIP-Nigel-Params/with-SteepDescent/Higher-Symm/SD-CG/HFTN-CG
REM
REM
REM
REM
REM
REM ./C.cell (12c818d87b63d06a65506943cc24bca4)
REM
REM compiler GCC version 9.2.1 20190827 (Red Hat 9.2.1-1)
REM options -cpp -mtune=generic -march=x86-64 -g -O0 -fpre-include=/usr/include/finclude/math-vector-fortran.h
REM seed -1272147338 -743965015 41578437 942467228 1273637104 1197608748 -1321855762 520536678 1459413433 -792369496 -745344309 -1265025321 1427928792 956006576 972027174 145972204 920883935 925258532 -119717187 -566506282 -1372306217 1078423361 -71618436 -1902841262 -323883722 2114261322 918820800 1350617493 1296209306 1429582891 1329310008 435896595 -983637892
REM
CELL 1.54180   50.00000   50.00000   50.00000   90.00000   90.00000   90.00000
LATT -1
SFAC C  
C      1  0.5204800000000  0.4493400000000  0.5625420000000 1.0
C      1  0.5147520000000  0.5743650000000  0.5027910000000 1.0
C      1  0.5184200000000  0.4650830000000  0.4295940000000 1.0
C      1  0.5488060000000  0.4365950000000  0.5605190000000 1.0
C      1  0.5423050000000  0.5759320000000  0.5152830000000 1.0
C      1  0.5471970000000  0.4732730000000  0.4222540000000 1.0
C      1  0.5227150000000  0.4673760000000  0.4845300000000 1.0
C      1  0.5246730000000  0.4921320000000  0.5287510000000 1.0
C      1  0.5198170000000  0.5186160000000  0.4831830000000 1.0
C      1  0.4959140000000  0.5452900000000  0.4125780000000 1.0
C      1  0.4999430000000  0.4013340000000  0.5041220000000 1.0
C      1  0.4972130000000  0.5587550000000  0.5845040000000 1.0
C      1  0.5106650000000  0.5049660000000  0.4014460000000 1.0
C      1  0.5075280000000  0.4043530000000  0.5472060000000 1.0
C      1  0.5059130000000  0.5856870000000  0.5506390000000 1.0
C      1  0.4134310000000  0.4833510000000  0.4473790000000 1.0
C      1  0.4144500000000  0.4620310000000  0.5410570000000 1.0
C      1  0.4083630000000  0.5550470000000  0.5121310000000 1.0
C      1  0.4510680000000  0.4552860000000  0.4872180000000 1.0
C      1  0.4549890000000  0.5120370000000  0.5479600000000 1.0
C      1  0.4433350000000  0.5420470000000  0.4639070000000 1.0
C      1  0.5496810000000  0.5199380000000  0.4805990000000 1.0
C      1  0.5525970000000  0.4674740000000  0.4871050000000 1.0
C      1  0.5533550000000  0.5006950000000  0.5302030000000 1.0
C      1  0.5859830000000  0.5302220000000  0.5506030000000 1.0
C      1  0.5856980000000  0.5271310000000  0.4488850000000 1.0
C      1  0.5898390000000  0.4393140000000  0.5000560000000 1.0
C      1  0.4784050000000  0.5955480000000  0.4590270000000 1.0
C      1  0.4777430000000  0.4216860000000  0.4425640000000 1.0
C      1  0.4700490000000  0.4945850000000  0.5976840000000 1.0
C      1  0.5554170000000  0.4970100000000  0.4378860000000 1.0
C      1  0.5593900000000  0.4394370000000  0.5317870000000 1.0
C      1  0.5466490000000  0.5487510000000  0.5275790000000 1.0
C      1  0.4269020000000  0.4370850000000  0.4628680000000 1.0
C      1  0.4283420000000  0.4989730000000  0.5728510000000 1.0
C      1  0.4185500000000  0.5712620000000  0.4639380000000 1.0
C      1  0.4356360000000  0.4738830000000  0.5586400000000 1.0
C      1  0.4253720000000  0.5704230000000  0.4924360000000 1.0
C      1  0.4326450000000  0.4615500000000  0.4476910000000 1.0
C      1  0.4367650000000  0.5809410000000  0.4452670000000 1.0
C      1  0.4398060000000  0.4144300000000  0.4766330000000 1.0
C      1  0.4360380000000  0.5250680000000  0.5851340000000 1.0
C      1  0.5396300000000  0.5423270000000  0.4345360000000 1.0
C      1  0.5438700000000  0.4163990000000  0.4934880000000 1.0
C      1  0.5374560000000  0.5319330000000  0.5749230000000 1.0
C      1  0.4876570000000  0.5228660000000  0.3953270000000 1.0
C      1  0.4842520000000  0.3954980000000  0.5302410000000 1.0
C      1  0.4838690000000  0.5823680000000  0.5702820000000 1.0
C      1  0.4627270000000  0.5216680000000  0.5983740000000 1.0
C      1  0.4640290000000  0.5824730000000  0.4375390000000 1.0
C      1  0.4680760000000  0.4077990000000  0.4665310000000 1.0
C      1  0.5694050000000  0.4571310000000  0.4139420000000 1.0
C      1  0.5679180000000  0.4482660000000  0.5781740000000 1.0
C      1  0.5646130000000  0.5916310000000  0.5072320000000 1.0
C      1  0.4861260000000  0.4196390000000  0.4859970000000 1.0
C      1  0.4827810000000  0.5334810000000  0.5800580000000 1.0
C      1  0.4753010000000  0.5557420000000  0.4298630000000 1.0
C      1  0.4875800000000  0.4879940000000  0.5016620000000 1.0
C      1  0.5061150000000  0.5095890000000  0.5423320000000 1.0
C      1  0.4760370000000  0.5104330000000  0.4903680000000 1.0
C      1  0.5591520000000  0.5395240000000  0.4573630000000 1.0
C      1  0.5633390000000  0.4381050000000  0.4842930000000 1.0
C      1  0.5597810000000  0.5148640000000  0.5591120000000 1.0
C      1  0.5580790000000  0.5664690000000  0.4683630000000 1.0
C      1  0.5606390000000  0.4371010000000  0.4552330000000 1.0
C      1  0.5603570000000  0.4847740000000  0.5891880000000 1.0
C      1  0.3961350000000  0.5169200000000  0.4781980000000 1.0
C      1  0.4003050000000  0.4698280000000  0.4958700000000 1.0
C      1  0.3982860000000  0.5088790000000  0.5255580000000 1.0
C      1  0.4667960000000  0.5381990000000  0.5560490000000 1.0
C      1  0.4579420000000  0.5338700000000  0.4379120000000 1.0
C      1  0.4684940000000  0.4359490000000  0.5020790000000 1.0
C      1  0.4205850000000  0.5054240000000  0.4311100000000 1.0
C      1  0.4204280000000  0.4435400000000  0.5167590000000 1.0
C      1  0.4241940000000  0.5437500000000  0.5348790000000 1.0
C      1  0.4721050000000  0.4772800000000  0.5238810000000 1.0
C      1  0.4665630000000  0.5339860000000  0.5062790000000 1.0
C      1  0.4616000000000  0.4981650000000  0.4675050000000 1.0
C      1  0.5258510000000  0.5170200000000  0.5960850000000 1.0
C      1  0.5282990000000  0.5679540000000  0.4328670000000 1.0
C      1  0.5317290000000  0.4058920000000  0.4702670000000 1.0
C      1  0.4598300000000  0.5076480000000  0.4011480000000 1.0
C      1  0.4582650000000  0.4114360000000  0.5369500000000 1.0
C      1  0.4557240000000  0.5811040000000  0.5572790000000 1.0
C      1  0.5980020000000  0.4663100000000  0.4523690000000 1.0
C      1  0.5973780000000  0.4778240000000  0.5526610000000 1.0
C      1  0.5956740000000  0.5566500000000  0.4954460000000 1.0
C      1  0.4810670000000  0.4787380000000  0.5758190000000 1.0
C      1  0.4746400000000  0.5813460000000  0.4853550000000 1.0
C      1  0.4792480000000  0.4514490000000  0.4451060000000 1.0
C      1  0.4734460000000  0.4362540000000  0.5496820000000 1.0
C      1  0.4655320000000  0.5839380000000  0.5278850000000 1.0
C      1  0.4721860000000  0.4883650000000  0.4210420000000 1.0
C      1  0.5123090000000  0.4775930000000  0.4561400000000 1.0
C      1  0.5227460000000  0.4634340000000  0.5363490000000 1.0
C      1  0.5118290000000  0.5427260000000  0.5009880000000 1.0
C      1  0.5806150000000  0.4492030000000  0.4384580000000 1.0
C      1  0.5734390000000  0.4733210000000  0.5661100000000 1.0
C      1  0.5770440000000  0.5758310000000  0.4879010000000 1.0
C      1  0.4341870000000  0.5128460000000  0.4722890000000 1.0
C      1  0.4429070000000  0.4747410000000  0.5104500000000 1.0
C      1  0.4421440000000  0.5226610000000  0.5211670000000 1.0
C      1  0.5981300000000  0.4691590000000  0.5019010000000 1.0
C      1  0.5946770000000  0.5165110000000  0.5242270000000 1.0
C      1  0.5957270000000  0.5122050000000  0.4736410000000 1.0
C      1  0.5234060000000  0.4187060000000  0.5160200000000 1.0
C      1  0.5227010000000  0.5570990000000  0.5689180000000 1.0
C      1  0.5201590000000  0.5202090000000  0.4277090000000 1.0
C      1  0.5790630000000  0.5097460000000  0.4274980000000 1.0
C      1  0.5844790000000  0.4272820000000  0.5252340000000 1.0
C      1  0.5669200000000  0.5520400000000  0.5487680000000 1.0
C      1  0.6004640000000  0.5294100000000  0.4977770000000 1.0
C      1  0.6020390000000  0.4823710000000  0.4751110000000 1.0
C      1  0.6008590000000  0.4873540000000  0.5266920000000 1.0
C      1  0.4480730000000  0.5883780000000  0.5021190000000 1.0
C      1  0.4564480000000  0.4634320000000  0.4301410000000 1.0
C      1  0.4599640000000  0.4581270000000  0.5669380000000 1.0
C      1  0.5349960000000  0.5806910000000  0.4569680000000 1.0
C      1  0.5366350000000  0.4214660000000  0.4473340000000 1.0
C      1  0.5318930000000  0.4904530000000  0.5893200000000 1.0
C      1  0.4994660000000  0.4793010000000  0.4103090000000 1.0
C      1  0.4995090000000  0.4277490000000  0.5614930000000 1.0
C      1  0.4958060000000  0.5879660000000  0.5234340000000 1.0
C      1  0.4757440000000  0.5086070000000  0.4443950000000 1.0
C      1  0.4824240000000  0.4492810000000  0.5239700000000 1.0
C      1  0.4804310000000  0.5479160000000  0.5310390000000 1.0
C      1  0.5121590000000  0.5877440000000  0.4750610000000 1.0
C      1  0.5128360000000  0.4343220000000  0.4335400000000 1.0
C      1  0.5110930000000  0.4706310000000  0.5816600000000 1.0
C      1  0.3939280000000  0.5287520000000  0.5046730000000 1.0
C      1  0.3981030000000  0.4881800000000  0.4728760000000 1.0
C      1  0.3966830000000  0.4800220000000  0.5231280000000 1.0
C      1  0.5610190000000  0.4935980000000  0.4690480000000 1.0
C      1  0.5622920000000  0.4703260000000  0.5175530000000 1.0
C      1  0.5588460000000  0.5248470000000  0.5104900000000 1.0
C      1  0.4645390000000  0.5523340000000  0.4825880000000 1.0
C      1  0.4722160000000  0.4681690000000  0.4716860000000 1.0
C      1  0.4797630000000  0.4948150000000  0.5481650000000 1.0
C      1  0.5121020000000  0.4476350000000  0.5147930000000 1.0
C      1  0.5098830000000  0.5380540000000  0.5324500000000 1.0
C      1  0.5064610000000  0.5079220000000  0.4529420000000 1.0
C      1  0.4367890000000  0.4169110000000  0.5128080000000 1.0
C      1  0.4397360000000  0.5534090000000  0.5622460000000 1.0
C      1  0.4390680000000  0.5222840000000  0.4175360000000 1.0
C      1  0.4290170000000  0.5021160000000  0.5031620000000 1.0
C      1  0.5158890000000  0.4925520000000  0.5001460000000 1.0
END
