TITL C-3578203-1966-487 -3.17333226765421e-07 125000 -808.476824499343 0 0 129 (C1) n - 1
REM
REM in /home/bkarasulu/work/CARBON/AIRSS/Generating-Clusters/EDIP-Nigel-Params/with-SteepDescent/Higher-Symm/SD-CG/HFTN-CG
REM
REM
REM
REM
REM
REM ./C.cell (12c818d87b63d06a65506943cc24bca4)
REM
REM compiler GCC version 9.2.1 20190827 (Red Hat 9.2.1-1)
REM options -cpp -mtune=generic -march=x86-64 -g -O0 -fpre-include=/usr/include/finclude/math-vector-fortran.h
REM seed -973996231 667142305 -1529310614 1597971347 -1509756550 999542377 -1159529775 -154661995 -1049524538 -352454883 1868610822 299521655 -1193104351 -1326638824 -694821075 1812337743 992890231 -1981679443 -1114685657 1583476962 1475749514 -390664024 1801423082 628414982 43284735 -957004331 545844645 -109975390 -478790347 200177257 2136605287 1120168639 258773162
REM
CELL 1.54180   50.00000   50.00000   50.00000   90.00000   90.00000   90.00000
LATT -1
SFAC C  
C      1  0.4069460000000  0.5497560000000  0.4942190000000 1.0
C      1  0.4069570000000  0.4701600000000  0.4598030000000 1.0
C      1  0.4069630000000  0.4801380000000  0.5460120000000 1.0
C      1  0.5245590000000  0.5609970000000  0.5744500000000 1.0
C      1  0.5247200000000  0.5336600000000  0.4102020000000 1.0
C      1  0.5249290000000  0.4060310000000  0.5149950000000 1.0
C      1  0.5464700000000  0.4262700000000  0.5581320000000 1.0
C      1  0.5462700000000  0.5879300000000  0.5350220000000 1.0
C      1  0.5463110000000  0.4860610000000  0.4063090000000 1.0
C      1  0.5251250000000  0.4637710000000  0.5805770000000 1.0
C      1  0.5250180000000  0.5880470000000  0.4913430000000 1.0
C      1  0.5248490000000  0.4479990000000  0.4275830000000 1.0
C      1  0.4779190000000  0.5437090000000  0.5658720000000 1.0
C      1  0.4782320000000  0.5348110000000  0.4296400000000 1.0
C      1  0.4781000000000  0.4214020000000  0.5048750000000 1.0
C      1  0.5050350000000  0.5751080000000  0.4733140000000 1.0
C      1  0.5045220000000  0.4390600000000  0.4476870000000 1.0
C      1  0.5048240000000  0.4856490000000  0.5787970000000 1.0
C      1  0.5796370000000  0.5069970000000  0.4525570000000 1.0
C      1  0.5793550000000  0.4561160000000  0.5174290000000 1.0
C      1  0.5796900000000  0.5376790000000  0.5302050000000 1.0
C      1  0.5916440000000  0.4777520000000  0.4991990000000 1.0
C      1  0.5915000000000  0.5109520000000  0.5203060000000 1.0
C      1  0.5911580000000  0.5122560000000  0.4806480000000 1.0
C      1  0.4303620000000  0.4635700000000  0.5515600000000 1.0
C      1  0.4303040000000  0.5628850000000  0.5057930000000 1.0
C      1  0.4302070000000  0.4735580000000  0.4424650000000 1.0
C      1  0.5042630000000  0.4931980000000  0.4297140000000 1.0
C      1  0.5042940000000  0.4427400000000  0.5405450000000 1.0
C      1  0.5041600000000  0.5640630000000  0.5296640000000 1.0
C      1  0.5674200000000  0.5844350000000  0.5127410000000 1.0
C      1  0.5673050000000  0.4685370000000  0.4205810000000 1.0
C      1  0.5675440000000  0.4471840000000  0.5666090000000 1.0
C      1  0.4569500000000  0.4363310000000  0.5596130000000 1.0
C      1  0.4568480000000  0.5835530000000  0.5253040000000 1.0
C      1  0.4567270000000  0.4802270000000  0.4147900000000 1.0
C      1  0.4339880000000  0.5683410000000  0.5345480000000 1.0
C      1  0.4339670000000  0.4958290000000  0.4235210000000 1.0
C      1  0.4340930000000  0.4359850000000  0.5418630000000 1.0
C      1  0.5701310000000  0.5058240000000  0.5683600000000 1.0
C      1  0.5696070000000  0.5556190000000  0.4616180000000 1.0
C      1  0.5703370000000  0.4380430000000  0.4708560000000 1.0
C      1  0.4809440000000  0.5297590000000  0.5920950000000 1.0
C      1  0.4812320000000  0.5644910000000  0.4285260000000 1.0
C      1  0.4810380000000  0.4056750000000  0.4796860000000 1.0
C      1  0.4251830000000  0.5255900000000  0.5651860000000 1.0
C      1  0.4253670000000  0.5436090000000  0.4453280000000 1.0
C      1  0.4251730000000  0.4307960000000  0.4896530000000 1.0
C      1  0.5506880000000  0.5403850000000  0.5408640000000 1.0
C      1  0.5506540000000  0.5145420000000  0.4448270000000 1.0
C      1  0.5502780000000  0.4458660000000  0.5140790000000 1.0
C      1  0.4767670000000  0.4546040000000  0.5474590000000 1.0
C      1  0.4767340000000  0.5638590000000  0.5157470000000 1.0
C      1  0.4766000000000  0.4814960000000  0.4366570000000 1.0
C      1  0.5065380000000  0.5191030000000  0.4723370000000 1.0
C      1  0.5061700000000  0.4659730000000  0.4964690000000 1.0
C      1  0.5062280000000  0.5144220000000  0.5317210000000 1.0
C      1  0.3976700000000  0.4725200000000  0.5199960000000 1.0
C      1  0.3976660000000  0.5310360000000  0.5138240000000 1.0
C      1  0.3977190000000  0.4964900000000  0.4662550000000 1.0
C      1  0.4626960000000  0.4985790000000  0.5534250000000 1.0
C      1  0.4630750000000  0.5466440000000  0.4746820000000 1.0
C      1  0.4626210000000  0.4544770000000  0.4719620000000 1.0
C      1  0.4577870000000  0.5153250000000  0.5985580000000 1.0
C      1  0.4581030000000  0.5774900000000  0.4375860000000 1.0
C      1  0.4577310000000  0.4069120000000  0.4641370000000 1.0
C      1  0.5505500000000  0.4820680000000  0.4848100000000 1.0
C      1  0.5504500000000  0.4959780000000  0.5202590000000 1.0
C      1  0.5503560000000  0.5192350000000  0.4948670000000 1.0
C      1  0.4798120000000  0.4547740000000  0.4483190000000 1.0
C      1  0.4801660000000  0.4781260000000  0.5648040000000 1.0
C      1  0.4803520000000  0.5668480000000  0.4867250000000 1.0
C      1  0.5061550000000  0.5139130000000  0.5912760000000 1.0
C      1  0.5063990000000  0.5717700000000  0.4426300000000 1.0
C      1  0.5060510000000  0.4144620000000  0.4661020000000 1.0
C      1  0.5483600000000  0.5662640000000  0.5556780000000 1.0
C      1  0.5484260000000  0.5146900000000  0.4149900000000 1.0
C      1  0.5484860000000  0.4197910000000  0.5288570000000 1.0
C      1  0.4531690000000  0.4835340000000  0.4808590000000 1.0
C      1  0.4531620000000  0.4917100000000  0.5239370000000 1.0
C      1  0.4532460000000  0.5248920000000  0.4953600000000 1.0
C      1  0.5761530000000  0.4932380000000  0.5417000000000 1.0
C      1  0.5756920000000  0.5391920000000  0.4859660000000 1.0
C      1  0.5763760000000  0.4675130000000  0.4728610000000 1.0
C      1  0.5203140000000  0.4389750000000  0.5652040000000 1.0
C      1  0.5201170000000  0.5873440000000  0.5204980000000 1.0
C      1  0.5200370000000  0.4737310000000  0.4137430000000 1.0
C      1  0.4083470000000  0.4553570000000  0.4871330000000 1.0
C      1  0.4083240000000  0.5111890000000  0.5451570000000 1.0
C      1  0.4083970000000  0.5335260000000  0.4677530000000 1.0
C      1  0.4236030000000  0.4756030000000  0.5052620000000 1.0
C      1  0.4235920000000  0.5167580000000  0.5185630000000 1.0
C      1  0.4236760000000  0.5076990000000  0.4762620000000 1.0
C      1  0.5832180000000  0.4792800000000  0.4453470000000 1.0
C      1  0.5832090000000  0.4635770000000  0.5450250000000 1.0
C      1  0.5831770000000  0.5574710000000  0.5095540000000 1.0
C      1  0.5241840000000  0.5327820000000  0.4922820000000 1.0
C      1  0.5243740000000  0.4743560000000  0.4742430000000 1.0
C      1  0.5242230000000  0.4906410000000  0.5328960000000 1.0
C      1  0.5297340000000  0.5319150000000  0.5841200000000 1.0
C      1  0.5298750000000  0.5564130000000  0.4306930000000 1.0
C      1  0.5296780000000  0.4128540000000  0.4851140000000 1.0
C      1  0.5214230000000  0.4992350000000  0.4559670000000 1.0
C      1  0.5210920000000  0.4622970000000  0.5217930000000 1.0
C      1  0.5211430000000  0.5381430000000  0.5225170000000 1.0
C      1  0.4993330000000  0.5190080000000  0.4152700000000 1.0
C      1  0.4994380000000  0.4171660000000  0.5255950000000 1.0
C      1  0.4991190000000  0.5639880000000  0.5592430000000 1.0
C      1  0.4434320000000  0.5474890000000  0.5548800000000 1.0
C      1  0.4435860000000  0.5237380000000  0.4315130000000 1.0
C      1  0.4435350000000  0.4288790000000  0.5136690000000 1.0
C      1  0.4626530000000  0.5370210000000  0.5222490000000 1.0
C      1  0.4626900000000  0.5005660000000  0.4568050000000 1.0
C      1  0.4627100000000  0.4623960000000  0.5209240000000 1.0
C      1  0.5674690000000  0.4893990000000  0.5906230000000 1.0
C      1  0.5671020000000  0.5831650000000  0.4642510000000 1.0
C      1  0.5674050000000  0.4268990000000  0.4455230000000 1.0
C      1  0.4441890000000  0.5621660000000  0.4565940000000 1.0
C      1  0.4437420000000  0.4310260000000  0.4677390000000 1.0
C      1  0.4437700000000  0.5064310000000  0.5758770000000 1.0
C      1  0.4797060000000  0.5264310000000  0.4595330000000 1.0
C      1  0.4793760000000  0.4513850000000  0.4970030000000 1.0
C      1  0.4792550000000  0.5219120000000  0.5437810000000 1.0
C      1  0.5540510000000  0.4425100000000  0.4264600000000 1.0
C      1  0.5541770000000  0.4651520000000  0.5863310000000 1.0
C      1  0.5540530000000  0.5922650000000  0.4872360000000 1.0
C      1  0.5469310000000  0.5430790000000  0.4505450000000 1.0
C      1  0.5460810000000  0.4375600000000  0.4859360000000 1.0
C      1  0.5471960000000  0.5213440000000  0.5629130000000 1.0
END
