TITL C-3577085-527-740 -2.10474599365016e-06 125000 -244.763016456963 0 0 42 (C1) n - 1
REM
REM in /home/bkarasulu/work/CARBON/AIRSS/Generating-Clusters/EDIP-Nigel-Params/with-SteepDescent/Higher-Symm/SD-CG/HFTN-CG
REM
REM
REM
REM
REM
REM ./C.cell (12c818d87b63d06a65506943cc24bca4)
REM
REM compiler GCC version 9.2.1 20190827 (Red Hat 9.2.1-1)
REM options -cpp -mtune=generic -march=x86-64 -g -O0 -fpre-include=/usr/include/finclude/math-vector-fortran.h
REM seed 1665854589 -793603352 1054539098 540456441 579811201 497225304 -549543252 449555773 1157835352 -557880576 398489045 -2118600211 -1619817982 -1837401399 -1658969045 -917033452 1462002286 -1547382179 1941935792 -300431283 1647897183 1338390252 -1345432583 691351052 1137170696 945803224 965583932 1684229804 241503646 -1925757988 930185860 365528141 367972640
REM
CELL 1.54180   50.00000   50.00000   50.00000   90.00000   90.00000   90.00000
LATT -1
SFAC C  
C      1  0.5283780000000  0.4543890000000  0.4772320000000 1.0
C      1  0.5020090000000  0.4651300000000  0.4665220000000 1.0
C      1  0.4737240000000  0.4603060000000  0.4772030000000 1.0
C      1  0.4670710000000  0.4585570000000  0.5055660000000 1.0
C      1  0.4834900000000  0.4500070000000  0.5290610000000 1.0
C      1  0.5140120000000  0.4531410000000  0.5302540000000 1.0
C      1  0.5289940000000  0.4459540000000  0.5052120000000 1.0
C      1  0.5474990000000  0.5301900000000  0.4588320000000 1.0
C      1  0.4985730000000  0.5246720000000  0.4409820000000 1.0
C      1  0.4494930000000  0.5291020000000  0.4601000000000 1.0
C      1  0.4368620000000  0.5324730000000  0.5111330000000 1.0
C      1  0.4699780000000  0.5294630000000  0.5518910000000 1.0
C      1  0.5226800000000  0.5267190000000  0.5595960000000 1.0
C      1  0.5531370000000  0.5307720000000  0.5131550000000 1.0
C      1  0.5049140000000  0.4938680000000  0.4722930000000 1.0
C      1  0.4781980000000  0.5041890000000  0.4806520000000 1.0
C      1  0.4707510000000  0.5042390000000  0.5098220000000 1.0
C      1  0.4899940000000  0.4890860000000  0.5273520000000 1.0
C      1  0.5201010000000  0.4934630000000  0.5307680000000 1.0
C      1  0.5384690000000  0.4826430000000  0.5095300000000 1.0
C      1  0.5323510000000  0.4977240000000  0.4844160000000 1.0
C      1  0.4961050000000  0.5354240000000  0.5598060000000 1.0
C      1  0.5367230000000  0.5326850000000  0.5359570000000 1.0
C      1  0.5413850000000  0.5350500000000  0.4870810000000 1.0
C      1  0.5245850000000  0.5346810000000  0.4434030000000 1.0
C      1  0.4781020000000  0.5353380000000  0.4590050000000 1.0
C      1  0.4370510000000  0.5384860000000  0.4836440000000 1.0
C      1  0.4622370000000  0.5378060000000  0.5250260000000 1.0
C      1  0.4761100000000  0.4804650000000  0.5521790000000 1.0
C      1  0.5267190000000  0.4789690000000  0.5555530000000 1.0
C      1  0.5663790000000  0.4847960000000  0.5168560000000 1.0
C      1  0.5496110000000  0.4830870000000  0.4650520000000 1.0
C      1  0.5022490000000  0.4729140000000  0.4383070000000 1.0
C      1  0.4546350000000  0.4757400000000  0.4625640000000 1.0
C      1  0.4455560000000  0.4890110000000  0.5121080000000 1.0
C      1  0.4454830000000  0.5010890000000  0.4557970000000 1.0
C      1  0.4251560000000  0.5074050000000  0.5168850000000 1.0
C      1  0.4627230000000  0.5035280000000  0.5594800000000 1.0
C      1  0.5284990000000  0.5018620000000  0.5723620000000 1.0
C      1  0.5723990000000  0.5109050000000  0.5146410000000 1.0
C      1  0.5608870000000  0.5058690000000  0.4524070000000 1.0
C      1  0.4967300000000  0.4988030000000  0.4303140000000 1.0
END
