TITL C-3578194-7807-118 3.05875586222531e-07 125000 -896.895953233816 0 0 146 (C1) n - 1
REM
REM in /home/bkarasulu/work/CARBON/AIRSS/Generating-Clusters/EDIP-Nigel-Params/with-SteepDescent/Higher-Symm/SD-CG/HFTN-CG
REM
REM
REM
REM
REM
REM ./C.cell (12c818d87b63d06a65506943cc24bca4)
REM
REM compiler GCC version 9.2.1 20190827 (Red Hat 9.2.1-1)
REM options -cpp -mtune=generic -march=x86-64 -g -O0 -fpre-include=/usr/include/finclude/math-vector-fortran.h
REM seed -1208047692 -809727068 -1478532651 805774491 1644260364 303949611 -642697134 1562251416 1115940701 -468725172 230885384 736820353 1374687092 -801031129 894807895 1472058592 -572986137 1750857024 -211885172 920888396 -444275231 -1327443510 879764155 -1172900987 -1871991405 1551958986 2105524558 -1774059452 1716454333 1149122741 1701476948 1125987658 1584785360
REM
CELL 1.54180   50.00000   50.00000   50.00000   90.00000   90.00000   90.00000
LATT -1
SFAC C  
C      1  0.5189940000000  0.3817500000000  0.5274590000000 1.0
C      1  0.4991000000000  0.4018360000000  0.5321880000000 1.0
C      1  0.4765410000000  0.4013570000000  0.5093660000000 1.0
C      1  0.4900400000000  0.3968250000000  0.4819010000000 1.0
C      1  0.5144930000000  0.3818390000000  0.4808380000000 1.0
C      1  0.5404810000000  0.3932430000000  0.4856430000000 1.0
C      1  0.5398880000000  0.3970100000000  0.5156210000000 1.0
C      1  0.4918850000000  0.5982090000000  0.5274310000000 1.0
C      1  0.4675780000000  0.6024590000000  0.5094570000000 1.0
C      1  0.4724610000000  0.6016050000000  0.4800430000000 1.0
C      1  0.5000250000000  0.6054580000000  0.4690610000000 1.0
C      1  0.5222380000000  0.5930560000000  0.4859860000000 1.0
C      1  0.5423410000000  0.6042130000000  0.5059060000000 1.0
C      1  0.5282130000000  0.6089330000000  0.5310990000000 1.0
C      1  0.5441000000000  0.5233190000000  0.4792100000000 1.0
C      1  0.5485540000000  0.5266370000000  0.5266500000000 1.0
C      1  0.5039230000000  0.5395790000000  0.5397390000000 1.0
C      1  0.4603140000000  0.5230160000000  0.5458640000000 1.0
C      1  0.4526080000000  0.5263820000000  0.4983600000000 1.0
C      1  0.4686490000000  0.5285250000000  0.4527260000000 1.0
C      1  0.5150030000000  0.5290350000000  0.4468280000000 1.0
C      1  0.4746020000000  0.4956290000000  0.5368720000000 1.0
C      1  0.4719450000000  0.5040130000000  0.4934460000000 1.0
C      1  0.4788850000000  0.5012990000000  0.4632280000000 1.0
C      1  0.5109230000000  0.5006900000000  0.4600650000000 1.0
C      1  0.5249930000000  0.5019030000000  0.4876980000000 1.0
C      1  0.5317210000000  0.5004250000000  0.5264340000000 1.0
C      1  0.5030780000000  0.5114270000000  0.5288290000000 1.0
C      1  0.4765920000000  0.5534740000000  0.4692050000000 1.0
C      1  0.5019440000000  0.5569560000000  0.4556170000000 1.0
C      1  0.5300540000000  0.5495400000000  0.4826570000000 1.0
C      1  0.5413930000000  0.5531200000000  0.5118250000000 1.0
C      1  0.5206940000000  0.5633530000000  0.5289310000000 1.0
C      1  0.4758610000000  0.5477380000000  0.5398300000000 1.0
C      1  0.4636710000000  0.5522710000000  0.5125840000000 1.0
C      1  0.4308900000000  0.4613970000000  0.5330970000000 1.0
C      1  0.4160830000000  0.4415430000000  0.4741010000000 1.0
C      1  0.4797750000000  0.4564330000000  0.4220110000000 1.0
C      1  0.5415840000000  0.4546510000000  0.4337420000000 1.0
C      1  0.5869330000000  0.4433560000000  0.4838340000000 1.0
C      1  0.5541280000000  0.4551290000000  0.5644950000000 1.0
C      1  0.4931280000000  0.4444650000000  0.5904520000000 1.0
C      1  0.5372590000000  0.4436690000000  0.5879180000000 1.0
C      1  0.4424320000000  0.4472610000000  0.5745090000000 1.0
C      1  0.4126810000000  0.4424670000000  0.5181350000000 1.0
C      1  0.4373950000000  0.4441070000000  0.4250250000000 1.0
C      1  0.5060020000000  0.4485290000000  0.4079270000000 1.0
C      1  0.5681750000000  0.4410660000000  0.4385410000000 1.0
C      1  0.5868100000000  0.4436920000000  0.5365250000000 1.0
C      1  0.5831660000000  0.4990270000000  0.4861390000000 1.0
C      1  0.5654310000000  0.5092480000000  0.5637980000000 1.0
C      1  0.4895460000000  0.5042450000000  0.5859520000000 1.0
C      1  0.4182980000000  0.5099900000000  0.5493200000000 1.0
C      1  0.4215540000000  0.5001140000000  0.4736150000000 1.0
C      1  0.4695520000000  0.5115400000000  0.4115740000000 1.0
C      1  0.5455130000000  0.5098480000000  0.4205810000000 1.0
C      1  0.4999120000000  0.5876810000000  0.4440300000000 1.0
C      1  0.5399130000000  0.5762720000000  0.4655080000000 1.0
C      1  0.5607720000000  0.5782040000000  0.5083470000000 1.0
C      1  0.5344290000000  0.5849310000000  0.5466150000000 1.0
C      1  0.4797670000000  0.5816520000000  0.5518620000000 1.0
C      1  0.4488070000000  0.5808000000000  0.5185810000000 1.0
C      1  0.4593080000000  0.5789780000000  0.4646910000000 1.0
C      1  0.4704290000000  0.4594420000000  0.5750350000000 1.0
C      1  0.4582150000000  0.4777390000000  0.5112820000000 1.0
C      1  0.4342170000000  0.4552320000000  0.4536360000000 1.0
C      1  0.4821620000000  0.4681800000000  0.4512110000000 1.0
C      1  0.5335510000000  0.4684490000000  0.4615170000000 1.0
C      1  0.5839220000000  0.4563740000000  0.5096960000000 1.0
C      1  0.5332390000000  0.4761910000000  0.5498600000000 1.0
C      1  0.5268440000000  0.5588260000000  0.4164070000000 1.0
C      1  0.5806450000000  0.5471240000000  0.4704460000000 1.0
C      1  0.5760530000000  0.5565800000000  0.5440270000000 1.0
C      1  0.5089300000000  0.5515160000000  0.5822520000000 1.0
C      1  0.4402820000000  0.5579430000000  0.5646190000000 1.0
C      1  0.4151990000000  0.5489360000000  0.4898880000000 1.0
C      1  0.4511880000000  0.5589150000000  0.4256060000000 1.0
C      1  0.5145470000000  0.4267020000000  0.5451260000000 1.0
C      1  0.4636230000000  0.4336860000000  0.5377940000000 1.0
C      1  0.4585770000000  0.4265770000000  0.5099740000000 1.0
C      1  0.4737660000000  0.4239210000000  0.4512900000000 1.0
C      1  0.5060670000000  0.4262680000000  0.4532080000000 1.0
C      1  0.5414850000000  0.4183980000000  0.4677740000000 1.0
C      1  0.5409580000000  0.4247510000000  0.5282820000000 1.0
C      1  0.4412640000000  0.4282140000000  0.5536080000000 1.0
C      1  0.4291340000000  0.4231470000000  0.5020970000000 1.0
C      1  0.4609240000000  0.4254470000000  0.4251050000000 1.0
C      1  0.5199270000000  0.4299740000000  0.4271220000000 1.0
C      1  0.5621040000000  0.4149230000000  0.4474390000000 1.0
C      1  0.5625660000000  0.4294150000000  0.5475760000000 1.0
C      1  0.5153120000000  0.4252910000000  0.5758820000000 1.0
C      1  0.5439960000000  0.4975990000000  0.5808230000000 1.0
C      1  0.4658000000000  0.4883240000000  0.5795500000000 1.0
C      1  0.4106120000000  0.4973420000000  0.5244420000000 1.0
C      1  0.4333660000000  0.4851540000000  0.4509360000000 1.0
C      1  0.4949770000000  0.5026770000000  0.4021580000000 1.0
C      1  0.5650590000000  0.4967240000000  0.4367660000000 1.0
C      1  0.5838700000000  0.4850060000000  0.5123290000000 1.0
C      1  0.5810400000000  0.4917440000000  0.5431500000000 1.0
C      1  0.5159980000000  0.4898880000000  0.5870360000000 1.0
C      1  0.4363030000000  0.4941190000000  0.5691120000000 1.0
C      1  0.4167840000000  0.4855250000000  0.4989300000000 1.0
C      1  0.4489680000000  0.4924430000000  0.4245970000000 1.0
C      1  0.5208720000000  0.4954680000000  0.4119390000000 1.0
C      1  0.5747850000000  0.4848690000000  0.4608510000000 1.0
C      1  0.4310830000000  0.5507400000000  0.4459020000000 1.0
C      1  0.4988090000000  0.5513180000000  0.4126710000000 1.0
C      1  0.5646650000000  0.5454770000000  0.4467920000000 1.0
C      1  0.5853220000000  0.5488030000000  0.5150360000000 1.0
C      1  0.5348010000000  0.5471670000000  0.5700550000000 1.0
C      1  0.4637610000000  0.5510850000000  0.5823640000000 1.0
C      1  0.4197760000000  0.5483080000000  0.5183330000000 1.0
C      1  0.4646140000000  0.5839230000000  0.4351070000000 1.0
C      1  0.5301620000000  0.5831420000000  0.4346850000000 1.0
C      1  0.5793090000000  0.5723550000000  0.4852830000000 1.0
C      1  0.5624940000000  0.5807240000000  0.5513950000000 1.0
C      1  0.4926080000000  0.5763460000000  0.5788350000000 1.0
C      1  0.4492520000000  0.5822560000000  0.5493910000000 1.0
C      1  0.4251550000000  0.5696310000000  0.4687510000000 1.0
C      1  0.5565250000000  0.5354560000000  0.5533020000000 1.0
C      1  0.4869290000000  0.5325550000000  0.5799970000000 1.0
C      1  0.4313950000000  0.5360950000000  0.5433750000000 1.0
C      1  0.4324280000000  0.5275390000000  0.4767150000000 1.0
C      1  0.4734890000000  0.5382520000000  0.4238080000000 1.0
C      1  0.5405170000000  0.5362790000000  0.4320470000000 1.0
C      1  0.5722360000000  0.5261030000000  0.4897250000000 1.0
C      1  0.4616010000000  0.4492710000000  0.4648500000000 1.0
C      1  0.5064280000000  0.4549930000000  0.4645710000000 1.0
C      1  0.5487080000000  0.4457290000000  0.4809010000000 1.0
C      1  0.5402950000000  0.4481580000000  0.5091280000000 1.0
C      1  0.5080430000000  0.4563160000000  0.5404600000000 1.0
C      1  0.4781170000000  0.4597250000000  0.5458140000000 1.0
C      1  0.4685610000000  0.4511940000000  0.4955140000000 1.0
C      1  0.5839070000000  0.4571910000000  0.4583010000000 1.0
C      1  0.5847530000000  0.4662730000000  0.5573170000000 1.0
C      1  0.5157450000000  0.4628990000000  0.5987610000000 1.0
C      1  0.4249290000000  0.4680970000000  0.5627890000000 1.0
C      1  0.4047770000000  0.4592610000000  0.4953550000000 1.0
C      1  0.4525290000000  0.4665560000000  0.4107110000000 1.0
C      1  0.5287080000000  0.4685170000000  0.4076480000000 1.0
C      1  0.4882540000000  0.5529400000000  0.4971520000000 1.0
C      1  0.4993420000000  0.5158270000000  0.5006380000000 1.0
C      1  0.5149250000000  0.4622570000000  0.5122680000000 1.0
C      1  0.4988340000000  0.4485790000000  0.4928430000000 1.0
C      1  0.5079750000000  0.4198190000000  0.4957660000000 1.0
C      1  0.5041510000000  0.5772480000000  0.5076100000000 1.0
END
