TITL C-3578209-2550-630 -8.65992855797297e-08 125000 -113.215804548615 0 0 20 (Ci) n - 1
REM
REM in /home/bkarasulu/work/CARBON/AIRSS/Generating-Clusters/EDIP-Nigel-Params/with-SteepDescent/Higher-Symm/SD-CG/HFTN-CG
REM
REM
REM
REM
REM
REM ./C.cell (12c818d87b63d06a65506943cc24bca4)
REM
REM compiler GCC version 9.2.1 20190827 (Red Hat 9.2.1-1)
REM options -cpp -mtune=generic -march=x86-64 -g -O0 -fpre-include=/usr/include/finclude/math-vector-fortran.h
REM seed 56055786 -989708961 61106781 -1042695477 1042625502 1283795950 923130230 141871139 805141334 -969782747 1111738232 1479263039 177055167 1353123564 -2131852921 -701900813 319075385 -381812605 290830958 -945200701 -924107157 -1748726399 -1487647574 -2046362515 -1322281394 -1620545664 1003524547 -1241025166 -1271079459 -746118155 211050389 -860936869 -57924384
REM
CELL 1.54180   50.00000   50.00000   50.00000   90.00000   90.00000   90.00000
LATT -1
SFAC C  
C      1  0.5229170000000  0.5403410000000  0.5147250000000 1.0
C      1  0.4770830000000  0.4596590000000  0.4852750000000 1.0
C      1  0.5319250000000  0.4942200000000  0.5208050000000 1.0
C      1  0.4680750000000  0.5057800000000  0.4791950000000 1.0
C      1  0.5475480000000  0.4672970000000  0.4920890000000 1.0
C      1  0.4524520000000  0.5327030000000  0.5079110000000 1.0
C      1  0.5248190000000  0.4628380000000  0.4783770000000 1.0
C      1  0.4751810000000  0.5371620000000  0.5216230000000 1.0
C      1  0.5177510000000  0.5095180000000  0.4671200000000 1.0
C      1  0.4822490000000  0.4904820000000  0.5328800000000 1.0
C      1  0.4818000000000  0.5174600000000  0.5410820000000 1.0
C      1  0.5182000000000  0.4825400000000  0.4589180000000 1.0
C      1  0.4972770000000  0.5392670000000  0.5024190000000 1.0
C      1  0.5027230000000  0.4607330000000  0.4975810000000 1.0
C      1  0.5415560000000  0.5173610000000  0.4802580000000 1.0
C      1  0.4584440000000  0.4826390000000  0.5197420000000 1.0
C      1  0.5066310000000  0.4808150000000  0.5191860000000 1.0
C      1  0.4933690000000  0.5191850000000  0.4808140000000 1.0
C      1  0.5398860000000  0.5187930000000  0.5084630000000 1.0
C      1  0.4601140000000  0.4812070000000  0.4915370000000 1.0
END
