TITL C-3578206-1180-594 -1.43713057695737e-06 125000 -593.192879434145 0 0 94 (C1) n - 1
REM
REM in /home/bkarasulu/work/CARBON/AIRSS/Generating-Clusters/EDIP-Nigel-Params/with-SteepDescent/Higher-Symm/SD-CG/HFTN-CG
REM
REM
REM
REM
REM
REM ./C.cell (12c818d87b63d06a65506943cc24bca4)
REM
REM compiler GCC version 9.2.1 20190827 (Red Hat 9.2.1-1)
REM options -cpp -mtune=generic -march=x86-64 -g -O0 -fpre-include=/usr/include/finclude/math-vector-fortran.h
REM seed -672448559 -1521760684 370973539 184979184 1465033626 -315311528 -990703235 -1932204910 413783690 223146799 -1840043713 -1980191292 1310152066 1022612163 1046776288 190118042 -968533676 -420121114 1618216701 14240777 -771284800 -985103422 -1963256108 1067123036 957340113 -1514115040 100629982 301193200 -1549444209 1892273390 676841754 -189785027 -1411137393
REM
CELL 1.54180   50.00000   50.00000   50.00000   90.00000   90.00000   90.00000
LATT -1
SFAC C  
C      1  0.5569530000000  0.4340190000000  0.5384250000000 1.0
C      1  0.4574630000000  0.4445970000000  0.5409810000000 1.0
C      1  0.4103640000000  0.5296950000000  0.5353910000000 1.0
C      1  0.5017420000000  0.5723330000000  0.5389010000000 1.0
C      1  0.5781420000000  0.5195300000000  0.5387540000000 1.0
C      1  0.4455820000000  0.5031170000000  0.5374330000000 1.0
C      1  0.5057200000000  0.5287060000000  0.5469550000000 1.0
C      1  0.5341430000000  0.5256840000000  0.5345700000000 1.0
C      1  0.5365210000000  0.4756750000000  0.5417790000000 1.0
C      1  0.4966770000000  0.4533110000000  0.5597770000000 1.0
C      1  0.5181950000000  0.5614390000000  0.4831220000000 1.0
C      1  0.5646070000000  0.5015180000000  0.4793720000000 1.0
C      1  0.5220550000000  0.4386820000000  0.4794770000000 1.0
C      1  0.4490580000000  0.4616760000000  0.4825810000000 1.0
C      1  0.4423150000000  0.5375040000000  0.4778590000000 1.0
C      1  0.5171230000000  0.5210760000000  0.4188760000000 1.0
C      1  0.5253530000000  0.4921280000000  0.4189400000000 1.0
C      1  0.5011140000000  0.4760380000000  0.4211920000000 1.0
C      1  0.4778820000000  0.4933570000000  0.4226910000000 1.0
C      1  0.4867000000000  0.5211970000000  0.4193700000000 1.0
C      1  0.4932620000000  0.5265340000000  0.4690920000000 1.0
C      1  0.5203570000000  0.5147080000000  0.4652070000000 1.0
C      1  0.5177090000000  0.4841270000000  0.4617970000000 1.0
C      1  0.4875960000000  0.4779870000000  0.4631310000000 1.0
C      1  0.4724840000000  0.5053220000000  0.4654140000000 1.0
C      1  0.5464680000000  0.5516700000000  0.5212590000000 1.0
C      1  0.5673990000000  0.4723470000000  0.5181780000000 1.0
C      1  0.5027100000000  0.4334370000000  0.5364440000000 1.0
C      1  0.4266400000000  0.4857810000000  0.5206190000000 1.0
C      1  0.4522600000000  0.5598160000000  0.5196570000000 1.0
C      1  0.4728910000000  0.5400620000000  0.4388830000000 1.0
C      1  0.5295050000000  0.5344190000000  0.4433970000000 1.0
C      1  0.5477310000000  0.4832550000000  0.4377370000000 1.0
C      1  0.5006680000000  0.4511400000000  0.4378000000000 1.0
C      1  0.4525750000000  0.4854170000000  0.4380360000000 1.0
C      1  0.5175520000000  0.4640670000000  0.5179410000000 1.0
C      1  0.4912910000000  0.4773830000000  0.5118940000000 1.0
C      1  0.4597980000000  0.5212930000000  0.5187420000000 1.0
C      1  0.4892930000000  0.5259780000000  0.5192160000000 1.0
C      1  0.5291680000000  0.5066130000000  0.5119730000000 1.0
C      1  0.4335540000000  0.4539800000000  0.5257320000000 1.0
C      1  0.4207390000000  0.5520960000000  0.5176580000000 1.0
C      1  0.5271960000000  0.5773550000000  0.5248990000000 1.0
C      1  0.5867820000000  0.4970750000000  0.5206600000000 1.0
C      1  0.5327840000000  0.4236710000000  0.5248860000000 1.0
C      1  0.4798320000000  0.4630440000000  0.4883030000000 1.0
C      1  0.4538900000000  0.5111060000000  0.4896050000000 1.0
C      1  0.4911780000000  0.5446150000000  0.4932870000000 1.0
C      1  0.5397570000000  0.5175000000000  0.4876800000000 1.0
C      1  0.5286020000000  0.4676210000000  0.4874710000000 1.0
C      1  0.4354170000000  0.4878870000000  0.4909670000000 1.0
C      1  0.4628490000000  0.5572770000000  0.4897790000000 1.0
C      1  0.5434250000000  0.5466380000000  0.4913410000000 1.0
C      1  0.5582670000000  0.4733550000000  0.4887610000000 1.0
C      1  0.4919840000000  0.4351040000000  0.4871950000000 1.0
C      1  0.5702980000000  0.4524270000000  0.4706450000000 1.0
C      1  0.4766630000000  0.4195400000000  0.4673760000000 1.0
C      1  0.4149470000000  0.4971790000000  0.4710880000000 1.0
C      1  0.4726790000000  0.5806350000000  0.4729430000000 1.0
C      1  0.5676990000000  0.5505200000000  0.4733950000000 1.0
C      1  0.4591960000000  0.4191720000000  0.5013180000000 1.0
C      1  0.4002240000000  0.5172120000000  0.4891330000000 1.0
C      1  0.4881050000000  0.5931720000000  0.4981590000000 1.0
C      1  0.5878610000000  0.5399770000000  0.4951610000000 1.0
C      1  0.5684480000000  0.4296430000000  0.4914100000000 1.0
C      1  0.4014880000000  0.5066020000000  0.5178020000000 1.0
C      1  0.4776030000000  0.5811350000000  0.5242840000000 1.0
C      1  0.5770070000000  0.5456030000000  0.5233250000000 1.0
C      1  0.5766300000000  0.4425690000000  0.5181230000000 1.0
C      1  0.4745180000000  0.4257070000000  0.5265210000000 1.0
C      1  0.4439190000000  0.5345850000000  0.4483320000000 1.0
C      1  0.5167350000000  0.5614570000000  0.4531260000000 1.0
C      1  0.5667370000000  0.5041610000000  0.4499190000000 1.0
C      1  0.5262370000000  0.4390360000000  0.4500070000000 1.0
C      1  0.4501260000000  0.4580190000000  0.4519200000000 1.0
C      1  0.4153930000000  0.5430460000000  0.4895630000000 1.0
C      1  0.5177240000000  0.5873850000000  0.4978170000000 1.0
C      1  0.5890960000000  0.5101640000000  0.4937620000000 1.0
C      1  0.5397020000000  0.4211600000000  0.4958160000000 1.0
C      1  0.4375020000000  0.4397440000000  0.4995530000000 1.0
C      1  0.4299250000000  0.5198010000000  0.5538470000000 1.0
C      1  0.5011610000000  0.5540690000000  0.5600100000000 1.0
C      1  0.5538550000000  0.5142270000000  0.5527150000000 1.0
C      1  0.5518080000000  0.4552560000000  0.5556490000000 1.0
C      1  0.4687700000000  0.4560040000000  0.5642920000000 1.0
C      1  0.4732830000000  0.4395120000000  0.4465180000000 1.0
C      1  0.4322970000000  0.5068170000000  0.4466900000000 1.0
C      1  0.4874490000000  0.5657180000000  0.4493170000000 1.0
C      1  0.5603510000000  0.5335330000000  0.4473530000000 1.0
C      1  0.5522900000000  0.4532520000000  0.4455870000000 1.0
C      1  0.5119930000000  0.4786970000000  0.5596340000000 1.0
C      1  0.4798390000000  0.5065710000000  0.5825010000000 1.0
C      1  0.4994020000000  0.5049290000000  0.5646790000000 1.0
C      1  0.5012530000000  0.5033360000000  0.5062200000000 1.0
END
