TITL C-3577089-586-89 -2.4433635977974e-07 125000 -483.08547013419 0 0 77 (C1) n - 1
REM
REM in /home/bkarasulu/work/CARBON/AIRSS/Generating-Clusters/EDIP-Nigel-Params/with-SteepDescent/Higher-Symm/SD-CG/HFTN-CG
REM
REM
REM
REM
REM
REM ./C.cell (12c818d87b63d06a65506943cc24bca4)
REM
REM compiler GCC version 9.2.1 20190827 (Red Hat 9.2.1-1)
REM options -cpp -mtune=generic -march=x86-64 -g -O0 -fpre-include=/usr/include/finclude/math-vector-fortran.h
REM seed 1748167301 860666376 1244205215 -1622845623 -261315013 -1382185891 -1375936120 957588287 1813415054 213518017 1053238272 1545654398 377275624 724314092 -218171812 -746084994 1098030120 564251029 1189153673 925774232 116371279 -952200016 -1150541981 384836276 1805174999 -66287723 -547340968 1205949971 2048595838 1609950821 1017414708 222162640 959533576
REM
CELL 1.54180   50.00000   50.00000   50.00000   90.00000   90.00000   90.00000
LATT -1
SFAC C  
C      1  0.5686080000000  0.4494430000000  0.4820280000000 1.0
C      1  0.5675670000000  0.4960960000000  0.4418820000000 1.0
C      1  0.5561670000000  0.5503100000000  0.4833420000000 1.0
C      1  0.5605210000000  0.5287840000000  0.5365240000000 1.0
C      1  0.5694160000000  0.4701070000000  0.5391260000000 1.0
C      1  0.4321310000000  0.5509060000000  0.4843490000000 1.0
C      1  0.4360110000000  0.4980980000000  0.4472380000000 1.0
C      1  0.4318860000000  0.4495990000000  0.4877820000000 1.0
C      1  0.4362810000000  0.4732940000000  0.5414650000000 1.0
C      1  0.4267780000000  0.5325680000000  0.5391360000000 1.0
C      1  0.4827270000000  0.5114830000000  0.5264140000000 1.0
C      1  0.4522890000000  0.4495340000000  0.5337350000000 1.0
C      1  0.4629570000000  0.4644280000000  0.4709110000000 1.0
C      1  0.4591090000000  0.5236070000000  0.4623520000000 1.0
C      1  0.4547230000000  0.5507090000000  0.5046590000000 1.0
C      1  0.5461940000000  0.4879680000000  0.5461620000000 1.0
C      1  0.5249800000000  0.5206940000000  0.5049170000000 1.0
C      1  0.5339650000000  0.4966120000000  0.4689050000000 1.0
C      1  0.5458770000000  0.4828720000000  0.4938790000000 1.0
C      1  0.5479060000000  0.4449290000000  0.5032840000000 1.0
C      1  0.5714950000000  0.5129220000000  0.5141090000000 1.0
C      1  0.5830940000000  0.4855620000000  0.5167800000000 1.0
C      1  0.5834550000000  0.4759030000000  0.4873690000000 1.0
C      1  0.5782120000000  0.5005230000000  0.4696300000000 1.0
C      1  0.5653760000000  0.5218260000000  0.4868190000000 1.0
C      1  0.4233260000000  0.4872340000000  0.5188090000000 1.0
C      1  0.4173040000000  0.5158430000000  0.5177620000000 1.0
C      1  0.4182570000000  0.5244750000000  0.4890020000000 1.0
C      1  0.4240640000000  0.4994280000000  0.4734170000000 1.0
C      1  0.4262220000000  0.4771220000000  0.4920660000000 1.0
C      1  0.4773880000000  0.4739170000000  0.5661470000000 1.0
C      1  0.4757000000000  0.4266740000000  0.4929890000000 1.0
C      1  0.4811250000000  0.4912580000000  0.4318590000000 1.0
C      1  0.4755790000000  0.5671290000000  0.4674870000000 1.0
C      1  0.4662520000000  0.5544580000000  0.5508050000000 1.0
C      1  0.5345170000000  0.5231610000000  0.5765700000000 1.0
C      1  0.5223490000000  0.5765340000000  0.4980010000000 1.0
C      1  0.5229430000000  0.5153120000000  0.4305670000000 1.0
C      1  0.5269450000000  0.4327650000000  0.4644810000000 1.0
C      1  0.5267430000000  0.4477020000000  0.5475150000000 1.0
C      1  0.5523670000000  0.4472720000000  0.4566280000000 1.0
C      1  0.5494210000000  0.5189790000000  0.4412940000000 1.0
C      1  0.5459030000000  0.5631080000000  0.5086040000000 1.0
C      1  0.5549270000000  0.5129610000000  0.5603560000000 1.0
C      1  0.5533760000000  0.4452300000000  0.5324320000000 1.0
C      1  0.4500820000000  0.5518200000000  0.4601840000000 1.0
C      1  0.4570200000000  0.4777540000000  0.4441410000000 1.0
C      1  0.4518760000000  0.4392510000000  0.5058440000000 1.0
C      1  0.4525920000000  0.4898430000000  0.5606240000000 1.0
C      1  0.4445000000000  0.5539750000000  0.5325270000000 1.0
C      1  0.5117240000000  0.4874440000000  0.4323490000000 1.0
C      1  0.5015130000000  0.5497330000000  0.4648820000000 1.0
C      1  0.4930790000000  0.5591550000000  0.5407670000000 1.0
C      1  0.5030650000000  0.4885680000000  0.5636930000000 1.0
C      1  0.5011010000000  0.4298510000000  0.5084670000000 1.0
C      1  0.5018680000000  0.5346590000000  0.4385140000000 1.0
C      1  0.5038240000000  0.4483400000000  0.4596750000000 1.0
C      1  0.5013850000000  0.4509590000000  0.5304540000000 1.0
C      1  0.5082250000000  0.5177220000000  0.5684960000000 1.0
C      1  0.4971070000000  0.5674870000000  0.5114580000000 1.0
C      1  0.4776800000000  0.4385510000000  0.4656500000000 1.0
C      1  0.4771690000000  0.5192040000000  0.4388130000000 1.0
C      1  0.4728270000000  0.5727800000000  0.4967390000000 1.0
C      1  0.4601860000000  0.5163500000000  0.5479650000000 1.0
C      1  0.4773700000000  0.4494330000000  0.5488560000000 1.0
C      1  0.5257850000000  0.5665450000000  0.4698240000000 1.0
C      1  0.5467470000000  0.4730870000000  0.4415640000000 1.0
C      1  0.5268940000000  0.4269990000000  0.4935610000000 1.0
C      1  0.5275590000000  0.4727370000000  0.5632830000000 1.0
C      1  0.5355660000000  0.5404250000000  0.5251460000000 1.0
C      1  0.5005300000000  0.5256980000000  0.4854280000000 1.0
C      1  0.5033460000000  0.4998000000000  0.4684540000000 1.0
C      1  0.5040400000000  0.5312690000000  0.5418650000000 1.0
C      1  0.4997830000000  0.4800670000000  0.5154760000000 1.0
C      1  0.4918400000000  0.4762260000000  0.4839050000000 1.0
C      1  0.5285020000000  0.4931260000000  0.5165650000000 1.0
C      1  0.4723250000000  0.5237710000000  0.4990670000000 1.0
END
