TITL C-3577077-324-143 -3.08145334983936e-06 125000 -508.167437250857 0 0 81 (C1) n - 1
REM
REM in /home/bkarasulu/work/CARBON/AIRSS/Generating-Clusters/EDIP-Nigel-Params/with-SteepDescent/Higher-Symm/SD-CG/HFTN-CG
REM
REM
REM
REM
REM
REM ./C.cell (12c818d87b63d06a65506943cc24bca4)
REM
REM compiler GCC version 9.2.1 20190827 (Red Hat 9.2.1-1)
REM options -cpp -mtune=generic -march=x86-64 -g -O0 -fpre-include=/usr/include/finclude/math-vector-fortran.h
REM seed -193250847 -389558853 -382690148 -1234344344 306497449 954691185 -1130293126 -1557250437 -1903562119 2050801539 1989984506 -2078573241 2007141811 899577489 -20447453 1416904844 291164642 -493401405 662840089 1957752998 667771339 -132734109 815680720 -587452660 2107276605 730843202 320676859 426438775 1863831325 1186982483 -2070523395 2055867692 -410315380
REM
CELL 1.54180   50.00000   50.00000   50.00000   90.00000   90.00000   90.00000
LATT -1
SFAC C  
C      1  0.5488760000000  0.4911300000000  0.5544710000000 1.0
C      1  0.4704510000000  0.5162220000000  0.5519300000000 1.0
C      1  0.5262950000000  0.4937650000000  0.4351440000000 1.0
C      1  0.4473920000000  0.5142250000000  0.4419500000000 1.0
C      1  0.5301160000000  0.5156340000000  0.5501610000000 1.0
C      1  0.4490120000000  0.4890730000000  0.5550030000000 1.0
C      1  0.5489510000000  0.5130050000000  0.4390440000000 1.0
C      1  0.4702200000000  0.4913010000000  0.4404990000000 1.0
C      1  0.4256720000000  0.5159290000000  0.4855900000000 1.0
C      1  0.5734150000000  0.4833640000000  0.4732870000000 1.0
C      1  0.4192600000000  0.5237770000000  0.5398320000000 1.0
C      1  0.5853460000000  0.4731980000000  0.5270690000000 1.0
C      1  0.4190070000000  0.4768780000000  0.4597570000000 1.0
C      1  0.5871090000000  0.5282790000000  0.4690900000000 1.0
C      1  0.4197640000000  0.4816380000000  0.5185800000000 1.0
C      1  0.5844790000000  0.5201630000000  0.5381730000000 1.0
C      1  0.4369260000000  0.5429030000000  0.4829840000000 1.0
C      1  0.5661400000000  0.4551000000000  0.4707760000000 1.0
C      1  0.4358790000000  0.5459290000000  0.5357350000000 1.0
C      1  0.5615400000000  0.4596000000000  0.5210890000000 1.0
C      1  0.4346240000000  0.4545760000000  0.4648180000000 1.0
C      1  0.5681120000000  0.5463760000000  0.4786640000000 1.0
C      1  0.4300100000000  0.4539030000000  0.5196380000000 1.0
C      1  0.5691450000000  0.5430990000000  0.5337620000000 1.0
C      1  0.4838880000000  0.4297830000000  0.5144020000000 1.0
C      1  0.5302210000000  0.5583180000000  0.5098040000000 1.0
C      1  0.4653540000000  0.4275680000000  0.4909690000000 1.0
C      1  0.5172290000000  0.5766520000000  0.4887170000000 1.0
C      1  0.4754020000000  0.5596310000000  0.5108760000000 1.0
C      1  0.5247840000000  0.4213750000000  0.5364300000000 1.0
C      1  0.4738630000000  0.5854390000000  0.4688340000000 1.0
C      1  0.5264470000000  0.4362970000000  0.4904360000000 1.0
C      1  0.4733380000000  0.5112700000000  0.5220600000000 1.0
C      1  0.5198290000000  0.4838870000000  0.5169240000000 1.0
C      1  0.4792530000000  0.5222250000000  0.4749610000000 1.0
C      1  0.5275750000000  0.4738000000000  0.4580020000000 1.0
C      1  0.4690210000000  0.4708260000000  0.5088820000000 1.0
C      1  0.5271310000000  0.5112110000000  0.5212440000000 1.0
C      1  0.4744940000000  0.4929680000000  0.4696470000000 1.0
C      1  0.5260800000000  0.5225100000000  0.4760110000000 1.0
C      1  0.4746880000000  0.4293070000000  0.4619040000000 1.0
C      1  0.5241040000000  0.5671810000000  0.4606130000000 1.0
C      1  0.4762230000000  0.4423250000000  0.5407570000000 1.0
C      1  0.5278680000000  0.5644510000000  0.5395690000000 1.0
C      1  0.4730620000000  0.5632890000000  0.4516100000000 1.0
C      1  0.5273120000000  0.4257280000000  0.4622680000000 1.0
C      1  0.4781750000000  0.5643580000000  0.5404460000000 1.0
C      1  0.5247900000000  0.4456790000000  0.5504310000000 1.0
C      1  0.4511060000000  0.4597700000000  0.5418120000000 1.0
C      1  0.5449980000000  0.5437630000000  0.5518460000000 1.0
C      1  0.4611530000000  0.4547970000000  0.4515800000000 1.0
C      1  0.5445230000000  0.5431730000000  0.4616300000000 1.0
C      1  0.4597250000000  0.5453650000000  0.5534350000000 1.0
C      1  0.5384190000000  0.4687400000000  0.5366800000000 1.0
C      1  0.4574830000000  0.5381130000000  0.4611810000000 1.0
C      1  0.5443170000000  0.4489380000000  0.4509970000000 1.0
C      1  0.4977310000000  0.4536750000000  0.5578100000000 1.0
C      1  0.5008260000000  0.5537300000000  0.4463520000000 1.0
C      1  0.5031940000000  0.5665700000000  0.5513840000000 1.0
C      1  0.5008980000000  0.4231630000000  0.4538980000000 1.0
C      1  0.4233490000000  0.5045390000000  0.4580530000000 1.0
C      1  0.5717940000000  0.5073870000000  0.4573720000000 1.0
C      1  0.4223860000000  0.4962740000000  0.5442830000000 1.0
C      1  0.5770010000000  0.4940210000000  0.5445310000000 1.0
C      1  0.5552770000000  0.4445660000000  0.4965400000000 1.0
C      1  0.4460250000000  0.5548440000000  0.5086520000000 1.0
C      1  0.4396630000000  0.4429310000000  0.4921850000000 1.0
C      1  0.5591810000000  0.5509280000000  0.5064540000000 1.0
C      1  0.5112130000000  0.4622570000000  0.4823120000000 1.0
C      1  0.4866240000000  0.5318120000000  0.5036920000000 1.0
C      1  0.5170540000000  0.5316260000000  0.5036460000000 1.0
C      1  0.4812840000000  0.4674440000000  0.4816260000000 1.0
C      1  0.5374950000000  0.4936720000000  0.4816820000000 1.0
C      1  0.4417440000000  0.4971210000000  0.5047720000000 1.0
C      1  0.5022150000000  0.5255890000000  0.4567040000000 1.0
C      1  0.4945880000000  0.4814210000000  0.5661510000000 1.0
C      1  0.5115780000000  0.4207570000000  0.5117660000000 1.0
C      1  0.4878350000000  0.5807450000000  0.4927590000000 1.0
C      1  0.5003950000000  0.5099010000000  0.5625320000000 1.0
C      1  0.4986790000000  0.5053740000000  0.4343510000000 1.0
C      1  0.4909050000000  0.4846900000000  0.5274100000000 1.0
END
