TITL C-3578208-4450-243 -1.54894525280409e-06 125000 -821.687998020324 0 0 134 (Cs) n - 1
REM
REM in /home/bkarasulu/work/CARBON/AIRSS/Generating-Clusters/EDIP-Nigel-Params/with-SteepDescent/Higher-Symm/SD-CG/HFTN-CG
REM
REM
REM
REM
REM
REM ./C.cell (12c818d87b63d06a65506943cc24bca4)
REM
REM compiler GCC version 9.2.1 20190827 (Red Hat 9.2.1-1)
REM options -cpp -mtune=generic -march=x86-64 -g -O0 -fpre-include=/usr/include/finclude/math-vector-fortran.h
REM seed -68932717 538223040 1633849444 -373930225 -1695342010 -797699053 -1666028256 -1450499183 -714924006 1376791548 1424636961 -513324407 -1025701988 461789900 489527498 1906979144 -1730571883 -1783020508 -477441710 1161887963 -680467283 207141236 715941130 -599878934 -1303060671 2137122976 1416672694 1217556722 -386779997 -1446484534 -2079642909 -168111870 -2063940136
REM
CELL 1.54180   50.00000   50.00000   50.00000   90.00000   90.00000   90.00000
LATT -1
SFAC C  
C      1  0.4899000000000  0.5563310000000  0.5946490000000 1.0
C      1  0.6004550000000  0.5539050000000  0.5123980000000 1.0
C      1  0.5063430000000  0.5560330000000  0.4065080000000 1.0
C      1  0.4012460000000  0.5536150000000  0.4867880000000 1.0
C      1  0.4898990000000  0.4443690000000  0.5946480000000 1.0
C      1  0.6004550000000  0.4467960000000  0.5123980000000 1.0
C      1  0.5063430000000  0.4446690000000  0.4065080000000 1.0
C      1  0.4012450000000  0.4470870000000  0.4867880000000 1.0
C      1  0.5742210000000  0.4564750000000  0.4520020000000 1.0
C      1  0.4549500000000  0.4515700000000  0.4298490000000 1.0
C      1  0.4309500000000  0.4484600000000  0.5521110000000 1.0
C      1  0.5522160000000  0.4482630000000  0.5682810000000 1.0
C      1  0.5742210000000  0.5442270000000  0.4520020000000 1.0
C      1  0.4549500000000  0.5491320000000  0.4298500000000 1.0
C      1  0.4309510000000  0.5522420000000  0.5521120000000 1.0
C      1  0.5522160000000  0.5524370000000  0.5682810000000 1.0
C      1  0.4711940000000  0.5802920000000  0.5504130000000 1.0
C      1  0.5536920000000  0.5791790000000  0.5265620000000 1.0
C      1  0.5378260000000  0.5750180000000  0.4388800000000 1.0
C      1  0.4448210000000  0.5795830000000  0.4686730000000 1.0
C      1  0.4711930000000  0.4204090000000  0.5504130000000 1.0
C      1  0.5536910000000  0.4215210000000  0.5265610000000 1.0
C      1  0.5378260000000  0.4256830000000  0.4388800000000 1.0
C      1  0.4448200000000  0.4211190000000  0.4686720000000 1.0
C      1  0.4947430000000  0.4073480000000  0.5342540000000 1.0
C      1  0.5363660000000  0.4155650000000  0.5007710000000 1.0
C      1  0.4999470000000  0.4077510000000  0.4707470000000 1.0
C      1  0.4569110000000  0.4046400000000  0.4930000000000 1.0
C      1  0.4947440000000  0.5933530000000  0.5342550000000 1.0
C      1  0.5363670000000  0.5851370000000  0.5007720000000 1.0
C      1  0.4999480000000  0.5929510000000  0.4707480000000 1.0
C      1  0.4569110000000  0.5960620000000  0.4930010000000 1.0
C      1  0.4800510000000  0.5143780000000  0.4037340000000 1.0
C      1  0.4011380000000  0.5143320000000  0.5170370000000 1.0
C      1  0.5165940000000  0.5143700000000  0.5985550000000 1.0
C      1  0.5982150000000  0.5143490000000  0.4831280000000 1.0
C      1  0.4800510000000  0.4863240000000  0.4037340000000 1.0
C      1  0.4011370000000  0.4863700000000  0.5170370000000 1.0
C      1  0.5165940000000  0.4863310000000  0.5985550000000 1.0
C      1  0.5982150000000  0.4863520000000  0.4831280000000 1.0
C      1  0.4612980000000  0.5305080000000  0.5051720000000 1.0
C      1  0.5039910000000  0.5293300000000  0.5376910000000 1.0
C      1  0.5382580000000  0.5308150000000  0.4975020000000 1.0
C      1  0.4964660000000  0.5292300000000  0.4661110000000 1.0
C      1  0.4612980000000  0.4701940000000  0.5051720000000 1.0
C      1  0.5039910000000  0.4713710000000  0.5376910000000 1.0
C      1  0.5382580000000  0.4698860000000  0.4975010000000 1.0
C      1  0.4964660000000  0.4714720000000  0.4661100000000 1.0
C      1  0.5741310000000  0.4364440000000  0.5082340000000 1.0
C      1  0.5117050000000  0.4328360000000  0.4319420000000 1.0
C      1  0.4279780000000  0.4374000000000  0.4888900000000 1.0
C      1  0.4912770000000  0.4361420000000  0.5671700000000 1.0
C      1  0.5741320000000  0.5642560000000  0.5082340000000 1.0
C      1  0.5117060000000  0.5678660000000  0.4319420000000 1.0
C      1  0.4279780000000  0.5633020000000  0.4888900000000 1.0
C      1  0.4912780000000  0.5645590000000  0.5671710000000 1.0
C      1  0.5203080000000  0.4843360000000  0.4530880000000 1.0
C      1  0.4508850000000  0.4844310000000  0.4804930000000 1.0
C      1  0.4795240000000  0.4846990000000  0.5491580000000 1.0
C      1  0.5496240000000  0.4844220000000  0.5212640000000 1.0
C      1  0.5203090000000  0.5163660000000  0.4530880000000 1.0
C      1  0.4508860000000  0.5162710000000  0.4804930000000 1.0
C      1  0.4795240000000  0.5160020000000  0.5491590000000 1.0
C      1  0.5496240000000  0.5162790000000  0.5212640000000 1.0
C      1  0.4689180000000  0.5243060000000  0.4563160000000 1.0
C      1  0.4536350000000  0.5238270000000  0.5331050000000 1.0
C      1  0.5324860000000  0.5239260000000  0.5464210000000 1.0
C      1  0.5460550000000  0.5240170000000  0.4694460000000 1.0
C      1  0.4689170000000  0.4763960000000  0.4563160000000 1.0
C      1  0.4536350000000  0.4768740000000  0.5331040000000 1.0
C      1  0.5324860000000  0.4767750000000  0.5464210000000 1.0
C      1  0.5460550000000  0.4766840000000  0.4694460000000 1.0
C      1  0.5642570000000  0.4727070000000  0.5728490000000 1.0
C      1  0.5720000000000  0.4755590000000  0.4323960000000 1.0
C      1  0.4361820000000  0.4721330000000  0.4275420000000 1.0
C      1  0.4271190000000  0.4727980000000  0.5646340000000 1.0
C      1  0.5642570000000  0.5279930000000  0.5728490000000 1.0
C      1  0.5720000000000  0.5251420000000  0.4323970000000 1.0
C      1  0.4361820000000  0.5285700000000  0.4275420000000 1.0
C      1  0.4271200000000  0.5279030000000  0.5646340000000 1.0
C      1  0.4217580000000  0.5241150000000  0.4717430000000 1.0
C      1  0.4719860000000  0.5266260000000  0.5771950000000 1.0
C      1  0.5786310000000  0.5260320000000  0.5287280000000 1.0
C      1  0.5258640000000  0.5273810000000  0.4242750000000 1.0
C      1  0.4217580000000  0.4765870000000  0.4717430000000 1.0
C      1  0.4719860000000  0.4740750000000  0.5771940000000 1.0
C      1  0.5786300000000  0.4746690000000  0.5287280000000 1.0
C      1  0.5258640000000  0.4733210000000  0.4242750000000 1.0
C      1  0.5557930000000  0.5650290000000  0.4578280000000 1.0
C      1  0.4641490000000  0.5675480000000  0.4500710000000 1.0
C      1  0.4491820000000  0.5674830000000  0.5368230000000 1.0
C      1  0.5388270000000  0.5673850000000  0.5485000000000 1.0
C      1  0.5557920000000  0.4356720000000  0.4578270000000 1.0
C      1  0.4641490000000  0.4331540000000  0.4500700000000 1.0
C      1  0.4491820000000  0.4332190000000  0.5368220000000 1.0
C      1  0.5388270000000  0.4333160000000  0.5484990000000 1.0
C      1  0.4755290000000  0.5571760000000  0.5034040000000 1.0
C      1  0.5004600000000  0.5559340000000  0.5243810000000 1.0
C      1  0.5219630000000  0.5565650000000  0.5011370000000 1.0
C      1  0.4988090000000  0.5554850000000  0.4807080000000 1.0
C      1  0.4755280000000  0.4435260000000  0.5034040000000 1.0
C      1  0.5004600000000  0.4447670000000  0.5243810000000 1.0
C      1  0.5219630000000  0.4441360000000  0.5011370000000 1.0
C      1  0.4988080000000  0.4452160000000  0.4807070000000 1.0
C      1  0.5610570000000  0.4221460000000  0.4830360000000 1.0
C      1  0.4899630000000  0.4195160000000  0.4464800000000 1.0
C      1  0.4387000000000  0.4208380000000  0.5124200000000 1.0
C      1  0.5147860000000  0.4195010000000  0.5566280000000 1.0
C      1  0.5610570000000  0.5785550000000  0.4830370000000 1.0
C      1  0.4899640000000  0.5811860000000  0.4464810000000 1.0
C      1  0.4387010000000  0.5798640000000  0.5124200000000 1.0
C      1  0.5147860000000  0.5812000000000  0.5566290000000 1.0
C      1  0.4917270000000  0.4727590000000  0.6012690000000 1.0
C      1  0.6032250000000  0.4753900000000  0.5090580000000 1.0
C      1  0.5049870000000  0.4730140000000  0.4012940000000 1.0
C      1  0.3969870000000  0.4753850000000  0.4910370000000 1.0
C      1  0.4917270000000  0.5279410000000  0.6012690000000 1.0
C      1  0.6032250000000  0.5253110000000  0.5090590000000 1.0
C      1  0.5049870000000  0.5276890000000  0.4012940000000 1.0
C      1  0.3969870000000  0.5253170000000  0.4910370000000 1.0
C      1  0.5519260000000  0.4855640000000  0.4159380000000 1.0
C      1  0.4175500000000  0.4855020000000  0.4436290000000 1.0
C      1  0.4448000000000  0.4854010000000  0.5829300000000 1.0
C      1  0.5834200000000  0.4854400000000  0.5562140000000 1.0
C      1  0.5519270000000  0.5151380000000  0.4159380000000 1.0
C      1  0.4175500000000  0.5152010000000  0.4436290000000 1.0
C      1  0.4448000000000  0.5153000000000  0.5829300000000 1.0
C      1  0.5834210000000  0.5152600000000  0.5562150000000 1.0
C      1  0.5317480000000  0.5003500000000  0.5658240000000 1.0
C      1  0.4687780000000  0.5003510000000  0.4378120000000 1.0
C      1  0.4339620000000  0.5003510000000  0.5318800000000 1.0
C      1  0.5654940000000  0.5003510000000  0.4685060000000 1.0
C      1  0.4857210000000  0.5942170000000  0.4966150000000 1.0
C      1  0.4857200000000  0.4064850000000  0.4966150000000 1.0
END
