TITL C-3577087-600-358 1.21816701753076e-06 125000 -751.643498399285 0 0 121 (C1) n - 1
REM
REM in /home/bkarasulu/work/CARBON/AIRSS/Generating-Clusters/EDIP-Nigel-Params/with-SteepDescent/Higher-Symm/SD-CG/HFTN-CG
REM
REM
REM
REM
REM
REM ./C.cell (12c818d87b63d06a65506943cc24bca4)
REM
REM compiler GCC version 9.2.1 20190827 (Red Hat 9.2.1-1)
REM options -cpp -mtune=generic -march=x86-64 -g -O0 -fpre-include=/usr/include/finclude/math-vector-fortran.h
REM seed 968436749 559757190 -1116484961 207591105 -656135305 -246105715 1307828525 -364076043 1403426950 1696885834 1667282582 -537944586 -1277867542 2114502536 443785734 -1773176543 1486976655 192480028 1815130421 -628494036 1084128132 798817887 2125292674 1834208808 -332814498 1373607348 1978996196 -1325032817 1252655176 -764237226 1656050417 762953163 1716868259
REM
CELL 1.54180   50.00000   50.00000   50.00000   90.00000   90.00000   90.00000
LATT -1
SFAC C  
C      1  0.5542930000000  0.5077570000000  0.5793460000000 1.0
C      1  0.5924260000000  0.5019820000000  0.4513290000000 1.0
C      1  0.4448950000000  0.5049710000000  0.3998850000000 1.0
C      1  0.4098920000000  0.5002080000000  0.5499400000000 1.0
C      1  0.4462730000000  0.4977170000000  0.5925130000000 1.0
C      1  0.4107450000000  0.5086470000000  0.4385810000000 1.0
C      1  0.5518950000000  0.5031380000000  0.4226690000000 1.0
C      1  0.5951250000000  0.5110930000000  0.5622240000000 1.0
C      1  0.4305600000000  0.5404310000000  0.5289900000000 1.0
C      1  0.5260950000000  0.5462370000000  0.5649070000000 1.0
C      1  0.5845480000000  0.5444760000000  0.4724830000000 1.0
C      1  0.4674090000000  0.5456820000000  0.4102740000000 1.0
C      1  0.5887910000000  0.5505150000000  0.5356450000000 1.0
C      1  0.4641680000000  0.5401370000000  0.5834530000000 1.0
C      1  0.4320200000000  0.5445210000000  0.4654910000000 1.0
C      1  0.5285920000000  0.5447890000000  0.4367210000000 1.0
C      1  0.5329660000000  0.5708720000000  0.4248660000000 1.0
C      1  0.4241350000000  0.5724470000000  0.4650290000000 1.0
C      1  0.4671380000000  0.5658260000000  0.5729480000000 1.0
C      1  0.5745030000000  0.5740810000000  0.5303180000000 1.0
C      1  0.4705920000000  0.5700150000000  0.4235900000000 1.0
C      1  0.5756110000000  0.5709560000000  0.4753220000000 1.0
C      1  0.5271290000000  0.5730700000000  0.5760360000000 1.0
C      1  0.4213930000000  0.5676370000000  0.5328770000000 1.0
C      1  0.5365250000000  0.5084220000000  0.5140300000000 1.0
C      1  0.5134860000000  0.5223880000000  0.4789100000000 1.0
C      1  0.4670480000000  0.5039500000000  0.4820720000000 1.0
C      1  0.4899830000000  0.5032210000000  0.5262910000000 1.0
C      1  0.4670390000000  0.5112430000000  0.5117720000000 1.0
C      1  0.4939640000000  0.5044800000000  0.4686800000000 1.0
C      1  0.5374620000000  0.5098790000000  0.4868120000000 1.0
C      1  0.5134960000000  0.5193590000000  0.5255760000000 1.0
C      1  0.5619460000000  0.4383710000000  0.4640410000000 1.0
C      1  0.4618410000000  0.4378100000000  0.4383140000000 1.0
C      1  0.4350120000000  0.4394590000000  0.5308470000000 1.0
C      1  0.5328220000000  0.4334860000000  0.5693900000000 1.0
C      1  0.4334150000000  0.4331730000000  0.4760880000000 1.0
C      1  0.5196200000000  0.4266820000000  0.4308000000000 1.0
C      1  0.5687950000000  0.4286420000000  0.5293490000000 1.0
C      1  0.4759240000000  0.4311740000000  0.5660570000000 1.0
C      1  0.5292070000000  0.5670650000000  0.4857760000000 1.0
C      1  0.4828430000000  0.5571990000000  0.4673530000000 1.0
C      1  0.4597410000000  0.5401210000000  0.5145710000000 1.0
C      1  0.5119030000000  0.5479290000000  0.5338650000000 1.0
C      1  0.4600340000000  0.5411240000000  0.4800580000000 1.0
C      1  0.5131020000000  0.5491970000000  0.4670440000000 1.0
C      1  0.5302280000000  0.5646820000000  0.5155830000000 1.0
C      1  0.4817510000000  0.5560690000000  0.5296470000000 1.0
C      1  0.5396090000000  0.4651100000000  0.5194080000000 1.0
C      1  0.5060420000000  0.4784600000000  0.4629170000000 1.0
C      1  0.4612290000000  0.4736110000000  0.4865950000000 1.0
C      1  0.4930100000000  0.4578250000000  0.5252510000000 1.0
C      1  0.4641150000000  0.4678320000000  0.5181500000000 1.0
C      1  0.4854850000000  0.4591530000000  0.4756870000000 1.0
C      1  0.5280200000000  0.4596880000000  0.4901000000000 1.0
C      1  0.5156830000000  0.4768720000000  0.5370820000000 1.0
C      1  0.4588840000000  0.4217950000000  0.4858020000000 1.0
C      1  0.4909260000000  0.4291430000000  0.5392040000000 1.0
C      1  0.5402380000000  0.4327780000000  0.5225300000000 1.0
C      1  0.5132580000000  0.4226470000000  0.4594210000000 1.0
C      1  0.5360540000000  0.4326280000000  0.4784580000000 1.0
C      1  0.5214660000000  0.4235340000000  0.5441190000000 1.0
C      1  0.4605810000000  0.4292340000000  0.5158360000000 1.0
C      1  0.4788160000000  0.4319360000000  0.4633980000000 1.0
C      1  0.4059130000000  0.4994320000000  0.5221570000000 1.0
C      1  0.5278010000000  0.5006380000000  0.5819440000000 1.0
C      1  0.5924210000000  0.4981670000000  0.4793500000000 1.0
C      1  0.4717770000000  0.4988780000000  0.4065720000000 1.0
C      1  0.5903420000000  0.5026050000000  0.5353680000000 1.0
C      1  0.4746290000000  0.4951080000000  0.5931690000000 1.0
C      1  0.4060140000000  0.5044490000000  0.4658710000000 1.0
C      1  0.5244040000000  0.4997310000000  0.4199840000000 1.0
C      1  0.5122500000000  0.5256880000000  0.4193230000000 1.0
C      1  0.4138190000000  0.5273100000000  0.4818870000000 1.0
C      1  0.4845900000000  0.5202830000000  0.5841920000000 1.0
C      1  0.5876900000000  0.5261980000000  0.5193100000000 1.0
C      1  0.4844390000000  0.5231710000000  0.4157490000000 1.0
C      1  0.5920860000000  0.5242920000000  0.4915890000000 1.0
C      1  0.5121580000000  0.5250400000000  0.5816610000000 1.0
C      1  0.4127900000000  0.5250670000000  0.5105760000000 1.0
C      1  0.5478670000000  0.5823460000000  0.5307860000000 1.0
C      1  0.5432510000000  0.5859620000000  0.4447430000000 1.0
C      1  0.4466410000000  0.5861920000000  0.4594360000000 1.0
C      1  0.4686320000000  0.5754330000000  0.5470390000000 1.0
C      1  0.4434980000000  0.5823440000000  0.5373210000000 1.0
C      1  0.4716040000000  0.5780130000000  0.4501370000000 1.0
C      1  0.5500900000000  0.5816630000000  0.4714050000000 1.0
C      1  0.5380080000000  0.5880690000000  0.5562700000000 1.0
C      1  0.5828340000000  0.4746170000000  0.4945410000000 1.0
C      1  0.4806350000000  0.4730920000000  0.4206450000000 1.0
C      1  0.4104190000000  0.4753000000000  0.5056560000000 1.0
C      1  0.5185280000000  0.4751510000000  0.5684520000000 1.0
C      1  0.4118030000000  0.4776970000000  0.4765870000000 1.0
C      1  0.5106680000000  0.4755660000000  0.4322930000000 1.0
C      1  0.5765890000000  0.4774820000000  0.5246140000000 1.0
C      1  0.4887940000000  0.4704460000000  0.5816610000000 1.0
C      1  0.5842560000000  0.4291400000000  0.5060130000000 1.0
C      1  0.4979100000000  0.4249820000000  0.4132940000000 1.0
C      1  0.4110570000000  0.4277080000000  0.4921630000000 1.0
C      1  0.4909690000000  0.4388040000000  0.5921910000000 1.0
C      1  0.4124150000000  0.4463080000000  0.5132140000000 1.0
C      1  0.4761920000000  0.4424040000000  0.4131140000000 1.0
C      1  0.5833640000000  0.4468620000000  0.4840340000000 1.0
C      1  0.5171790000000  0.4297250000000  0.5921960000000 1.0
C      1  0.5806950000000  0.5281490000000  0.4487880000000 1.0
C      1  0.4412790000000  0.5313420000000  0.4111140000000 1.0
C      1  0.4272680000000  0.5221880000000  0.5538190000000 1.0
C      1  0.5540400000000  0.5327310000000  0.5663320000000 1.0
C      1  0.4288390000000  0.5301430000000  0.4378720000000 1.0
C      1  0.5547440000000  0.5278170000000  0.4358360000000 1.0
C      1  0.5827840000000  0.5374370000000  0.5618170000000 1.0
C      1  0.4404710000000  0.5230310000000  0.5801090000000 1.0
C      1  0.4412460000000  0.4615260000000  0.5484170000000 1.0
C      1  0.5512750000000  0.4554700000000  0.5663270000000 1.0
C      1  0.5560120000000  0.4549760000000  0.4418840000000 1.0
C      1  0.4492350000000  0.4634880000000  0.4413890000000 1.0
C      1  0.5724010000000  0.4535820000000  0.5452830000000 1.0
C      1  0.4667150000000  0.4590260000000  0.5613180000000 1.0
C      1  0.4375890000000  0.4624280000000  0.4689640000000 1.0
C      1  0.5315510000000  0.4531870000000  0.4277540000000 1.0
C      1  0.5013780000000  0.4519260000000  0.4981810000000 1.0
END
