TITL C-3578206-1180-349 -1.2445514006522e-06 125000 -510.629279508272 0 0 83 (C1) n - 1
REM
REM in /home/bkarasulu/work/CARBON/AIRSS/Generating-Clusters/EDIP-Nigel-Params/with-SteepDescent/Higher-Symm/SD-CG/HFTN-CG
REM
REM
REM
REM
REM
REM ./C.cell (12c818d87b63d06a65506943cc24bca4)
REM
REM compiler GCC version 9.2.1 20190827 (Red Hat 9.2.1-1)
REM options -cpp -mtune=generic -march=x86-64 -g -O0 -fpre-include=/usr/include/finclude/math-vector-fortran.h
REM seed -526216849 600211777 -1492909056 -1455325540 -1185775055 -306212565 -1754299732 1685736789 -134301171 -1808543945 -1506623927 1004332670 1946133196 -284041501 -1868562721 1916809094 1411873932 990413798 17733574 -603042336 -1741665751 -81792135 1438203132 1239358080 -202438893 202515940 -937984875 21223995 -590903038 -491410318 -1300910443 824691789 1402425814
REM
CELL 1.54180   50.00000   50.00000   50.00000   90.00000   90.00000   90.00000
LATT -1
SFAC C  
C      1  0.5416790000000  0.4814920000000  0.4386000000000 1.0
C      1  0.5220990000000  0.5844260000000  0.5115960000000 1.0
C      1  0.4872250000000  0.5685670000000  0.5169090000000 1.0
C      1  0.4763750000000  0.5861910000000  0.5373300000000 1.0
C      1  0.4487810000000  0.4568710000000  0.4404190000000 1.0
C      1  0.4234730000000  0.5329260000000  0.4947150000000 1.0
C      1  0.5230940000000  0.5351050000000  0.5113390000000 1.0
C      1  0.4877130000000  0.4898410000000  0.4563320000000 1.0
C      1  0.5340600000000  0.4603980000000  0.5667810000000 1.0
C      1  0.4656180000000  0.5128810000000  0.5733100000000 1.0
C      1  0.4545570000000  0.5181440000000  0.5450350000000 1.0
C      1  0.4261370000000  0.4992100000000  0.4546730000000 1.0
C      1  0.5732620000000  0.4901140000000  0.5408080000000 1.0
C      1  0.4807800000000  0.4305030000000  0.5046810000000 1.0
C      1  0.4439820000000  0.5035210000000  0.4312530000000 1.0
C      1  0.4714060000000  0.4959710000000  0.4981590000000 1.0
C      1  0.4919500000000  0.5260170000000  0.5786400000000 1.0
C      1  0.5073660000000  0.5041250000000  0.5373300000000 1.0
C      1  0.4852020000000  0.5182790000000  0.4166690000000 1.0
C      1  0.5470380000000  0.4854400000000  0.5539310000000 1.0
C      1  0.5752200000000  0.4833150000000  0.5113410000000 1.0
C      1  0.5181880000000  0.4485110000000  0.5436920000000 1.0
C      1  0.4806060000000  0.4825290000000  0.4085650000000 1.0
C      1  0.5060020000000  0.5706670000000  0.4683900000000 1.0
C      1  0.5101310000000  0.5252110000000  0.4304500000000 1.0
C      1  0.5698350000000  0.4552280000000  0.5002440000000 1.0
C      1  0.4982260000000  0.4602770000000  0.4118900000000 1.0
C      1  0.4432870000000  0.5523560000000  0.5015380000000 1.0
C      1  0.4581950000000  0.5597660000000  0.4770060000000 1.0
C      1  0.4419610000000  0.4868620000000  0.4932780000000 1.0
C      1  0.4800890000000  0.5719980000000  0.5603480000000 1.0
C      1  0.4454770000000  0.4494400000000  0.5379520000000 1.0
C      1  0.4646540000000  0.5465200000000  0.5216970000000 1.0
C      1  0.5342390000000  0.4537320000000  0.4427610000000 1.0
C      1  0.4809140000000  0.5135250000000  0.4752030000000 1.0
C      1  0.5110720000000  0.4753140000000  0.5811610000000 1.0
C      1  0.4856350000000  0.4620850000000  0.5748700000000 1.0
C      1  0.5244460000000  0.4750910000000  0.5011530000000 1.0
C      1  0.4606780000000  0.5282150000000  0.4309800000000 1.0
C      1  0.5064930000000  0.4538130000000  0.4383310000000 1.0
C      1  0.5298530000000  0.4292450000000  0.5233050000000 1.0
C      1  0.4601910000000  0.5327860000000  0.4619060000000 1.0
C      1  0.4648360000000  0.4822920000000  0.4338970000000 1.0
C      1  0.4645760000000  0.4337860000000  0.4515930000000 1.0
C      1  0.4646210000000  0.4822970000000  0.5694360000000 1.0
C      1  0.5073020000000  0.5292820000000  0.4824220000000 1.0
C      1  0.4338000000000  0.5228600000000  0.4700870000000 1.0
C      1  0.5295420000000  0.5606530000000  0.5263350000000 1.0
C      1  0.5110590000000  0.4292740000000  0.4993470000000 1.0
C      1  0.5556140000000  0.4588040000000  0.4744260000000 1.0
C      1  0.4416320000000  0.4576400000000  0.4876990000000 1.0
C      1  0.5066470000000  0.5485700000000  0.4485430000000 1.0
C      1  0.5299360000000  0.5130950000000  0.4712200000000 1.0
C      1  0.5562690000000  0.4364920000000  0.5161850000000 1.0
C      1  0.4716230000000  0.4413830000000  0.5310240000000 1.0
C      1  0.5472590000000  0.5346160000000  0.5618400000000 1.0
C      1  0.5422680000000  0.4953530000000  0.4939650000000 1.0
C      1  0.5302260000000  0.5756720000000  0.4846630000000 1.0
C      1  0.4292170000000  0.4678050000000  0.4612460000000 1.0
C      1  0.5477490000000  0.5523750000000  0.4866220000000 1.0
C      1  0.4979770000000  0.5504900000000  0.5629740000000 1.0
C      1  0.5752030000000  0.5292100000000  0.5148990000000 1.0
C      1  0.4679150000000  0.4451030000000  0.4804700000000 1.0
C      1  0.4892730000000  0.4315160000000  0.4365360000000 1.0
C      1  0.5093710000000  0.5040130000000  0.5687120000000 1.0
C      1  0.5413980000000  0.5122550000000  0.5193950000000 1.0
C      1  0.4326430000000  0.4975940000000  0.5402300000000 1.0
C      1  0.5267270000000  0.5555980000000  0.5555580000000 1.0
C      1  0.4237030000000  0.4930430000000  0.5144200000000 1.0
C      1  0.5642670000000  0.4831060000000  0.4576690000000 1.0
C      1  0.4822350000000  0.5740650000000  0.4862960000000 1.0
C      1  0.4423900000000  0.4733410000000  0.5529940000000 1.0
C      1  0.5742410000000  0.5111560000000  0.4679660000000 1.0
C      1  0.4907150000000  0.4422840000000  0.5527610000000 1.0
C      1  0.5518200000000  0.5327420000000  0.4654060000000 1.0
C      1  0.4786480000000  0.5107710000000  0.5245550000000 1.0
C      1  0.4888870000000  0.4669620000000  0.4769330000000 1.0
C      1  0.5175900000000  0.4762200000000  0.5290900000000 1.0
C      1  0.5753280000000  0.5199730000000  0.5423800000000 1.0
C      1  0.5841220000000  0.5085940000000  0.4963900000000 1.0
C      1  0.5384730000000  0.5090910000000  0.5712130000000 1.0
C      1  0.5172710000000  0.4537880000000  0.4816430000000 1.0
C      1  0.5184380000000  0.5003290000000  0.4463910000000 1.0
END
