TITL C-3578195-8548-596 -3.02314423233126e-06 125000 -517.421242956651 0 0 85 (C1) n - 1
REM
REM in /home/bkarasulu/work/CARBON/AIRSS/Generating-Clusters/EDIP-Nigel-Params/with-SteepDescent/Higher-Symm/SD-CG/HFTN-CG
REM
REM
REM
REM
REM
REM ./C.cell (12c818d87b63d06a65506943cc24bca4)
REM
REM compiler GCC version 9.2.1 20190827 (Red Hat 9.2.1-1)
REM options -cpp -mtune=generic -march=x86-64 -g -O0 -fpre-include=/usr/include/finclude/math-vector-fortran.h
REM seed 265167634 -482062420 1768311439 528717420 -1191557809 237853131 -991958678 -960045390 -761513132 33360153 -1790915412 519198732 -1182105465 -1125471962 1126071363 560800299 1804086309 -1903483160 1006238728 1868383715 925376962 615070571 960367388 -193564349 947069292 1014311610 2059231585 446152659 1264116898 1043517851 1498212415 616343334 1244656857
REM
CELL 1.54180   50.00000   50.00000   50.00000   90.00000   90.00000   90.00000
LATT -1
SFAC C  
C      1  0.5703340000000  0.5638220000000  0.4945180000000 1.0
C      1  0.5713120000000  0.4791400000000  0.5563140000000 1.0
C      1  0.5706460000000  0.4570030000000  0.4501420000000 1.0
C      1  0.5568720000000  0.5680790000000  0.5218170000000 1.0
C      1  0.5609670000000  0.4801720000000  0.4318420000000 1.0
C      1  0.5609210000000  0.4512400000000  0.5468890000000 1.0
C      1  0.5631460000000  0.5338770000000  0.4950960000000 1.0
C      1  0.5582350000000  0.4920240000000  0.5309470000000 1.0
C      1  0.5602130000000  0.4725950000000  0.4749410000000 1.0
C      1  0.5560720000000  0.5361700000000  0.5252930000000 1.0
C      1  0.5581130000000  0.4984180000000  0.4577840000000 1.0
C      1  0.5558870000000  0.4634950000000  0.5182340000000 1.0
C      1  0.5302920000000  0.5766610000000  0.5115960000000 1.0
C      1  0.5356430000000  0.4533690000000  0.5628520000000 1.0
C      1  0.5339150000000  0.4699830000000  0.4250730000000 1.0
C      1  0.5337470000000  0.5668100000000  0.4826660000000 1.0
C      1  0.5337110000000  0.4489160000000  0.4483790000000 1.0
C      1  0.5364670000000  0.4841220000000  0.5684400000000 1.0
C      1  0.4780220000000  0.4266980000000  0.4862110000000 1.0
C      1  0.4898380000000  0.5609310000000  0.4236940000000 1.0
C      1  0.4852580000000  0.5338210000000  0.5887780000000 1.0
C      1  0.4805040000000  0.4259030000000  0.5156980000000 1.0
C      1  0.4856910000000  0.5544390000000  0.5707280000000 1.0
C      1  0.4884280000000  0.5328450000000  0.4211630000000 1.0
C      1  0.4770560000000  0.5171300000000  0.4438160000000 1.0
C      1  0.4605200000000  0.5398000000000  0.5278350000000 1.0
C      1  0.4669300000000  0.4485640000000  0.5291300000000 1.0
C      1  0.4627620000000  0.4961910000000  0.5522730000000 1.0
C      1  0.4620150000000  0.5342680000000  0.4707530000000 1.0
C      1  0.4672430000000  0.4519850000000  0.4740660000000 1.0
C      1  0.4340630000000  0.5751660000000  0.4786120000000 1.0
C      1  0.4403490000000  0.4809510000000  0.5793610000000 1.0
C      1  0.4370550000000  0.4581780000000  0.4342740000000 1.0
C      1  0.4352140000000  0.5740620000000  0.5055250000000 1.0
C      1  0.4370200000000  0.4849460000000  0.4297830000000 1.0
C      1  0.4401280000000  0.4549720000000  0.5704370000000 1.0
C      1  0.4839360000000  0.4477470000000  0.4329970000000 1.0
C      1  0.4827290000000  0.5771110000000  0.4814690000000 1.0
C      1  0.4883500000000  0.4770370000000  0.5825450000000 1.0
C      1  0.4880060000000  0.4514960000000  0.5680670000000 1.0
C      1  0.4821350000000  0.5772840000000  0.5116540000000 1.0
C      1  0.4858550000000  0.4759270000000  0.4242130000000 1.0
C      1  0.5380720000000  0.5363430000000  0.4811870000000 1.0
C      1  0.5318160000000  0.4991190000000  0.5414500000000 1.0
C      1  0.5332310000000  0.4622570000000  0.4769380000000 1.0
C      1  0.5281040000000  0.5280380000000  0.5354800000000 1.0
C      1  0.5333210000000  0.5170420000000  0.4586230000000 1.0
C      1  0.5297070000000  0.4538120000000  0.5054590000000 1.0
C      1  0.4643460000000  0.4899380000000  0.5905810000000 1.0
C      1  0.4580480000000  0.4435530000000  0.4458460000000 1.0
C      1  0.4585850000000  0.5649450000000  0.4689660000000 1.0
C      1  0.4639680000000  0.4932580000000  0.4317710000000 1.0
C      1  0.4622780000000  0.4430950000000  0.5579810000000 1.0
C      1  0.4566180000000  0.5678850000000  0.5226730000000 1.0
C      1  0.5318250000000  0.5355770000000  0.5858000000000 1.0
C      1  0.5223320000000  0.4082140000000  0.4861120000000 1.0
C      1  0.5350300000000  0.5594920000000  0.4305160000000 1.0
C      1  0.5352800000000  0.5311890000000  0.4315800000000 1.0
C      1  0.5288460000000  0.4233140000000  0.5088940000000 1.0
C      1  0.5298540000000  0.5463880000000  0.5597690000000 1.0
C      1  0.4427900000000  0.5202300000000  0.5152900000000 1.0
C      1  0.4473550000000  0.4673580000000  0.5162800000000 1.0
C      1  0.4388450000000  0.4920320000000  0.4784830000000 1.0
C      1  0.4407240000000  0.5189130000000  0.4857210000000 1.0
C      1  0.4450030000000  0.4665460000000  0.4878830000000 1.0
C      1  0.4442560000000  0.4939460000000  0.5292900000000 1.0
C      1  0.5060630000000  0.5687800000000  0.5258510000000 1.0
C      1  0.5104760000000  0.4440720000000  0.5511250000000 1.0
C      1  0.5116800000000  0.4888150000000  0.4246790000000 1.0
C      1  0.5081180000000  0.5712660000000  0.4676760000000 1.0
C      1  0.5068490000000  0.4340890000000  0.4468810000000 1.0
C      1  0.5126150000000  0.4919630000000  0.5857460000000 1.0
C      1  0.4885180000000  0.4962520000000  0.5322720000000 1.0
C      1  0.4908610000000  0.4733150000000  0.4816760000000 1.0
C      1  0.4880200000000  0.5239320000000  0.4862540000000 1.0
C      1  0.5020160000000  0.5051980000000  0.4643750000000 1.0
C      1  0.4991240000000  0.4658700000000  0.5143990000000 1.0
C      1  0.4953890000000  0.5260920000000  0.5224420000000 1.0
C      1  0.5071230000000  0.5639320000000  0.5548820000000 1.0
C      1  0.5073430000000  0.4236700000000  0.5293000000000 1.0
C      1  0.5138210000000  0.5175330000000  0.4167860000000 1.0
C      1  0.5109340000000  0.5708690000000  0.4388730000000 1.0
C      1  0.5006650000000  0.4164760000000  0.4702650000000 1.0
C      1  0.5097350000000  0.5201670000000  0.5929110000000 1.0
C      1  0.4759990000000  0.4964220000000  0.4989050000000 1.0
END
