TITL C-3578198-8939-734 2.21572944230936e-08 125000 -679.367911317417 0 0 109 (C1) n - 1
REM
REM in /home/bkarasulu/work/CARBON/AIRSS/Generating-Clusters/EDIP-Nigel-Params/with-SteepDescent/Higher-Symm/SD-CG/HFTN-CG
REM
REM
REM
REM
REM
REM ./C.cell (12c818d87b63d06a65506943cc24bca4)
REM
REM compiler GCC version 9.2.1 20190827 (Red Hat 9.2.1-1)
REM options -cpp -mtune=generic -march=x86-64 -g -O0 -fpre-include=/usr/include/finclude/math-vector-fortran.h
REM seed 1068591568 -798168220 -646144602 1622332563 -773844582 -1740421106 1190606583 1560325269 -2128181397 -181737958 898111702 2033437269 -1502309677 -1542408674 928805389 -649511776 625018085 515593186 -221956875 -935141464 783147970 -1184867760 1571812794 428585420 -1069758892 -1068230885 612240146 -141056326 -1705812070 423499726 -1380267459 -1957946034 2118555923
REM
CELL 1.54180   50.00000   50.00000   50.00000   90.00000   90.00000   90.00000
LATT -1
SFAC C  
C      1  0.5691100000000  0.4417050000000  0.4787570000000 1.0
C      1  0.5640670000000  0.4907610000000  0.4535460000000 1.0
C      1  0.5612600000000  0.5193210000000  0.4486610000000 1.0
C      1  0.5571340000000  0.5396180000000  0.4701370000000 1.0
C      1  0.5632650000000  0.5443910000000  0.4997240000000 1.0
C      1  0.5493610000000  0.5263790000000  0.5315230000000 1.0
C      1  0.5624030000000  0.5053140000000  0.5497630000000 1.0
C      1  0.5596420000000  0.4778050000000  0.5376330000000 1.0
C      1  0.5699930000000  0.4361510000000  0.5069070000000 1.0
C      1  0.5174390000000  0.4705040000000  0.5237660000000 1.0
C      1  0.4949090000000  0.4672350000000  0.5048920000000 1.0
C      1  0.4956220000000  0.4756340000000  0.4776500000000 1.0
C      1  0.4823220000000  0.4988690000000  0.4670470000000 1.0
C      1  0.4925440000000  0.5255650000000  0.4643940000000 1.0
C      1  0.4989090000000  0.5437550000000  0.4899240000000 1.0
C      1  0.4989390000000  0.5368750000000  0.5202990000000 1.0
C      1  0.5184900000000  0.5193950000000  0.5340100000000 1.0
C      1  0.5087610000000  0.4925030000000  0.5418490000000 1.0
C      1  0.4044690000000  0.5212150000000  0.5575000000000 1.0
C      1  0.4027240000000  0.4715990000000  0.5556210000000 1.0
C      1  0.4133740000000  0.4311710000000  0.5316690000000 1.0
C      1  0.4145250000000  0.4245610000000  0.4831020000000 1.0
C      1  0.4062100000000  0.4551240000000  0.4464410000000 1.0
C      1  0.4061500000000  0.5022620000000  0.4303850000000 1.0
C      1  0.4048900000000  0.5467860000000  0.4480890000000 1.0
C      1  0.4076890000000  0.5702380000000  0.4937070000000 1.0
C      1  0.4187390000000  0.5638620000000  0.5403810000000 1.0
C      1  0.5067310000000  0.4407310000000  0.4319990000000 1.0
C      1  0.4960280000000  0.5046650000000  0.4255300000000 1.0
C      1  0.5047590000000  0.5608840000000  0.4217580000000 1.0
C      1  0.5079110000000  0.5936370000000  0.4783760000000 1.0
C      1  0.4995680000000  0.5651220000000  0.5319750000000 1.0
C      1  0.5022350000000  0.5345410000000  0.5861000000000 1.0
C      1  0.5087190000000  0.4714040000000  0.5929830000000 1.0
C      1  0.5045020000000  0.4260710000000  0.5500070000000 1.0
C      1  0.5026920000000  0.4093210000000  0.4883260000000 1.0
C      1  0.4727960000000  0.5611520000000  0.4938170000000 1.0
C      1  0.4712790000000  0.5205440000000  0.5506230000000 1.0
C      1  0.4833930000000  0.4931300000000  0.5575510000000 1.0
C      1  0.4741250000000  0.4646480000000  0.5435920000000 1.0
C      1  0.4752020000000  0.4454270000000  0.5095340000000 1.0
C      1  0.4749460000000  0.4549070000000  0.4674220000000 1.0
C      1  0.4678270000000  0.4848990000000  0.4443090000000 1.0
C      1  0.4710070000000  0.5405650000000  0.4495430000000 1.0
C      1  0.4688280000000  0.5678600000000  0.4647910000000 1.0
C      1  0.4935800000000  0.4060300000000  0.5340720000000 1.0
C      1  0.4908720000000  0.4082490000000  0.4631730000000 1.0
C      1  0.4964100000000  0.4579410000000  0.4128500000000 1.0
C      1  0.4865500000000  0.5228220000000  0.4052820000000 1.0
C      1  0.4988400000000  0.5862690000000  0.4317380000000 1.0
C      1  0.4962050000000  0.6041330000000  0.5016520000000 1.0
C      1  0.4863710000000  0.5668750000000  0.5573650000000 1.0
C      1  0.4943680000000  0.5149180000000  0.6041360000000 1.0
C      1  0.4945220000000  0.4482580000000  0.5870430000000 1.0
C      1  0.5305860000000  0.4510190000000  0.4462350000000 1.0
C      1  0.5264890000000  0.4979570000000  0.4241850000000 1.0
C      1  0.5229470000000  0.5451190000000  0.4389880000000 1.0
C      1  0.5215550000000  0.5667670000000  0.4838600000000 1.0
C      1  0.5303020000000  0.5706000000000  0.5334030000000 1.0
C      1  0.5277280000000  0.5297010000000  0.5697930000000 1.0
C      1  0.5328440000000  0.4779730000000  0.5759210000000 1.0
C      1  0.5272360000000  0.4434100000000  0.5383860000000 1.0
C      1  0.5269530000000  0.4255950000000  0.4906410000000 1.0
C      1  0.5462290000000  0.4581830000000  0.5578220000000 1.0
C      1  0.5421170000000  0.4282150000000  0.5160010000000 1.0
C      1  0.5429040000000  0.4344060000000  0.4674200000000 1.0
C      1  0.5430690000000  0.4766920000000  0.4378750000000 1.0
C      1  0.5399170000000  0.5234760000000  0.4287340000000 1.0
C      1  0.5372440000000  0.5582020000000  0.4603430000000 1.0
C      1  0.5426090000000  0.5678090000000  0.5061820000000 1.0
C      1  0.5441570000000  0.5505140000000  0.5507060000000 1.0
C      1  0.5457150000000  0.5051600000000  0.5757810000000 1.0
C      1  0.4127220000000  0.5501100000000  0.4747970000000 1.0
C      1  0.4270090000000  0.5654180000000  0.5138770000000 1.0
C      1  0.4251690000000  0.5382490000000  0.5491780000000 1.0
C      1  0.4101630000000  0.4966260000000  0.5454020000000 1.0
C      1  0.4219650000000  0.4536770000000  0.5459580000000 1.0
C      1  0.4270240000000  0.4303330000000  0.5073790000000 1.0
C      1  0.4242180000000  0.4422200000000  0.4636450000000 1.0
C      1  0.4113090000000  0.4825040000000  0.4493940000000 1.0
C      1  0.4204930000000  0.5248560000000  0.4391290000000 1.0
C      1  0.4340060000000  0.4967590000000  0.5291520000000 1.0
C      1  0.4437570000000  0.4682170000000  0.5317090000000 1.0
C      1  0.4455440000000  0.4529550000000  0.5047880000000 1.0
C      1  0.4441730000000  0.4611540000000  0.4750430000000 1.0
C      1  0.4324460000000  0.4889510000000  0.4678580000000 1.0
C      1  0.4433400000000  0.5183360000000  0.4584280000000 1.0
C      1  0.4338850000000  0.5331320000000  0.4825880000000 1.0
C      1  0.4475740000000  0.5449300000000  0.5059600000000 1.0
C      1  0.4464480000000  0.5240790000000  0.5333680000000 1.0
C      1  0.4874420000000  0.5899940000000  0.4570140000000 1.0
C      1  0.4831740000000  0.5822630000000  0.5130880000000 1.0
C      1  0.4800960000000  0.5423860000000  0.5686570000000 1.0
C      1  0.4887860000000  0.4922380000000  0.5887640000000 1.0
C      1  0.4832110000000  0.4417890000000  0.5623080000000 1.0
C      1  0.4835260000000  0.4151510000000  0.5097640000000 1.0
C      1  0.4846560000000  0.4315620000000  0.4494380000000 1.0
C      1  0.4808080000000  0.4802880000000  0.4171750000000 1.0
C      1  0.4799880000000  0.5452390000000  0.4201490000000 1.0
C      1  0.6058470000000  0.5264030000000  0.4851540000000 1.0
C      1  0.5925510000000  0.5393190000000  0.5057450000000 1.0
C      1  0.5989680000000  0.5286520000000  0.5305710000000 1.0
C      1  0.5923710000000  0.5074150000000  0.5471360000000 1.0
C      1  0.5889330000000  0.4733980000000  0.5332400000000 1.0
C      1  0.5933750000000  0.4528610000000  0.5141890000000 1.0
C      1  0.5929430000000  0.4580280000000  0.4757950000000 1.0
C      1  0.5903800000000  0.4828060000000  0.4623870000000 1.0
C      1  0.6064580000000  0.5037450000000  0.4708490000000 1.0
C      1  0.5429120000000  0.4804960000000  0.5128840000000 1.0
END
