TITL C-3578207-9274-457 -3.55266496409559e-06 125000 -1061.14870139438 0 0 171 (C1) n - 1
REM
REM in /home/bkarasulu/work/CARBON/AIRSS/Generating-Clusters/EDIP-Nigel-Params/with-SteepDescent/Higher-Symm/SD-CG/HFTN-CG
REM
REM
REM
REM
REM
REM ./C.cell (12c818d87b63d06a65506943cc24bca4)
REM
REM compiler GCC version 9.2.1 20190827 (Red Hat 9.2.1-1)
REM options -cpp -mtune=generic -march=x86-64 -g -O0 -fpre-include=/usr/include/finclude/math-vector-fortran.h
REM seed -641175599 -769940508 16292564 -2017643915 -1720065292 1487599160 1257092014 172750490 -1822913801 -631332580 2075886712 -720324270 1698844418 -1398732308 703933878 1461365429 1855243416 527529036 2934306 -1093729921 1801938834 -414767762 -592445064 1965331933 -1405639727 733286508 -1531307239 -198381710 2107645925 1602085074 2124397640 351535067 -215337362
REM
CELL 1.54180   50.00000   50.00000   50.00000   90.00000   90.00000   90.00000
LATT -1
SFAC C  
C      1  0.5551420000000  0.5717660000000  0.5321960000000 1.0
C      1  0.5579110000000  0.4251690000000  0.4680510000000 1.0
C      1  0.4459300000000  0.4315570000000  0.5298380000000 1.0
C      1  0.4421910000000  0.5736710000000  0.4669060000000 1.0
C      1  0.5587180000000  0.5290550000000  0.5752000000000 1.0
C      1  0.5564250000000  0.4670360000000  0.4275360000000 1.0
C      1  0.4423110000000  0.5345250000000  0.4231220000000 1.0
C      1  0.4466980000000  0.4692300000000  0.5736180000000 1.0
C      1  0.5304100000000  0.5000730000000  0.5379220000000 1.0
C      1  0.5186730000000  0.5081230000000  0.4667100000000 1.0
C      1  0.4698720000000  0.5023540000000  0.5414880000000 1.0
C      1  0.4755170000000  0.4974570000000  0.4624890000000 1.0
C      1  0.5313500000000  0.5413240000000  0.4980950000000 1.0
C      1  0.5117570000000  0.4719850000000  0.5000730000000 1.0
C      1  0.4784050000000  0.5258520000000  0.5057870000000 1.0
C      1  0.4722600000000  0.4661350000000  0.4993170000000 1.0
C      1  0.5618830000000  0.4974620000000  0.5850180000000 1.0
C      1  0.5580040000000  0.5020450000000  0.4156760000000 1.0
C      1  0.4407110000000  0.5019530000000  0.5871980000000 1.0
C      1  0.4406190000000  0.4982670000000  0.4125570000000 1.0
C      1  0.5590680000000  0.5865330000000  0.4980440000000 1.0
C      1  0.5608780000000  0.4123260000000  0.5028960000000 1.0
C      1  0.4410690000000  0.5836700000000  0.5011340000000 1.0
C      1  0.4399530000000  0.4192380000000  0.4990060000000 1.0
C      1  0.5850240000000  0.4340710000000  0.4564670000000 1.0
C      1  0.5824920000000  0.5620050000000  0.5426970000000 1.0
C      1  0.4148090000000  0.5648040000000  0.4574670000000 1.0
C      1  0.4205960000000  0.4437840000000  0.5400590000000 1.0
C      1  0.5838690000000  0.4573690000000  0.4354570000000 1.0
C      1  0.5843410000000  0.5384630000000  0.5629470000000 1.0
C      1  0.4205500000000  0.4614730000000  0.5628940000000 1.0
C      1  0.4149560000000  0.5450900000000  0.4327430000000 1.0
C      1  0.5192380000000  0.5129250000000  0.3802000000000 1.0
C      1  0.5217650000000  0.4880450000000  0.6238870000000 1.0
C      1  0.4825440000000  0.4872290000000  0.3787980000000 1.0
C      1  0.4818040000000  0.5117740000000  0.6239350000000 1.0
C      1  0.5189540000000  0.3789550000000  0.5153030000000 1.0
C      1  0.5188980000000  0.6214340000000  0.4868980000000 1.0
C      1  0.4787870000000  0.3790740000000  0.4910700000000 1.0
C      1  0.4767290000000  0.6214600000000  0.5087330000000 1.0
C      1  0.4471020000000  0.5019510000000  0.4762300000000 1.0
C      1  0.4496850000000  0.5055850000000  0.5210660000000 1.0
C      1  0.5469150000000  0.5004570000000  0.4731480000000 1.0
C      1  0.5519910000000  0.4989670000000  0.5181400000000 1.0
C      1  0.4466940000000  0.4839660000000  0.5000380000000 1.0
C      1  0.4508370000000  0.5296300000000  0.4903500000000 1.0
C      1  0.5428420000000  0.4791970000000  0.4967920000000 1.0
C      1  0.5538150000000  0.5220080000000  0.4965050000000 1.0
C      1  0.4619530000000  0.5183530000000  0.6024960000000 1.0
C      1  0.4612760000000  0.4787280000000  0.3992780000000 1.0
C      1  0.5413890000000  0.4794360000000  0.6008570000000 1.0
C      1  0.5386130000000  0.5213320000000  0.4009640000000 1.0
C      1  0.4578390000000  0.6018320000000  0.5200490000000 1.0
C      1  0.4596120000000  0.4021840000000  0.4815110000000 1.0
C      1  0.5378100000000  0.5996740000000  0.4800900000000 1.0
C      1  0.5393410000000  0.3998070000000  0.5214740000000 1.0
C      1  0.5896130000000  0.5352910000000  0.5017290000000 1.0
C      1  0.5970320000000  0.4632010000000  0.4984160000000 1.0
C      1  0.4089900000000  0.4743150000000  0.5012470000000 1.0
C      1  0.4071400000000  0.5281520000000  0.4961780000000 1.0
C      1  0.5900290000000  0.4991340000000  0.5273400000000 1.0
C      1  0.5909840000000  0.4966990000000  0.4699630000000 1.0
C      1  0.4124920000000  0.5041430000000  0.4596120000000 1.0
C      1  0.3927280000000  0.5024910000000  0.5329860000000 1.0
C      1  0.5078260000000  0.5300680000000  0.5674410000000 1.0
C      1  0.5120280000000  0.4731020000000  0.4405050000000 1.0
C      1  0.4925450000000  0.4715420000000  0.5647150000000 1.0
C      1  0.4892030000000  0.5301050000000  0.4356950000000 1.0
C      1  0.5068280000000  0.5669810000000  0.5310770000000 1.0
C      1  0.5107650000000  0.4373850000000  0.4734130000000 1.0
C      1  0.4873320000000  0.5578720000000  0.4772370000000 1.0
C      1  0.4915320000000  0.4377490000000  0.5312630000000 1.0
C      1  0.5165750000000  0.4535390000000  0.5271980000000 1.0
C      1  0.5163380000000  0.5535290000000  0.4722720000000 1.0
C      1  0.4813720000000  0.5482840000000  0.5301160000000 1.0
C      1  0.4827640000000  0.4490930000000  0.4715830000000 1.0
C      1  0.5152260000000  0.5321810000000  0.4504210000000 1.0
C      1  0.5196560000000  0.4732560000000  0.5506460000000 1.0
C      1  0.4802450000000  0.5288580000000  0.5533940000000 1.0
C      1  0.4834430000000  0.4701000000000  0.4488050000000 1.0
C      1  0.4601850000000  0.5486570000000  0.4697010000000 1.0
C      1  0.4678540000000  0.4540310000000  0.5272010000000 1.0
C      1  0.5380480000000  0.4486800000000  0.4725740000000 1.0
C      1  0.5316570000000  0.5500630000000  0.5267840000000 1.0
C      1  0.4677140000000  0.4746550000000  0.5504510000000 1.0
C      1  0.4622910000000  0.5305080000000  0.4465790000000 1.0
C      1  0.5393310000000  0.4715910000000  0.4528520000000 1.0
C      1  0.5307780000000  0.5272240000000  0.5482580000000 1.0
C      1  0.5105240000000  0.5677690000000  0.4130740000000 1.0
C      1  0.5123050000000  0.4336390000000  0.5868850000000 1.0
C      1  0.4892080000000  0.4332800000000  0.4138840000000 1.0
C      1  0.4889330000000  0.5644280000000  0.5868300000000 1.0
C      1  0.5119550000000  0.4129050000000  0.5657150000000 1.0
C      1  0.5104130000000  0.5878060000000  0.4351520000000 1.0
C      1  0.4887230000000  0.4133950000000  0.4356490000000 1.0
C      1  0.4886770000000  0.5855470000000  0.5661550000000 1.0
C      1  0.3907420000000  0.4760830000000  0.5444150000000 1.0
C      1  0.3973200000000  0.5254560000000  0.4481930000000 1.0
C      1  0.6025540000000  0.5227930000000  0.5422360000000 1.0
C      1  0.6017850000000  0.4747740000000  0.4532950000000 1.0
C      1  0.3970110000000  0.5435980000000  0.4730360000000 1.0
C      1  0.4000570000000  0.4570780000000  0.5239210000000 1.0
C      1  0.6020850000000  0.5478350000000  0.5237150000000 1.0
C      1  0.6053350000000  0.4504700000000  0.4734010000000 1.0
C      1  0.5418110000000  0.4179660000000  0.4409520000000 1.0
C      1  0.5402350000000  0.5787040000000  0.5596700000000 1.0
C      1  0.4579070000000  0.5825240000000  0.4399480000000 1.0
C      1  0.4603420000000  0.4207890000000  0.5580850000000 1.0
C      1  0.5417510000000  0.4391640000000  0.4196140000000 1.0
C      1  0.5401060000000  0.5565090000000  0.5799330000000 1.0
C      1  0.4599660000000  0.4406650000000  0.5806920000000 1.0
C      1  0.4579750000000  0.5628380000000  0.4168330000000 1.0
C      1  0.4107690000000  0.4774980000000  0.4518430000000 1.0
C      1  0.4139360000000  0.5205420000000  0.5417410000000 1.0
C      1  0.5828990000000  0.5219330000000  0.4585310000000 1.0
C      1  0.5901460000000  0.4745580000000  0.5434430000000 1.0
C      1  0.4109850000000  0.4594860000000  0.4755000000000 1.0
C      1  0.4139870000000  0.5412180000000  0.5208980000000 1.0
C      1  0.5917080000000  0.4516090000000  0.5241970000000 1.0
C      1  0.5853700000000  0.5447650000000  0.4762360000000 1.0
C      1  0.4273720000000  0.5225300000000  0.5683130000000 1.0
C      1  0.4297510000000  0.4755020000000  0.4301990000000 1.0
C      1  0.5718260000000  0.4749480000000  0.5663050000000 1.0
C      1  0.5693100000000  0.5240570000000  0.4331700000000 1.0
C      1  0.4329290000000  0.5627690000000  0.5212930000000 1.0
C      1  0.4298770000000  0.4370820000000  0.4761450000000 1.0
C      1  0.5703080000000  0.5695620000000  0.4751160000000 1.0
C      1  0.5718250000000  0.4302360000000  0.5248360000000 1.0
C      1  0.5051890000000  0.6148000000000  0.5118930000000 1.0
C      1  0.5065010000000  0.3865270000000  0.4797720000000 1.0
C      1  0.4900370000000  0.3869610000000  0.5201510000000 1.0
C      1  0.4856810000000  0.6074880000000  0.4733610000000 1.0
C      1  0.5106040000000  0.5166310000000  0.6161640000000 1.0
C      1  0.5096450000000  0.4767430000000  0.3893120000000 1.0
C      1  0.4902160000000  0.5160010000000  0.3868940000000 1.0
C      1  0.4944540000000  0.4760500000000  0.6162390000000 1.0
C      1  0.5064700000000  0.5846320000000  0.5076850000000 1.0
C      1  0.5109870000000  0.4147170000000  0.4910540000000 1.0
C      1  0.4891280000000  0.4170550000000  0.5109280000000 1.0
C      1  0.4837890000000  0.5821260000000  0.4903350000000 1.0
C      1  0.5112550000000  0.5084110000000  0.5862640000000 1.0
C      1  0.5123490000000  0.4896880000000  0.4169560000000 1.0
C      1  0.4890260000000  0.5081930000000  0.4171200000000 1.0
C      1  0.4907670000000  0.4877510000000  0.5883470000000 1.0
C      1  0.5557950000000  0.5501540000000  0.4301340000000 1.0
C      1  0.5579910000000  0.4497510000000  0.5703760000000 1.0
C      1  0.4441000000000  0.4502530000000  0.4289650000000 1.0
C      1  0.4436240000000  0.5467290000000  0.5686870000000 1.0
C      1  0.5567390000000  0.4297100000000  0.5494670000000 1.0
C      1  0.5553210000000  0.5714180000000  0.4502950000000 1.0
C      1  0.4432020000000  0.4310700000000  0.4508820000000 1.0
C      1  0.4449980000000  0.5659170000000  0.5470420000000 1.0
C      1  0.4713330000000  0.4575140000000  0.4208360000000 1.0
C      1  0.4660110000000  0.5440300000000  0.5870900000000 1.0
C      1  0.5288880000000  0.5435840000000  0.4204830000000 1.0
C      1  0.5315530000000  0.4574550000000  0.5803360000000 1.0
C      1  0.4699490000000  0.4218060000000  0.4589330000000 1.0
C      1  0.4679150000000  0.5833800000000  0.5432710000000 1.0
C      1  0.5303250000000  0.4201480000000  0.5422970000000 1.0
C      1  0.5285560000000  0.5798210000000  0.4587290000000 1.0
C      1  0.5164980000000  0.4379940000000  0.4057560000000 1.0
C      1  0.5153220000000  0.5554520000000  0.5954650000000 1.0
C      1  0.4838650000000  0.5619600000000  0.4053980000000 1.0
C      1  0.4851570000000  0.4397290000000  0.5945230000000 1.0
C      1  0.5157470000000  0.4059780000000  0.4422700000000 1.0
C      1  0.5152750000000  0.5934470000000  0.5578140000000 1.0
C      1  0.4847400000000  0.4054410000000  0.5596130000000 1.0
C      1  0.4834010000000  0.5986420000000  0.4442490000000 1.0
C      1  0.3942320000000  0.5016250000000  0.5029980000000 1.0
C      1  0.5996590000000  0.4922210000000  0.4986400000000 1.0
C      1  0.4962510000000  0.5009330000000  0.4866010000000 1.0
END
