TITL C-3578195-8548-468 -7.20019329567791e-07 125000 -915.145121786936 0 0 144 (C4) n - 1
REM
REM in /home/bkarasulu/work/CARBON/AIRSS/Generating-Clusters/EDIP-Nigel-Params/with-SteepDescent/Higher-Symm/SD-CG/HFTN-CG
REM
REM
REM
REM
REM
REM ./C.cell (12c818d87b63d06a65506943cc24bca4)
REM
REM compiler GCC version 9.2.1 20190827 (Red Hat 9.2.1-1)
REM options -cpp -mtune=generic -march=x86-64 -g -O0 -fpre-include=/usr/include/finclude/math-vector-fortran.h
REM seed 504386496 -2079731618 -1083193293 -1853038706 -1901965102 474145596 -1021344704 -743055539 179058793 -250077141 -1954118500 -249596003 -1675863429 -1359710606 2056762405 1678920147 1226221719 1037854413 1097122465 -253048375 2128829784 -1449474291 1307508321 1809861238 -1316742957 -251626278 1747973820 -1853898736 1729633758 -219235729 -29523912 1038344897 -149881228
REM
CELL 1.54180   50.00000   50.00000   50.00000   90.00000   90.00000   90.00000
LATT -1
SFAC C  
C      1  0.5539560000000  0.4257870000000  0.5494190000000 1.0
C      1  0.5542460000000  0.4621480000000  0.5795360000000 1.0
C      1  0.5557320000000  0.5069660000000  0.5924320000000 1.0
C      1  0.5539340000000  0.5496920000000  0.5739050000000 1.0
C      1  0.5542690000000  0.5801220000000  0.5377870000000 1.0
C      1  0.5558410000000  0.5932150000000  0.4930190000000 1.0
C      1  0.5537810000000  0.5742500000000  0.4504460000000 1.0
C      1  0.5540210000000  0.5378900000000  0.4203290000000 1.0
C      1  0.5555060000000  0.4930730000000  0.4074300000000 1.0
C      1  0.5537840000000  0.4503450000000  0.4259610000000 1.0
C      1  0.5542310000000  0.4199150000000  0.4620780000000 1.0
C      1  0.5559240000000  0.4068240000000  0.5068420000000 1.0
C      1  0.4971180000000  0.4372530000000  0.5738860000000 1.0
C      1  0.4954700000000  0.4800170000000  0.6017770000000 1.0
C      1  0.4970800000000  0.5301950000000  0.5920920000000 1.0
C      1  0.4971810000000  0.5741350000000  0.5626680000000 1.0
C      1  0.4955100000000  0.6022130000000  0.5200110000000 1.0
C      1  0.4968650000000  0.5922780000000  0.4699250000000 1.0
C      1  0.4968900000000  0.5627450000000  0.4261220000000 1.0
C      1  0.4952030000000  0.5199790000000  0.3982350000000 1.0
C      1  0.4968720000000  0.4698030000000  0.4079160000000 1.0
C      1  0.4970770000000  0.4258630000000  0.4373400000000 1.0
C      1  0.4955320000000  0.3977830000000  0.4800000000000 1.0
C      1  0.4970040000000  0.4077200000000  0.5300830000000 1.0
C      1  0.4530520000000  0.5791930000000  0.4469640000000 1.0
C      1  0.4519130000000  0.5426220000000  0.4130960000000 1.0
C      1  0.4522360000000  0.4934190000000  0.4040690000000 1.0
C      1  0.4531380000000  0.4466500000000  0.4209040000000 1.0
C      1  0.4520730000000  0.4125860000000  0.4573090000000 1.0
C      1  0.4523890000000  0.4036480000000  0.5065100000000 1.0
C      1  0.4532400000000  0.4207740000000  0.5531530000000 1.0
C      1  0.4521590000000  0.4573440000000  0.5870230000000 1.0
C      1  0.4524710000000  0.5065480000000  0.5960500000000 1.0
C      1  0.4532980000000  0.5533180000000  0.5792120000000 1.0
C      1  0.4521180000000  0.5873800000000  0.5428110000000 1.0
C      1  0.4523050000000  0.5963180000000  0.4936080000000 1.0
C      1  0.5206610000000  0.4772290000000  0.6162130000000 1.0
C      1  0.5196390000000  0.5375660000000  0.6089590000000 1.0
C      1  0.5205590000000  0.5867370000000  0.5747440000000 1.0
C      1  0.5206220000000  0.6169120000000  0.5227590000000 1.0
C      1  0.5193710000000  0.6091830000000  0.4624510000000 1.0
C      1  0.5202970000000  0.5747460000000  0.4134960000000 1.0
C      1  0.5203550000000  0.5227860000000  0.3837360000000 1.0
C      1  0.5193940000000  0.4624480000000  0.3909930000000 1.0
C      1  0.5204330000000  0.4132770000000  0.4252050000000 1.0
C      1  0.5206470000000  0.3831020000000  0.4771890000000 1.0
C      1  0.5195400000000  0.3908310000000  0.5375000000000 1.0
C      1  0.5205650000000  0.4252680000000  0.5864530000000 1.0
C      1  0.4689400000000  0.5070660000000  0.4619940000000 1.0
C      1  0.4851990000000  0.4858120000000  0.4553930000000 1.0
C      1  0.4816040000000  0.4615820000000  0.4691420000000 1.0
C      1  0.4676840000000  0.4609530000000  0.4929960000000 1.0
C      1  0.4856440000000  0.4554020000000  0.5132120000000 1.0
C      1  0.4813110000000  0.4681870000000  0.5378600000000 1.0
C      1  0.4690400000000  0.4929120000000  0.5380830000000 1.0
C      1  0.4853000000000  0.5141780000000  0.5446440000000 1.0
C      1  0.4816540000000  0.5384050000000  0.5309040000000 1.0
C      1  0.4676740000000  0.5390250000000  0.5070850000000 1.0
C      1  0.4855800000000  0.5445880000000  0.4868240000000 1.0
C      1  0.4811940000000  0.5318000000000  0.4621870000000 1.0
C      1  0.4394930000000  0.5166710000000  0.4152540000000 1.0
C      1  0.4401720000000  0.4722890000000  0.4194310000000 1.0
C      1  0.4395820000000  0.4347440000000  0.4434410000000 1.0
C      1  0.4393740000000  0.4144570000000  0.4831950000000 1.0
C      1  0.4402630000000  0.4190800000000  0.5275620000000 1.0
C      1  0.4397090000000  0.4434190000000  0.5649010000000 1.0
C      1  0.4397160000000  0.4832860000000  0.5848960000000 1.0
C      1  0.4403540000000  0.5276690000000  0.5807180000000 1.0
C      1  0.4396770000000  0.5652140000000  0.5567090000000 1.0
C      1  0.4393560000000  0.5855010000000  0.5169570000000 1.0
C      1  0.4401380000000  0.5808780000000  0.4725870000000 1.0
C      1  0.4395080000000  0.5565390000000  0.4352500000000 1.0
C      1  0.5702670000000  0.5552530000000  0.4662780000000 1.0
C      1  0.5676180000000  0.5235080000000  0.4439170000000 1.0
C      1  0.5742760000000  0.4940970000000  0.4306900000000 1.0
C      1  0.5702220000000  0.4661500000000  0.4450200000000 1.0
C      1  0.5678460000000  0.4434570000000  0.4765440000000 1.0
C      1  0.5745570000000  0.4302310000000  0.5057570000000 1.0
C      1  0.5703890000000  0.4447960000000  0.5335470000000 1.0
C      1  0.5677740000000  0.4765390000000  0.5559140000000 1.0
C      1  0.5744450000000  0.5059550000000  0.5691250000000 1.0
C      1  0.5703350000000  0.5338990000000  0.5548050000000 1.0
C      1  0.5678650000000  0.5565910000000  0.5232860000000 1.0
C      1  0.5744940000000  0.5698220000000  0.4940570000000 1.0
C      1  0.4229540000000  0.4801060000000  0.4425920000000 1.0
C      1  0.4225910000000  0.4534310000000  0.4596950000000 1.0
C      1  0.4224420000000  0.4388460000000  0.4879730000000 1.0
C      1  0.4229750000000  0.4421910000000  0.5197520000000 1.0
C      1  0.4226870000000  0.4596650000000  0.5462220000000 1.0
C      1  0.4227240000000  0.4880600000000  0.5606260000000 1.0
C      1  0.4230830000000  0.5198400000000  0.5576000000000 1.0
C      1  0.4226590000000  0.5465150000000  0.5404980000000 1.0
C      1  0.4224300000000  0.5611000000000  0.5122200000000 1.0
C      1  0.4228860000000  0.5577550000000  0.4804400000000 1.0
C      1  0.4225440000000  0.5402810000000  0.4539700000000 1.0
C      1  0.4225640000000  0.5118860000000  0.4395670000000 1.0
C      1  0.5434110000000  0.4003060000000  0.4810560000000 1.0
C      1  0.5414730000000  0.4069030000000  0.5317630000000 1.0
C      1  0.5416420000000  0.4370660000000  0.5727010000000 1.0
C      1  0.5431590000000  0.4812460000000  0.5987980000000 1.0
C      1  0.5415480000000  0.5319980000000  0.5928070000000 1.0
C      1  0.5417230000000  0.5731660000000  0.5628890000000 1.0
C      1  0.5433880000000  0.5997250000000  0.5188360000000 1.0
C      1  0.5413290000000  0.5931260000000  0.4681340000000 1.0
C      1  0.5414170000000  0.5629630000000  0.4271950000000 1.0
C      1  0.5429000000000  0.5187840000000  0.4010950000000 1.0
C      1  0.5413390000000  0.4680310000000  0.4070900000000 1.0
C      1  0.5416180000000  0.4268630000000  0.4370070000000 1.0
C      1  0.5356500000000  0.5169800000000  0.5518200000000 1.0
C      1  0.5257770000000  0.5339360000000  0.5296730000000 1.0
C      1  0.5457470000000  0.5403160000000  0.5097630000000 1.0
C      1  0.5355650000000  0.5520500000000  0.4830140000000 1.0
C      1  0.5253540000000  0.5297440000000  0.4664740000000 1.0
C      1  0.5454060000000  0.5098680000000  0.4600280000000 1.0
C      1  0.5355320000000  0.4830450000000  0.4480910000000 1.0
C      1  0.5257270000000  0.4660820000000  0.4702630000000 1.0
C      1  0.5457510000000  0.4597160000000  0.4901230000000 1.0
C      1  0.5356440000000  0.4479750000000  0.5168980000000 1.0
C      1  0.5254580000000  0.4702740000000  0.5334630000000 1.0
C      1  0.5455120000000  0.4901640000000  0.5398580000000 1.0
C      1  0.5064750000000  0.5661910000000  0.4871400000000 1.0
C      1  0.5043280000000  0.5359500000000  0.4448920000000 1.0
C      1  0.5057720000000  0.5145260000000  0.4249220000000 1.0
C      1  0.5062960000000  0.4868820000000  0.4340690000000 1.0
C      1  0.5046710000000  0.4443900000000  0.4642590000000 1.0
C      1  0.5064710000000  0.4243700000000  0.4854130000000 1.0
C      1  0.5065530000000  0.4338130000000  0.5128440000000 1.0
C      1  0.5044910000000  0.4640530000000  0.5550970000000 1.0
C      1  0.5059690000000  0.4854790000000  0.5750640000000 1.0
C      1  0.5064510000000  0.5131220000000  0.5659150000000 1.0
C      1  0.5047210000000  0.5556130000000  0.5357290000000 1.0
C      1  0.5064540000000  0.5756350000000  0.5145710000000 1.0
C      1  0.4823310000000  0.4441900000000  0.4172660000000 1.0
C      1  0.4804910000000  0.4042840000000  0.4531390000000 1.0
C      1  0.4804860000000  0.3939170000000  0.5072560000000 1.0
C      1  0.4824200000000  0.4170970000000  0.5556560000000 1.0
C      1  0.4805200000000  0.4531110000000  0.5954140000000 1.0
C      1  0.4805460000000  0.5072940000000  0.6058160000000 1.0
C      1  0.4824980000000  0.5557980000000  0.5827780000000 1.0
C      1  0.4805410000000  0.5957030000000  0.5469100000000 1.0
C      1  0.4803940000000  0.6060690000000  0.4927920000000 1.0
C      1  0.4822230000000  0.5828910000000  0.4443880000000 1.0
C      1  0.4802500000000  0.5468750000000  0.4046340000000 1.0
C      1  0.4802880000000  0.4926930000000  0.3942320000000 1.0
END
