TITL C-3578199-7832-14 6.78484023928134e-07 125000 -147.911901808953 0 0 25 (D5) n - 1
REM
REM in /home/bkarasulu/work/CARBON/AIRSS/Generating-Clusters/EDIP-Nigel-Params/with-SteepDescent/Higher-Symm/SD-CG/HFTN-CG
REM
REM
REM
REM
REM
REM ./C.cell (12c818d87b63d06a65506943cc24bca4)
REM
REM compiler GCC version 9.2.1 20190827 (Red Hat 9.2.1-1)
REM options -cpp -mtune=generic -march=x86-64 -g -O0 -fpre-include=/usr/include/finclude/math-vector-fortran.h
REM seed 762056477 -1880371538 -1866958091 491339087 423733378 2088258875 -926592163 -217481479 537402069 -485532530 -568971803 1100317562 547078270 1575590706 -1917795734 1783162237 -1221490507 1061859211 1064926205 1482586937 -170740591 -632009147 -888272697 -425368483 59386539 -1463222481 1979903345 1237477898 2046438636 -1433257513 789669231 2071954753 -2018695095
REM
CELL 1.54180   50.00000   50.00000   50.00000   90.00000   90.00000   90.00000
LATT -1
SFAC C  
C      1  0.4944090000000  0.5256630000000  0.4846120000000 1.0
C      1  0.4738660000000  0.5026130000000  0.4846120000000 1.0
C      1  0.4894400000000  0.4759520000000  0.4846120000000 1.0
C      1  0.5196080000000  0.4825250000000  0.4846130000000 1.0
C      1  0.5226790000000  0.5132480000000  0.4846130000000 1.0
C      1  0.5055910000000  0.5256630000000  0.5230190000000 1.0
C      1  0.5261340000000  0.5026130000000  0.5230190000000 1.0
C      1  0.5105600000000  0.4759520000000  0.5230190000000 1.0
C      1  0.4803920000000  0.4825250000000  0.5230180000000 1.0
C      1  0.4773210000000  0.5132480000000  0.5230180000000 1.0
C      1  0.5413910000000  0.4630260000000  0.4941930000000 1.0
C      1  0.5479550000000  0.5279400000000  0.4941940000000 1.0
C      1  0.4882470000000  0.5542420000000  0.4941920000000 1.0
C      1  0.4447810000000  0.5055840000000  0.4941910000000 1.0
C      1  0.4776260000000  0.4492090000000  0.4941920000000 1.0
C      1  0.4586090000000  0.4630260000000  0.5134380000000 1.0
C      1  0.4520450000000  0.5279400000000  0.5134370000000 1.0
C      1  0.5117530000000  0.5542420000000  0.5134390000000 1.0
C      1  0.5552190000000  0.5055840000000  0.5134400000000 1.0
C      1  0.5223740000000  0.4492090000000  0.5134390000000 1.0
C      1  0.5619820000000  0.4798610000000  0.5038170000000 1.0
C      1  0.4616930000000  0.5527250000000  0.5038140000000 1.0
C      1  0.4380180000000  0.4798610000000  0.5038140000000 1.0
C      1  0.5383070000000  0.5527250000000  0.5038170000000 1.0
C      1  0.5000000000000  0.4348280000000  0.5038160000000 1.0
END
