TITL C-3578204-4308-553 -4.19217261496797e-07 125000 -199.671491677636 0 0 35 (Cs) n - 1
REM
REM in /home/bkarasulu/work/CARBON/AIRSS/Generating-Clusters/EDIP-Nigel-Params/with-SteepDescent/Higher-Symm/SD-CG/HFTN-CG
REM
REM
REM
REM
REM
REM ./C.cell (12c818d87b63d06a65506943cc24bca4)
REM
REM compiler GCC version 9.2.1 20190827 (Red Hat 9.2.1-1)
REM options -cpp -mtune=generic -march=x86-64 -g -O0 -fpre-include=/usr/include/finclude/math-vector-fortran.h
REM seed -2032995897 -292560651 168459513 -845813576 2025335566 -694382463 1600033534 -1419525152 939471131 -1049238992 -529591810 847738783 2115456357 -1131970841 1756513960 -1745315699 -1992246808 1865511863 868811154 257971259 -1215056580 715961535 1571256233 684660936 -1560510209 942346173 -908548255 -1368188486 -1737561367 -913647217 1180238402 -1433022160 -623134394
REM
CELL 1.54180   50.00000   50.00000   50.00000   90.00000   90.00000   90.00000
LATT -1
SFAC C  
C      1  0.4737870000000  0.5264620000000  0.4941460000000 1.0
C      1  0.4750050000000  0.4765250000000  0.5042810000000 1.0
C      1  0.5244700000000  0.5264630000000  0.4941400000000 1.0
C      1  0.5232560000000  0.4765260000000  0.5042760000000 1.0
C      1  0.5277680000000  0.4783110000000  0.4606670000000 1.0
C      1  0.5281080000000  0.5203380000000  0.5375890000000 1.0
C      1  0.4704830000000  0.4783100000000  0.4606730000000 1.0
C      1  0.4701590000000  0.5203370000000  0.5375950000000 1.0
C      1  0.5212120000000  0.4481980000000  0.5138140000000 1.0
C      1  0.5211830000000  0.5560630000000  0.4900250000000 1.0
C      1  0.4770520000000  0.4481970000000  0.5138190000000 1.0
C      1  0.4770720000000  0.5560620000000  0.4900300000000 1.0
C      1  0.5128000000000  0.4453480000000  0.5405640000000 1.0
C      1  0.5127170000000  0.5627770000000  0.4640680000000 1.0
C      1  0.4854700000000  0.4453480000000  0.5405680000000 1.0
C      1  0.4855330000000  0.5627770000000  0.4640710000000 1.0
C      1  0.5506170000000  0.4886280000000  0.4787070000000 1.0
C      1  0.5510460000000  0.5143160000000  0.5188540000000 1.0
C      1  0.4476390000000  0.4886260000000  0.4787180000000 1.0
C      1  0.4472170000000  0.5143140000000  0.5188660000000 1.0
C      1  0.5126900000000  0.4991220000000  0.5474770000000 1.0
C      1  0.5126530000000  0.4966370000000  0.4456300000000 1.0
C      1  0.4855800000000  0.4991220000000  0.5474800000000 1.0
C      1  0.4855940000000  0.4966360000000  0.4456330000000 1.0
C      1  0.5486340000000  0.5176720000000  0.4796430000000 1.0
C      1  0.5509330000000  0.4857980000000  0.5101570000000 1.0
C      1  0.4496210000000  0.5176700000000  0.4796540000000 1.0
C      1  0.4473300000000  0.4857960000000  0.5101690000000 1.0
C      1  0.5134550000000  0.4543200000000  0.4677100000000 1.0
C      1  0.5134610000000  0.5452740000000  0.5376340000000 1.0
C      1  0.4847990000000  0.4543190000000  0.4677130000000 1.0
C      1  0.4848060000000  0.5452740000000  0.5376370000000 1.0
C      1  0.4991290000000  0.5650590000000  0.5079660000000 1.0
C      1  0.4991310000000  0.4357970000000  0.4982460000000 1.0
C      1  0.4991290000000  0.5057150000000  0.4956950000000 1.0
END
