TITL C-3577079-311-207 4.64126017271169e-06 125000 -1032.98893666692 0 0 164 (C1) n - 1
REM
REM in /home/bkarasulu/work/CARBON/AIRSS/Generating-Clusters/EDIP-Nigel-Params/with-SteepDescent/Higher-Symm/SD-CG/HFTN-CG
REM
REM
REM
REM
REM
REM ./C.cell (12c818d87b63d06a65506943cc24bca4)
REM
REM compiler GCC version 9.2.1 20190827 (Red Hat 9.2.1-1)
REM options -cpp -mtune=generic -march=x86-64 -g -O0 -fpre-include=/usr/include/finclude/math-vector-fortran.h
REM seed -806856229 931139478 -1152573911 1193194729 1637165671 2019772014 1972708597 411330942 -661911203 1775703669 -511695118 -265148320 968877462 -1905372328 -340966469 -629933338 -871747206 732955518 -772742533 229522052 -99849122 -663581582 -71373841 567736041 1529499565 -524957276 -1386702529 769324758 -809889905 -866704598 -1387864291 427607883 1046766910
REM
CELL 1.54180   50.00000   50.00000   50.00000   90.00000   90.00000   90.00000
LATT -1
SFAC C  
C      1  0.5275890000000  0.5984110000000  0.5004340000000 1.0
C      1  0.4734880000000  0.5963990000000  0.5013360000000 1.0
C      1  0.4345700000000  0.4716200000000  0.5188930000000 1.0
C      1  0.5617810000000  0.4733840000000  0.5091870000000 1.0
C      1  0.5680660000000  0.4406700000000  0.5376610000000 1.0
C      1  0.4247370000000  0.4358980000000  0.5426420000000 1.0
C      1  0.5979900000000  0.5522520000000  0.5445660000000 1.0
C      1  0.4029760000000  0.5511130000000  0.5457610000000 1.0
C      1  0.4852590000000  0.6024210000000  0.4754440000000 1.0
C      1  0.5150610000000  0.6036620000000  0.4748970000000 1.0
C      1  0.4712370000000  0.5916100000000  0.4527180000000 1.0
C      1  0.5300580000000  0.5951980000000  0.4517160000000 1.0
C      1  0.5209310000000  0.4015380000000  0.5102900000000 1.0
C      1  0.4641720000000  0.4039950000000  0.5174870000000 1.0
C      1  0.4691300000000  0.5700050000000  0.5504910000000 1.0
C      1  0.5319090000000  0.5695070000000  0.5488200000000 1.0
C      1  0.4908090000000  0.4280510000000  0.4255050000000 1.0
C      1  0.5153100000000  0.4294720000000  0.4127810000000 1.0
C      1  0.5868810000000  0.4585150000000  0.5197130000000 1.0
C      1  0.4075160000000  0.4557380000000  0.5247350000000 1.0
C      1  0.4411410000000  0.4898430000000  0.5406630000000 1.0
C      1  0.5570310000000  0.4947550000000  0.5294270000000 1.0
C      1  0.4201650000000  0.5283730000000  0.5093650000000 1.0
C      1  0.5830060000000  0.5345840000000  0.5051900000000 1.0
C      1  0.5151590000000  0.4411250000000  0.5513660000000 1.0
C      1  0.4794010000000  0.4418490000000  0.5511410000000 1.0
C      1  0.5560560000000  0.5819730000000  0.4534840000000 1.0
C      1  0.4468300000000  0.5755710000000  0.4548830000000 1.0
C      1  0.4369100000000  0.5697420000000  0.4817200000000 1.0
C      1  0.5699610000000  0.5797430000000  0.4795170000000 1.0
C      1  0.4374190000000  0.4262100000000  0.4659450000000 1.0
C      1  0.5531380000000  0.4358570000000  0.4708820000000 1.0
C      1  0.4625360000000  0.4501200000000  0.5736740000000 1.0
C      1  0.5329280000000  0.4510250000000  0.5724360000000 1.0
C      1  0.4468280000000  0.5854300000000  0.5037660000000 1.0
C      1  0.5551010000000  0.5894310000000  0.5027380000000 1.0
C      1  0.5721130000000  0.5370950000000  0.5500250000000 1.0
C      1  0.4276780000000  0.5356370000000  0.5538500000000 1.0
C      1  0.6015780000000  0.4911110000000  0.4864970000000 1.0
C      1  0.3993940000000  0.4875110000000  0.4900610000000 1.0
C      1  0.4242690000000  0.4537470000000  0.4113420000000 1.0
C      1  0.5815300000000  0.4576730000000  0.4146330000000 1.0
C      1  0.5586690000000  0.5462250000000  0.5219260000000 1.0
C      1  0.4440600000000  0.5408160000000  0.5259560000000 1.0
C      1  0.4874330000000  0.4923290000000  0.4026840000000 1.0
C      1  0.5168340000000  0.4931850000000  0.4039940000000 1.0
C      1  0.5034640000000  0.3900590000000  0.4872780000000 1.0
C      1  0.4737980000000  0.3964810000000  0.4909850000000 1.0
C      1  0.4411680000000  0.5170530000000  0.5922010000000 1.0
C      1  0.5567730000000  0.5162950000000  0.5883120000000 1.0
C      1  0.5915650000000  0.4645890000000  0.4747520000000 1.0
C      1  0.4039590000000  0.4601080000000  0.4784050000000 1.0
C      1  0.6025950000000  0.5415080000000  0.4605570000000 1.0
C      1  0.4071940000000  0.5329060000000  0.4619390000000 1.0
C      1  0.5756370000000  0.5052750000000  0.4914610000000 1.0
C      1  0.4268250000000  0.4961750000000  0.4991320000000 1.0
C      1  0.4027480000000  0.4400870000000  0.4992870000000 1.0
C      1  0.5923410000000  0.4417580000000  0.4952600000000 1.0
C      1  0.5687990000000  0.4229820000000  0.4927710000000 1.0
C      1  0.4238350000000  0.4202260000000  0.4942800000000 1.0
C      1  0.4771700000000  0.5431270000000  0.4407300000000 1.0
C      1  0.5269390000000  0.5430690000000  0.4395340000000 1.0
C      1  0.5249410000000  0.5197930000000  0.4016920000000 1.0
C      1  0.4790980000000  0.5192450000000  0.3996060000000 1.0
C      1  0.5617350000000  0.5605180000000  0.4341870000000 1.0
C      1  0.4480230000000  0.5511660000000  0.4379670000000 1.0
C      1  0.5089230000000  0.4572520000000  0.4658890000000 1.0
C      1  0.4814540000000  0.4583990000000  0.4746870000000 1.0
C      1  0.3938430000000  0.5307760000000  0.5254090000000 1.0
C      1  0.6076960000000  0.5325820000000  0.5236720000000 1.0
C      1  0.4825220000000  0.4388710000000  0.4980820000000 1.0
C      1  0.5129430000000  0.4310890000000  0.5033430000000 1.0
C      1  0.4931850000000  0.5064600000000  0.4755260000000 1.0
C      1  0.5339190000000  0.4991500000000  0.4635950000000 1.0
C      1  0.4687890000000  0.4715810000000  0.4131790000000 1.0
C      1  0.5368560000000  0.4744800000000  0.4140520000000 1.0
C      1  0.5905700000000  0.5556610000000  0.4840710000000 1.0
C      1  0.4163340000000  0.5473440000000  0.4858760000000 1.0
C      1  0.5297380000000  0.5019760000000  0.5268840000000 1.0
C      1  0.4646690000000  0.5019430000000  0.5307580000000 1.0
C      1  0.4122680000000  0.5761780000000  0.5371190000000 1.0
C      1  0.5896550000000  0.5780160000000  0.5363640000000 1.0
C      1  0.4843260000000  0.5416570000000  0.5898780000000 1.0
C      1  0.5150650000000  0.5416680000000  0.5873330000000 1.0
C      1  0.4210720000000  0.4694910000000  0.5834200000000 1.0
C      1  0.5752760000000  0.4698860000000  0.5784820000000 1.0
C      1  0.4850930000000  0.5150660000000  0.4482230000000 1.0
C      1  0.5161710000000  0.5132530000000  0.4428810000000 1.0
C      1  0.3922500000000  0.5042600000000  0.5386470000000 1.0
C      1  0.6058670000000  0.5052510000000  0.5353640000000 1.0
C      1  0.6048790000000  0.5008000000000  0.4383160000000 1.0
C      1  0.4041460000000  0.4923890000000  0.4442530000000 1.0
C      1  0.4845590000000  0.6108340000000  0.5239480000000 1.0
C      1  0.5155800000000  0.6111330000000  0.5237030000000 1.0
C      1  0.5148800000000  0.4784330000000  0.5136950000000 1.0
C      1  0.4804720000000  0.4813060000000  0.5152310000000 1.0
C      1  0.4343180000000  0.4491050000000  0.5687230000000 1.0
C      1  0.5601490000000  0.4513970000000  0.5642610000000 1.0
C      1  0.4872520000000  0.5438270000000  0.4119070000000 1.0
C      1  0.5164070000000  0.5449730000000  0.4116270000000 1.0
C      1  0.5114570000000  0.4049780000000  0.4624380000000 1.0
C      1  0.4865880000000  0.4100280000000  0.4474390000000 1.0
C      1  0.4197100000000  0.5058520000000  0.5535600000000 1.0
C      1  0.5778750000000  0.5072780000000  0.5474060000000 1.0
C      1  0.5224480000000  0.4319040000000  0.4739890000000 1.0
C      1  0.4675030000000  0.4170020000000  0.4699520000000 1.0
C      1  0.4785020000000  0.3921150000000  0.5395700000000 1.0
C      1  0.5105970000000  0.3901780000000  0.5359110000000 1.0
C      1  0.5199760000000  0.5340030000000  0.5071660000000 1.0
C      1  0.4941150000000  0.5274460000000  0.4954430000000 1.0
C      1  0.5146960000000  0.5444280000000  0.5362180000000 1.0
C      1  0.4839890000000  0.5465640000000  0.5342770000000 1.0
C      1  0.4678700000000  0.4525500000000  0.5221840000000 1.0
C      1  0.5272460000000  0.4499310000000  0.5233870000000 1.0
C      1  0.5163040000000  0.5954240000000  0.5502970000000 1.0
C      1  0.4845900000000  0.5958330000000  0.5510350000000 1.0
C      1  0.5236310000000  0.4774390000000  0.4817900000000 1.0
C      1  0.4741390000000  0.4853590000000  0.4849920000000 1.0
C      1  0.5616930000000  0.5439910000000  0.5778330000000 1.0
C      1  0.4375450000000  0.5453350000000  0.5811170000000 1.0
C      1  0.4709610000000  0.5160500000000  0.5801960000000 1.0
C      1  0.5269430000000  0.5149430000000  0.5800770000000 1.0
C      1  0.4846880000000  0.4921320000000  0.5908960000000 1.0
C      1  0.5128480000000  0.4921910000000  0.5927850000000 1.0
C      1  0.4313550000000  0.4823520000000  0.4473520000000 1.0
C      1  0.5765500000000  0.4999890000000  0.4383390000000 1.0
C      1  0.4634120000000  0.5610210000000  0.5794640000000 1.0
C      1  0.5368610000000  0.5606690000000  0.5775900000000 1.0
C      1  0.4401980000000  0.4325080000000  0.4207990000000 1.0
C      1  0.5631360000000  0.4364490000000  0.4187390000000 1.0
C      1  0.6111010000000  0.5124120000000  0.4631030000000 1.0
C      1  0.3933070000000  0.5066630000000  0.4659810000000 1.0
C      1  0.5535070000000  0.4214700000000  0.5184850000000 1.0
C      1  0.4387980000000  0.4190910000000  0.5202120000000 1.0
C      1  0.4760090000000  0.5205280000000  0.5486550000000 1.0
C      1  0.5200940000000  0.5176530000000  0.5502440000000 1.0
C      1  0.5605210000000  0.4657830000000  0.4758040000000 1.0
C      1  0.4283540000000  0.4563030000000  0.4632340000000 1.0
C      1  0.5138110000000  0.4107330000000  0.5582320000000 1.0
C      1  0.4826280000000  0.4126290000000  0.5610970000000 1.0
C      1  0.5615680000000  0.5758750000000  0.5282590000000 1.0
C      1  0.4402900000000  0.5725000000000  0.5295530000000 1.0
C      1  0.4400510000000  0.4767690000000  0.4180720000000 1.0
C      1  0.5653870000000  0.4807460000000  0.4186840000000 1.0
C      1  0.5617770000000  0.4269740000000  0.4449820000000 1.0
C      1  0.4302200000000  0.4140600000000  0.4403430000000 1.0
C      1  0.4284840000000  0.5307150000000  0.4429100000000 1.0
C      1  0.5870620000000  0.5479770000000  0.4377770000000 1.0
C      1  0.5613760000000  0.5090730000000  0.4642550000000 1.0
C      1  0.4465630000000  0.4976210000000  0.4761990000000 1.0
C      1  0.5248050000000  0.4674010000000  0.5930750000000 1.0
C      1  0.4717750000000  0.4679430000000  0.5925360000000 1.0
C      1  0.4488090000000  0.5287440000000  0.4754120000000 1.0
C      1  0.5591720000000  0.5390250000000  0.4676330000000 1.0
C      1  0.4677440000000  0.4421600000000  0.4160160000000 1.0
C      1  0.5371660000000  0.4459590000000  0.4089720000000 1.0
C      1  0.4194630000000  0.4977770000000  0.5820600000000 1.0
C      1  0.5763220000000  0.4976190000000  0.5753990000000 1.0
C      1  0.5182550000000  0.5610520000000  0.4639530000000 1.0
C      1  0.4867580000000  0.5596980000000  0.4666020000000 1.0
C      1  0.5373390000000  0.5517880000000  0.4884480000000 1.0
C      1  0.4709640000000  0.5450830000000  0.4949350000000 1.0
C      1  0.3878270000000  0.4818190000000  0.5196430000000 1.0
C      1  0.6088960000000  0.4830910000000  0.5160210000000 1.0
END
