TITL C-3577082-504-191 -1.10375563093913e-06 125000 -492.181161568775 0 0 80 (C1) n - 1
REM
REM in /home/bkarasulu/work/CARBON/AIRSS/Generating-Clusters/EDIP-Nigel-Params/with-SteepDescent/Higher-Symm/SD-CG/HFTN-CG
REM
REM
REM
REM
REM
REM ./C.cell (12c818d87b63d06a65506943cc24bca4)
REM
REM compiler GCC version 9.2.1 20190827 (Red Hat 9.2.1-1)
REM options -cpp -mtune=generic -march=x86-64 -g -O0 -fpre-include=/usr/include/finclude/math-vector-fortran.h
REM seed -1999044821 -801663937 -744365423 -572253602 843272636 -12460396 2088962437 -1453004943 -633914226 765404795 -90733603 1272734674 2106423644 289407321 34919800 -1283382801 -439619824 1940788057 -816560157 669113329 1945645522 -1450985689 -417344815 692080122 586578942 2023889055 1779487507 1703354126 1814228252 114751555 -1746553065 -983073231 906614427
REM
CELL 1.54180   50.00000   50.00000   50.00000   90.00000   90.00000   90.00000
LATT -1
SFAC C  
C      1  0.5023470000000  0.5147980000000  0.5073460000000 1.0
C      1  0.5009140000000  0.4833020000000  0.5051260000000 1.0
C      1  0.5822160000000  0.5134120000000  0.5037520000000 1.0
C      1  0.4174210000000  0.4861930000000  0.5033340000000 1.0
C      1  0.5256050000000  0.4342690000000  0.5530520000000 1.0
C      1  0.4748210000000  0.5653060000000  0.5517610000000 1.0
C      1  0.5110400000000  0.4160740000000  0.4824260000000 1.0
C      1  0.4896430000000  0.5831100000000  0.4812590000000 1.0
C      1  0.4358500000000  0.4450430000000  0.5186890000000 1.0
C      1  0.5654220000000  0.5548550000000  0.5196820000000 1.0
C      1  0.4428310000000  0.5527230000000  0.4865820000000 1.0
C      1  0.5556240000000  0.4474340000000  0.4870840000000 1.0
C      1  0.5223310000000  0.5540700000000  0.5684690000000 1.0
C      1  0.4780710000000  0.4462240000000  0.5686770000000 1.0
C      1  0.5660370000000  0.5140650000000  0.4553870000000 1.0
C      1  0.4331990000000  0.4861860000000  0.4550230000000 1.0
C      1  0.5729510000000  0.4707290000000  0.4845480000000 1.0
C      1  0.4254690000000  0.5293330000000  0.4842110000000 1.0
C      1  0.4289500000000  0.5121020000000  0.5077790000000 1.0
C      1  0.5703430000000  0.4877230000000  0.5083190000000 1.0
C      1  0.4785760000000  0.4734150000000  0.5623650000000 1.0
C      1  0.5221670000000  0.5267280000000  0.5629810000000 1.0
C      1  0.5314960000000  0.5191950000000  0.5107530000000 1.0
C      1  0.4705650000000  0.4803920000000  0.5089270000000 1.0
C      1  0.5253310000000  0.4814860000000  0.5482890000000 1.0
C      1  0.4752900000000  0.5185240000000  0.5476380000000 1.0
C      1  0.4793970000000  0.4680570000000  0.4178450000000 1.0
C      1  0.5203340000000  0.5324230000000  0.4182380000000 1.0
C      1  0.5492870000000  0.4645580000000  0.5537610000000 1.0
C      1  0.4510040000000  0.5350900000000  0.5527080000000 1.0
C      1  0.4650850000000  0.4505440000000  0.5079750000000 1.0
C      1  0.5361930000000  0.5490020000000  0.5090330000000 1.0
C      1  0.4647260000000  0.4898260000000  0.5404360000000 1.0
C      1  0.5366010000000  0.5100770000000  0.5415750000000 1.0
C      1  0.4239960000000  0.4706150000000  0.4798300000000 1.0
C      1  0.5758390000000  0.5292730000000  0.4803470000000 1.0
C      1  0.4946740000000  0.5267450000000  0.4292470000000 1.0
C      1  0.5046370000000  0.4746490000000  0.4291810000000 1.0
C      1  0.4633010000000  0.5468340000000  0.4659570000000 1.0
C      1  0.5344130000000  0.4535720000000  0.4672490000000 1.0
C      1  0.4300470000000  0.5186370000000  0.5377460000000 1.0
C      1  0.5702320000000  0.4808640000000  0.5382780000000 1.0
C      1  0.4594950000000  0.4720980000000  0.4382470000000 1.0
C      1  0.5399950000000  0.5287280000000  0.4389910000000 1.0
C      1  0.5036700000000  0.4859120000000  0.5694810000000 1.0
C      1  0.4967220000000  0.5143270000000  0.5693000000000 1.0
C      1  0.4921510000000  0.5829890000000  0.5088200000000 1.0
C      1  0.5083920000000  0.4162780000000  0.5099550000000 1.0
C      1  0.5001450000000  0.4860230000000  0.4557510000000 1.0
C      1  0.4989140000000  0.5156210000000  0.4559690000000 1.0
C      1  0.5314710000000  0.4721100000000  0.4214980000000 1.0
C      1  0.4677230000000  0.5279100000000  0.4211690000000 1.0
C      1  0.4305620000000  0.5170830000000  0.4567460000000 1.0
C      1  0.5679410000000  0.4829290000000  0.4571760000000 1.0
C      1  0.5326820000000  0.4248150000000  0.5259300000000 1.0
C      1  0.4677610000000  0.5744900000000  0.5245750000000 1.0
C      1  0.5458600000000  0.4470850000000  0.5136050000000 1.0
C      1  0.4547790000000  0.5521090000000  0.5123160000000 1.0
C      1  0.4207260000000  0.4702180000000  0.5277190000000 1.0
C      1  0.5803250000000  0.5293520000000  0.5283280000000 1.0
C      1  0.4894710000000  0.4353390000000  0.5229660000000 1.0
C      1  0.5111660000000  0.5643100000000  0.5224340000000 1.0
C      1  0.4349990000000  0.4898350000000  0.5460400000000 1.0
C      1  0.5663920000000  0.5098290000000  0.5471590000000 1.0
C      1  0.5041260000000  0.5653470000000  0.5508390000000 1.0
C      1  0.4963020000000  0.4342960000000  0.5515140000000 1.0
C      1  0.4866010000000  0.5345790000000  0.5244430000000 1.0
C      1  0.5142160000000  0.4649280000000  0.5252140000000 1.0
C      1  0.4497050000000  0.5354770000000  0.4416740000000 1.0
C      1  0.5482110000000  0.4648210000000  0.4430160000000 1.0
C      1  0.4785660000000  0.5222990000000  0.4769030000000 1.0
C      1  0.5190370000000  0.4790990000000  0.4778880000000 1.0
C      1  0.5253360000000  0.5247140000000  0.4639070000000 1.0
C      1  0.4741070000000  0.4763750000000  0.4630880000000 1.0
C      1  0.4799300000000  0.5696150000000  0.4604660000000 1.0
C      1  0.5178870000000  0.4308300000000  0.4613740000000 1.0
C      1  0.5691250000000  0.5559170000000  0.4899110000000 1.0
C      1  0.4319070000000  0.4442120000000  0.4890380000000 1.0
C      1  0.5391880000000  0.5045240000000  0.4820660000000 1.0
C      1  0.4601380000000  0.4961210000000  0.4816210000000 1.0
END
