TITL C-3577085-527-476 7.67185638514742e-06 125000 -764.307972646754 0 0 123 (C1) n - 1
REM
REM in /home/bkarasulu/work/CARBON/AIRSS/Generating-Clusters/EDIP-Nigel-Params/with-SteepDescent/Higher-Symm/SD-CG/HFTN-CG
REM
REM
REM
REM
REM
REM ./C.cell (12c818d87b63d06a65506943cc24bca4)
REM
REM compiler GCC version 9.2.1 20190827 (Red Hat 9.2.1-1)
REM options -cpp -mtune=generic -march=x86-64 -g -O0 -fpre-include=/usr/include/finclude/math-vector-fortran.h
REM seed -548211222 984180647 -290297198 -1657095498 -2110713754 731400902 -716210825 367786735 -1843790786 -795777233 -704463123 -512437815 2054743828 1177434748 -83017199 -1236011430 1219028412 112347560 -1205128897 -874526244 2001154625 270986018 1139830827 2019634786 679046497 911781729 1990748251 957557171 2027070510 256495181 789943591 -564883007 -1590515843
REM
CELL 1.54180   50.00000   50.00000   50.00000   90.00000   90.00000   90.00000
LATT -1
SFAC C  
C      1  0.4921230000000  0.5590310000000  0.5352700000000 1.0
C      1  0.5448390000000  0.5433760000000  0.5359040000000 1.0
C      1  0.5627570000000  0.4923310000000  0.5354640000000 1.0
C      1  0.5323450000000  0.4475160000000  0.5356980000000 1.0
C      1  0.4773710000000  0.4401850000000  0.5347490000000 1.0
C      1  0.4384460000000  0.4786390000000  0.5336340000000 1.0
C      1  0.4447960000000  0.5333220000000  0.5345170000000 1.0
C      1  0.5961140000000  0.4673100000000  0.5477660000000 1.0
C      1  0.5313120000000  0.4063730000000  0.5499520000000 1.0
C      1  0.4472710000000  0.4111100000000  0.5477730000000 1.0
C      1  0.3983480000000  0.4907980000000  0.5509250000000 1.0
C      1  0.4257730000000  0.5704790000000  0.5473070000000 1.0
C      1  0.5104090000000  0.5960570000000  0.5498530000000 1.0
C      1  0.5850880000000  0.5549870000000  0.5476470000000 1.0
C      1  0.5732750000000  0.5668670000000  0.5254480000000 1.0
C      1  0.5985930000000  0.4841110000000  0.5257060000000 1.0
C      1  0.5466130000000  0.4132030000000  0.5277380000000 1.0
C      1  0.4631660000000  0.4063440000000  0.5254490000000 1.0
C      1  0.4081240000000  0.4749030000000  0.5296910000000 1.0
C      1  0.4164440000000  0.5568910000000  0.5249240000000 1.0
C      1  0.4942610000000  0.5958830000000  0.5272260000000 1.0
C      1  0.4732330000000  0.4732610000000  0.4676690000000 1.0
C      1  0.4616970000000  0.5041540000000  0.4670670000000 1.0
C      1  0.4787020000000  0.5324200000000  0.4665450000000 1.0
C      1  0.5123270000000  0.5375850000000  0.4653400000000 1.0
C      1  0.5356710000000  0.5129550000000  0.4692430000000 1.0
C      1  0.5331070000000  0.4799570000000  0.4668510000000 1.0
C      1  0.5044700000000  0.4625310000000  0.4678600000000 1.0
C      1  0.5223320000000  0.5285220000000  0.4264800000000 1.0
C      1  0.5349340000000  0.4999120000000  0.4275840000000 1.0
C      1  0.5213810000000  0.4715250000000  0.4280990000000 1.0
C      1  0.4906150000000  0.4650450000000  0.4279750000000 1.0
C      1  0.4662320000000  0.4847450000000  0.4277140000000 1.0
C      1  0.4664050000000  0.5162570000000  0.4271360000000 1.0
C      1  0.4913980000000  0.5355930000000  0.4263300000000 1.0
C      1  0.5905540000000  0.5308050000000  0.4980470000000 1.0
C      1  0.5796820000000  0.4486630000000  0.4987660000000 1.0
C      1  0.5082980000000  0.4048730000000  0.4995770000000 1.0
C      1  0.4320380000000  0.4327530000000  0.4992380000000 1.0
C      1  0.4042750000000  0.5129070000000  0.4993530000000 1.0
C      1  0.4491740000000  0.5811870000000  0.4983120000000 1.0
C      1  0.5335330000000  0.5901180000000  0.4985730000000 1.0
C      1  0.4663550000000  0.5019950000000  0.5668020000000 1.0
C      1  0.4830940000000  0.5235130000000  0.5785840000000 1.0
C      1  0.5107680000000  0.5289580000000  0.5696980000000 1.0
C      1  0.5290200000000  0.5096350000000  0.5815010000000 1.0
C      1  0.5249990000000  0.4808970000000  0.5823020000000 1.0
C      1  0.5026160000000  0.4659430000000  0.5707680000000 1.0
C      1  0.4764080000000  0.4768380000000  0.5782900000000 1.0
C      1  0.5262720000000  0.4564300000000  0.5084470000000 1.0
C      1  0.4819870000000  0.4512680000000  0.5080610000000 1.0
C      1  0.4499400000000  0.4831140000000  0.5072790000000 1.0
C      1  0.4541570000000  0.5274210000000  0.5073090000000 1.0
C      1  0.4943650000000  0.5464780000000  0.5078790000000 1.0
C      1  0.5377040000000  0.5365690000000  0.5081250000000 1.0
C      1  0.5506830000000  0.4937880000000  0.5089010000000 1.0
C      1  0.5821930000000  0.5311790000000  0.5602870000000 1.0
C      1  0.5752770000000  0.4553970000000  0.5603970000000 1.0
C      1  0.5112350000000  0.4171800000000  0.5646610000000 1.0
C      1  0.4374190000000  0.4341180000000  0.5582870000000 1.0
C      1  0.4158640000000  0.5057850000000  0.5654470000000 1.0
C      1  0.4501230000000  0.5722710000000  0.5590880000000 1.0
C      1  0.5225980000000  0.5775530000000  0.5655450000000 1.0
C      1  0.5928110000000  0.4878830000000  0.4744790000000 1.0
C      1  0.5484450000000  0.4179980000000  0.4754790000000 1.0
C      1  0.4663410000000  0.4094710000000  0.4741800000000 1.0
C      1  0.4099800000000  0.4702410000000  0.4763590000000 1.0
C      1  0.4181780000000  0.5527320000000  0.4734600000000 1.0
C      1  0.4909440000000  0.5920220000000  0.4756300000000 1.0
C      1  0.5696150000000  0.5674660000000  0.4732170000000 1.0
C      1  0.5749600000000  0.5235090000000  0.4523340000000 1.0
C      1  0.5651540000000  0.4535170000000  0.4518250000000 1.0
C      1  0.5047450000000  0.4209500000000  0.4539310000000 1.0
C      1  0.4411620000000  0.4464870000000  0.4539760000000 1.0
C      1  0.4207530000000  0.5123820000000  0.4533020000000 1.0
C      1  0.4596150000000  0.5692440000000  0.4518520000000 1.0
C      1  0.5303110000000  0.5751700000000  0.4509900000000 1.0
C      1  0.5197270000000  0.5548610000000  0.4920820000000 1.0
C      1  0.5545590000000  0.5181640000000  0.4934640000000 1.0
C      1  0.5477310000000  0.4690640000000  0.4932190000000 1.0
C      1  0.5054270000000  0.4425520000000  0.4928480000000 1.0
C      1  0.4586680000000  0.4596500000000  0.4924390000000 1.0
C      1  0.4412900000000  0.5065740000000  0.4918270000000 1.0
C      1  0.4684620000000  0.5486410000000  0.4920230000000 1.0
C      1  0.4609060000000  0.4268670000000  0.4506450000000 1.0
C      1  0.4185130000000  0.4845440000000  0.4517900000000 1.0
C      1  0.4360580000000  0.5538910000000  0.4495840000000 1.0
C      1  0.5027980000000  0.5790850000000  0.4525200000000 1.0
C      1  0.5669600000000  0.5501720000000  0.4488490000000 1.0
C      1  0.5753090000000  0.4792640000000  0.4528170000000 1.0
C      1  0.5323800000000  0.4236060000000  0.4510620000000 1.0
C      1  0.5463440000000  0.5846410000000  0.4734620000000 1.0
C      1  0.5935900000000  0.5168000000000  0.4735380000000 1.0
C      1  0.5707340000000  0.4363670000000  0.4746220000000 1.0
C      1  0.4946710000000  0.4039220000000  0.4746650000000 1.0
C      1  0.4217170000000  0.4437280000000  0.4752000000000 1.0
C      1  0.4062770000000  0.5262130000000  0.4740890000000 1.0
C      1  0.4624230000000  0.5880310000000  0.4740120000000 1.0
C      1  0.4406500000000  0.4709210000000  0.4379180000000 1.0
C      1  0.4394940000000  0.5275860000000  0.4368330000000 1.0
C      1  0.4841800000000  0.5636750000000  0.4361430000000 1.0
C      1  0.5407160000000  0.5527320000000  0.4352820000000 1.0
C      1  0.5634820000000  0.5008460000000  0.4372970000000 1.0
C      1  0.5405320000000  0.4483370000000  0.4370140000000 1.0
C      1  0.4857060000000  0.4362140000000  0.4376930000000 1.0
C      1  0.5821520000000  0.5581300000000  0.4989620000000 1.0
C      1  0.5963190000000  0.4719520000000  0.4993210000000 1.0
C      1  0.5367090000000  0.4070390000000  0.5009340000000 1.0
C      1  0.4506370000000  0.4110270000000  0.4994890000000 1.0
C      1  0.4000490000000  0.4843910000000  0.5016610000000 1.0
C      1  0.4238600000000  0.5676750000000  0.4987950000000 1.0
C      1  0.5058180000000  0.5956210000000  0.5006360000000 1.0
C      1  0.5519800000000  0.4671260000000  0.5499810000000 1.0
C      1  0.5051710000000  0.4424330000000  0.5518960000000 1.0
C      1  0.4532630000000  0.4548220000000  0.5477130000000 1.0
C      1  0.4408910000000  0.5055520000000  0.5506870000000 1.0
C      1  0.4654810000000  0.5511540000000  0.5487930000000 1.0
C      1  0.5181610000000  0.5522810000000  0.5521010000000 1.0
C      1  0.5588110000000  0.5195100000000  0.5500390000000 1.0
C      1  0.4990780000000  0.5009450000000  0.4511640000000 1.0
C      1  0.4963760000000  0.4993440000000  0.5985530000000 1.0
C      1  0.4975630000000  0.5175580000000  0.5085310000000 1.0
C      1  0.5014200000000  0.5003920000000  0.4851810000000 1.0
END
