TITL C-3577081-279-249 6.55619843498924e-08 125000 -521.813748157364 0 0 85 (C1) n - 1
REM
REM in /home/bkarasulu/work/CARBON/AIRSS/Generating-Clusters/EDIP-Nigel-Params/with-SteepDescent/Higher-Symm/SD-CG/HFTN-CG
REM
REM
REM
REM
REM
REM ./C.cell (12c818d87b63d06a65506943cc24bca4)
REM
REM compiler GCC version 9.2.1 20190827 (Red Hat 9.2.1-1)
REM options -cpp -mtune=generic -march=x86-64 -g -O0 -fpre-include=/usr/include/finclude/math-vector-fortran.h
REM seed 1740532922 -224419290 -1435153563 -1551210756 1695855699 -1947779841 -1209553362 290854633 -212862288 -1590907922 -244902434 422175792 416849666 1174122757 -1964922360 -1215675868 2105888811 1829550466 -904804806 -2093440050 41307290 100101126 -858107052 136521042 214615960 1236939801 -102961766 -1105945571 1691372489 -94410264 -1233416973 1441165511 -2081428790
REM
CELL 1.54180   50.00000   50.00000   50.00000   90.00000   90.00000   90.00000
LATT -1
SFAC C  
C      1  0.5277430000000  0.4620860000000  0.5444220000000 1.0
C      1  0.4609320000000  0.4629690000000  0.5295390000000 1.0
C      1  0.4708350000000  0.4604410000000  0.4555190000000 1.0
C      1  0.5349110000000  0.4679990000000  0.4674420000000 1.0
C      1  0.4355120000000  0.4738060000000  0.5441260000000 1.0
C      1  0.4582290000000  0.4710890000000  0.4299000000000 1.0
C      1  0.5600400000000  0.4738600000000  0.4522300000000 1.0
C      1  0.5400220000000  0.4728120000000  0.5706670000000 1.0
C      1  0.5607280000000  0.5058850000000  0.5261040000000 1.0
C      1  0.4773740000000  0.5088740000000  0.5547070000000 1.0
C      1  0.4421540000000  0.5062850000000  0.4727320000000 1.0
C      1  0.5204720000000  0.5131340000000  0.4482390000000 1.0
C      1  0.5064620000000  0.4440010000000  0.4281870000000 1.0
C      1  0.5497680000000  0.4550710000000  0.5259510000000 1.0
C      1  0.4798650000000  0.4545970000000  0.5517230000000 1.0
C      1  0.4512390000000  0.4555370000000  0.4772320000000 1.0
C      1  0.5773000000000  0.4856950000000  0.4735510000000 1.0
C      1  0.5213110000000  0.4897770000000  0.5848910000000 1.0
C      1  0.4191770000000  0.4887610000000  0.5245000000000 1.0
C      1  0.4804090000000  0.4862540000000  0.4178660000000 1.0
C      1  0.5645760000000  0.5207520000000  0.5519300000000 1.0
C      1  0.4516630000000  0.5243630000000  0.5586810000000 1.0
C      1  0.4346810000000  0.5212090000000  0.4477310000000 1.0
C      1  0.5465620000000  0.5249760000000  0.4430840000000 1.0
C      1  0.4781890000000  0.5363340000000  0.5047550000000 1.0
C      1  0.4915870000000  0.5330910000000  0.4758500000000 1.0
C      1  0.5215690000000  0.5348620000000  0.4957290000000 1.0
C      1  0.5092280000000  0.5348150000000  0.5243890000000 1.0
C      1  0.5852190000000  0.4737150000000  0.5506850000000 1.0
C      1  0.4564330000000  0.4797510000000  0.5920940000000 1.0
C      1  0.4152810000000  0.4742680000000  0.4510800000000 1.0
C      1  0.5330720000000  0.4805890000000  0.4110380000000 1.0
C      1  0.4634420000000  0.5626470000000  0.4502390000000 1.0
C      1  0.5448750000000  0.5665410000000  0.4680670000000 1.0
C      1  0.5374360000000  0.5634110000000  0.5493170000000 1.0
C      1  0.4539930000000  0.5667100000000  0.5309540000000 1.0
C      1  0.5805500000000  0.4679310000000  0.4970530000000 1.0
C      1  0.4867780000000  0.4794310000000  0.5965330000000 1.0
C      1  0.4139470000000  0.4759590000000  0.4998330000000 1.0
C      1  0.5083820000000  0.4727540000000  0.4248420000000 1.0
C      1  0.4613100000000  0.5528790000000  0.5543640000000 1.0
C      1  0.4396660000000  0.5496490000000  0.4573330000000 1.0
C      1  0.5385710000000  0.5536440000000  0.4438020000000 1.0
C      1  0.5605630000000  0.5491690000000  0.5420710000000 1.0
C      1  0.4915190000000  0.4393990000000  0.4514280000000 1.0
C      1  0.5516300000000  0.4431650000000  0.4990830000000 1.0
C      1  0.5055150000000  0.4416330000000  0.5460460000000 1.0
C      1  0.4626700000000  0.4456310000000  0.5030640000000 1.0
C      1  0.4751160000000  0.5095250000000  0.4623500000000 1.0
C      1  0.5363820000000  0.5093010000000  0.4893710000000 1.0
C      1  0.5244540000000  0.5118940000000  0.5390550000000 1.0
C      1  0.4633070000000  0.5131140000000  0.5187030000000 1.0
C      1  0.5662050000000  0.4861050000000  0.5680330000000 1.0
C      1  0.4401700000000  0.4896970000000  0.5691120000000 1.0
C      1  0.4332650000000  0.4860510000000  0.4327140000000 1.0
C      1  0.5532190000000  0.4901790000000  0.4286480000000 1.0
C      1  0.5112030000000  0.5601070000000  0.5402680000000 1.0
C      1  0.4596200000000  0.5600350000000  0.5044080000000 1.0
C      1  0.4896610000000  0.5581090000000  0.4587500000000 1.0
C      1  0.5408800000000  0.5582300000000  0.4945660000000 1.0
C      1  0.4283510000000  0.5238590000000  0.4928230000000 1.0
C      1  0.5045500000000  0.5256170000000  0.4276990000000 1.0
C      1  0.5751200000000  0.5230400000000  0.5061500000000 1.0
C      1  0.4944640000000  0.5266710000000  0.5710160000000 1.0
C      1  0.4301090000000  0.4769400000000  0.4760520000000 1.0
C      1  0.5135390000000  0.4838320000000  0.4521250000000 1.0
C      1  0.5708910000000  0.4761470000000  0.5251060000000 1.0
C      1  0.4828560000000  0.4803730000000  0.5664470000000 1.0
C      1  0.5166150000000  0.4845820000000  0.5280860000000 1.0
C      1  0.4748950000000  0.4858970000000  0.5168200000000 1.0
C      1  0.4879570000000  0.4826900000000  0.4674960000000 1.0
C      1  0.5292560000000  0.4813730000000  0.4970090000000 1.0
C      1  0.4889570000000  0.4324240000000  0.5003570000000 1.0
C      1  0.5052440000000  0.4369040000000  0.4770300000000 1.0
C      1  0.5335590000000  0.4314490000000  0.4792470000000 1.0
C      1  0.5021830000000  0.4254340000000  0.5238580000000 1.0
C      1  0.5086210000000  0.5543190000000  0.4358500000000 1.0
C      1  0.5655110000000  0.5509250000000  0.5120310000000 1.0
C      1  0.4908490000000  0.5545240000000  0.5615290000000 1.0
C      1  0.4357820000000  0.5518140000000  0.4872970000000 1.0
C      1  0.4782160000000  0.5131720000000  0.4313880000000 1.0
C      1  0.5649190000000  0.5125090000000  0.4810590000000 1.0
C      1  0.5206840000000  0.5145490000000  0.5693290000000 1.0
C      1  0.4328420000000  0.5149800000000  0.5199950000000 1.0
C      1  0.4952910000000  0.4751450000000  0.4966210000000 1.0
END
