TITL C-3578203-1966-308 -1.16182395557435e-06 125000 -581.037147697822 0 0 95 (C1) n - 1
REM
REM in /home/bkarasulu/work/CARBON/AIRSS/Generating-Clusters/EDIP-Nigel-Params/with-SteepDescent/Higher-Symm/SD-CG/HFTN-CG
REM
REM
REM
REM
REM
REM ./C.cell (12c818d87b63d06a65506943cc24bca4)
REM
REM compiler GCC version 9.2.1 20190827 (Red Hat 9.2.1-1)
REM options -cpp -mtune=generic -march=x86-64 -g -O0 -fpre-include=/usr/include/finclude/math-vector-fortran.h
REM seed 1540745992 -229466388 -1589211609 -686447331 -2074924130 1273870067 2055871986 868880265 -1161374045 -246257611 -622111480 -960226353 -209515325 -160602830 1329142250 -1078767031 53953711 1037710963 -666672541 -1703539059 796432740 602630534 -811221712 2023351563 1398724830 -1498260921 -1975154306 1671752152 1583590118 1746774713 -926103348 1559258850 -659258738
REM
CELL 1.54180   50.00000   50.00000   50.00000   90.00000   90.00000   90.00000
LATT -1
SFAC C  
C      1  0.5366100000000  0.4650650000000  0.4616870000000 1.0
C      1  0.4538580000000  0.4615430000000  0.4668020000000 1.0
C      1  0.4778930000000  0.5235210000000  0.4704570000000 1.0
C      1  0.5427800000000  0.5166940000000  0.4741350000000 1.0
C      1  0.5173570000000  0.4756360000000  0.5268880000000 1.0
C      1  0.4663590000000  0.4643510000000  0.5105560000000 1.0
C      1  0.4699570000000  0.5470460000000  0.5120470000000 1.0
C      1  0.5486370000000  0.5143270000000  0.5178200000000 1.0
C      1  0.4242800000000  0.4625710000000  0.4453910000000 1.0
C      1  0.4671620000000  0.5637200000000  0.4571170000000 1.0
C      1  0.5736940000000  0.5290240000000  0.4545670000000 1.0
C      1  0.5312800000000  0.4218090000000  0.4428200000000 1.0
C      1  0.4370840000000  0.4711630000000  0.5429070000000 1.0
C      1  0.4884110000000  0.5729590000000  0.5549220000000 1.0
C      1  0.5787520000000  0.5193680000000  0.5488080000000 1.0
C      1  0.5347920000000  0.4514110000000  0.5334090000000 1.0
C      1  0.5170300000000  0.4180720000000  0.4677540000000 1.0
C      1  0.4134460000000  0.4791960000000  0.4693360000000 1.0
C      1  0.4844460000000  0.5762230000000  0.4765830000000 1.0
C      1  0.5865880000000  0.5126930000000  0.4751210000000 1.0
C      1  0.5239860000000  0.4264800000000  0.5196280000000 1.0
C      1  0.4193940000000  0.4831140000000  0.5240210000000 1.0
C      1  0.4954550000000  0.5836700000000  0.5283270000000 1.0
C      1  0.5904980000000  0.5069460000000  0.5262140000000 1.0
C      1  0.4288950000000  0.5308960000000  0.5391060000000 1.0
C      1  0.5406070000000  0.5683840000000  0.5436360000000 1.0
C      1  0.5722560000000  0.4697080000000  0.5476730000000 1.0
C      1  0.4796140000000  0.4297650000000  0.5426410000000 1.0
C      1  0.4214160000000  0.5243400000000  0.4530240000000 1.0
C      1  0.5308940000000  0.5690560000000  0.4554270000000 1.0
C      1  0.5787760000000  0.4749580000000  0.4457010000000 1.0
C      1  0.4692560000000  0.4388350000000  0.4547930000000 1.0
C      1  0.4661670000000  0.5552560000000  0.5620920000000 1.0
C      1  0.5555950000000  0.5235340000000  0.5649110000000 1.0
C      1  0.5310980000000  0.4510810000000  0.5636700000000 1.0
C      1  0.4548380000000  0.4693390000000  0.5647390000000 1.0
C      1  0.4625510000000  0.5453830000000  0.4351800000000 1.0
C      1  0.5535790000000  0.5278230000000  0.4328220000000 1.0
C      1  0.5352250000000  0.4428870000000  0.4234860000000 1.0
C      1  0.4464580000000  0.4700200000000  0.4244060000000 1.0
C      1  0.4581320000000  0.4982170000000  0.4307980000000 1.0
C      1  0.4864620000000  0.5341280000000  0.4215740000000 1.0
C      1  0.5386150000000  0.5004320000000  0.4301690000000 1.0
C      1  0.5068960000000  0.4534350000000  0.4241390000000 1.0
C      1  0.4683310000000  0.4956760000000  0.5677340000000 1.0
C      1  0.4753990000000  0.5395410000000  0.5846410000000 1.0
C      1  0.5384800000000  0.4990290000000  0.5663820000000 1.0
C      1  0.5034080000000  0.4612870000000  0.5698130000000 1.0
C      1  0.5310070000000  0.5492890000000  0.4356730000000 1.0
C      1  0.5513430000000  0.4726050000000  0.4366280000000 1.0
C      1  0.4698310000000  0.4498090000000  0.4271890000000 1.0
C      1  0.4418440000000  0.5238750000000  0.4339810000000 1.0
C      1  0.5369570000000  0.5473990000000  0.5618650000000 1.0
C      1  0.5526310000000  0.4722030000000  0.5682330000000 1.0
C      1  0.4763240000000  0.4461200000000  0.5665290000000 1.0
C      1  0.4570350000000  0.5372520000000  0.5396300000000 1.0
C      1  0.5117740000000  0.5656180000000  0.4760580000000 1.0
C      1  0.5855530000000  0.4837770000000  0.4717270000000 1.0
C      1  0.4950260000000  0.4398180000000  0.4702780000000 1.0
C      1  0.4282230000000  0.5038650000000  0.4709540000000 1.0
C      1  0.5235510000000  0.5750270000000  0.5220510000000 1.0
C      1  0.5826050000000  0.4787300000000  0.5230790000000 1.0
C      1  0.4944130000000  0.4275780000000  0.5184220000000 1.0
C      1  0.4218630000000  0.5129380000000  0.5187980000000 1.0
C      1  0.4911720000000  0.4704360000000  0.5397730000000 1.0
C      1  0.4722920000000  0.5101690000000  0.5415760000000 1.0
C      1  0.5073290000000  0.5413410000000  0.5631510000000 1.0
C      1  0.5265060000000  0.5024910000000  0.5384950000000 1.0
C      1  0.5082930000000  0.4609260000000  0.4537280000000 1.0
C      1  0.4694970000000  0.4931440000000  0.4590170000000 1.0
C      1  0.5048910000000  0.5354040000000  0.4449680000000 1.0
C      1  0.5184420000000  0.5087840000000  0.4522560000000 1.0
C      1  0.5444350000000  0.4934050000000  0.4948990000000 1.0
C      1  0.5151060000000  0.4819050000000  0.4969320000000 1.0
C      1  0.4677820000000  0.4956850000000  0.5106990000000 1.0
C      1  0.4980240000000  0.5337770000000  0.5120580000000 1.0
C      1  0.5194410000000  0.5536710000000  0.5018870000000 1.0
C      1  0.5691090000000  0.4734510000000  0.4948790000000 1.0
C      1  0.4923160000000  0.4506820000000  0.4997110000000 1.0
C      1  0.4418130000000  0.5105480000000  0.4968380000000 1.0
C      1  0.4751540000000  0.5758920000000  0.5062800000000 1.0
C      1  0.5839740000000  0.5215800000000  0.5025320000000 1.0
C      1  0.5355140000000  0.4251890000000  0.4910780000000 1.0
C      1  0.4183230000000  0.4664930000000  0.4978100000000 1.0
C      1  0.4560080000000  0.5353750000000  0.4889970000000 1.0
C      1  0.5510970000000  0.4497580000000  0.4828890000000 1.0
C      1  0.4446440000000  0.4543880000000  0.4937740000000 1.0
C      1  0.5429330000000  0.5377420000000  0.4978860000000 1.0
C      1  0.4805690000000  0.5065660000000  0.4124050000000 1.0
C      1  0.4641090000000  0.5138320000000  0.5898760000000 1.0
C      1  0.4779850000000  0.5026540000000  0.3862080000000 1.0
C      1  0.4643950000000  0.5046670000000  0.6146790000000 1.0
C      1  0.4983060000000  0.4870720000000  0.4565090000000 1.0
C      1  0.5022660000000  0.5216490000000  0.5402790000000 1.0
C      1  0.4928520000000  0.5074200000000  0.4954410000000 1.0
END
