TITL C-3577087-600-205 -4.7102030343855e-07 125000 -1055.47866628516 0 0 171 (C1) n - 1
REM
REM in /home/bkarasulu/work/CARBON/AIRSS/Generating-Clusters/EDIP-Nigel-Params/with-SteepDescent/Higher-Symm/SD-CG/HFTN-CG
REM
REM
REM
REM
REM
REM ./C.cell (12c818d87b63d06a65506943cc24bca4)
REM
REM compiler GCC version 9.2.1 20190827 (Red Hat 9.2.1-1)
REM options -cpp -mtune=generic -march=x86-64 -g -O0 -fpre-include=/usr/include/finclude/math-vector-fortran.h
REM seed 22003772 -166966608 1513023457 1037649572 233167368 967884077 -373005258 -711219454 1095281685 817764489 -1544441113 702832355 -1237056405 -1860003201 2002217372 -566678547 1503356949 -1075269128 -1212815437 -983986815 -1409862068 1304572861 -630446453 -1531939233 1349095223 -239887733 -1841931208 1614436691 128988270 -1468541097 1350888414 37402864 -211586358
REM
CELL 1.54180   50.00000   50.00000   50.00000   90.00000   90.00000   90.00000
LATT -1
SFAC C  
C      1  0.4996050000000  0.5114490000000  0.5284420000000 1.0
C      1  0.5066830000000  0.4832940000000  0.5265170000000 1.0
C      1  0.4958720000000  0.4675090000000  0.5049540000000 1.0
C      1  0.5019950000000  0.4702700000000  0.4772060000000 1.0
C      1  0.5003360000000  0.4978830000000  0.4690870000000 1.0
C      1  0.5113790000000  0.5237870000000  0.4793290000000 1.0
C      1  0.5095460000000  0.5298930000000  0.5095990000000 1.0
C      1  0.5465630000000  0.4557500000000  0.5131680000000 1.0
C      1  0.5418460000000  0.4543000000000  0.4806080000000 1.0
C      1  0.5393610000000  0.4834480000000  0.4557310000000 1.0
C      1  0.5385640000000  0.5168000000000  0.4597680000000 1.0
C      1  0.5482220000000  0.5504550000000  0.5139490000000 1.0
C      1  0.5408030000000  0.5357400000000  0.5405520000000 1.0
C      1  0.5416420000000  0.5003390000000  0.5484110000000 1.0
C      1  0.5964840000000  0.4752810000000  0.4806280000000 1.0
C      1  0.5941200000000  0.4994570000000  0.4657510000000 1.0
C      1  0.5951530000000  0.5264750000000  0.4749150000000 1.0
C      1  0.5998240000000  0.5359960000000  0.5015080000000 1.0
C      1  0.5975750000000  0.5213680000000  0.5260370000000 1.0
C      1  0.5962450000000  0.4929890000000  0.5288220000000 1.0
C      1  0.6005120000000  0.4729280000000  0.5088120000000 1.0
C      1  0.4518040000000  0.5895550000000  0.4442770000000 1.0
C      1  0.4442430000000  0.5890440000000  0.5409640000000 1.0
C      1  0.4455380000000  0.5265670000000  0.5937150000000 1.0
C      1  0.4494630000000  0.4442080000000  0.5738360000000 1.0
C      1  0.4460100000000  0.4056480000000  0.5051610000000 1.0
C      1  0.4438960000000  0.4333170000000  0.4245860000000 1.0
C      1  0.4465430000000  0.5176790000000  0.4027660000000 1.0
C      1  0.5592950000000  0.5951890000000  0.5065370000000 1.0
C      1  0.5579910000000  0.5641330000000  0.5755810000000 1.0
C      1  0.5653950000000  0.5133360000000  0.5833200000000 1.0
C      1  0.5649680000000  0.4213910000000  0.5448350000000 1.0
C      1  0.5606120000000  0.4104490000000  0.4676800000000 1.0
C      1  0.5566140000000  0.4691510000000  0.4131520000000 1.0
C      1  0.5621700000000  0.5411980000000  0.4158350000000 1.0
C      1  0.4968330000000  0.4278500000000  0.5880760000000 1.0
C      1  0.4928510000000  0.3855320000000  0.4992160000000 1.0
C      1  0.4899180000000  0.4272610000000  0.4109370000000 1.0
C      1  0.4923260000000  0.5267660000000  0.3887520000000 1.0
C      1  0.4985800000000  0.6057630000000  0.4480330000000 1.0
C      1  0.4908160000000  0.6036830000000  0.5498720000000 1.0
C      1  0.4932490000000  0.5261730000000  0.6124800000000 1.0
C      1  0.4739190000000  0.3987100000000  0.4480820000000 1.0
C      1  0.4732380000000  0.4778620000000  0.3874680000000 1.0
C      1  0.4836450000000  0.5758180000000  0.4119030000000 1.0
C      1  0.4725710000000  0.6064080000000  0.5015030000000 1.0
C      1  0.4739320000000  0.5709280000000  0.5956580000000 1.0
C      1  0.4790740000000  0.4723560000000  0.6065590000000 1.0
C      1  0.4789390000000  0.3953090000000  0.5465880000000 1.0
C      1  0.4304200000000  0.5367560000000  0.4466540000000 1.0
C      1  0.4333390000000  0.5626540000000  0.5010030000000 1.0
C      1  0.4209070000000  0.5432920000000  0.5444580000000 1.0
C      1  0.4185240000000  0.4943740000000  0.5596620000000 1.0
C      1  0.4189890000000  0.4513070000000  0.5303730000000 1.0
C      1  0.4166370000000  0.4438310000000  0.4771920000000 1.0
C      1  0.4242510000000  0.4887130000000  0.4383840000000 1.0
C      1  0.4773800000000  0.5978210000000  0.4309940000000 1.0
C      1  0.4686340000000  0.6016700000000  0.5307400000000 1.0
C      1  0.4710020000000  0.5413160000000  0.6003850000000 1.0
C      1  0.4744770000000  0.4469840000000  0.5906180000000 1.0
C      1  0.4715210000000  0.3942440000000  0.5174350000000 1.0
C      1  0.4678760000000  0.4157700000000  0.4241000000000 1.0
C      1  0.4724530000000  0.5068340000000  0.3955680000000 1.0
C      1  0.4834530000000  0.5236390000000  0.5517440000000 1.0
C      1  0.4918820000000  0.4742140000000  0.5510260000000 1.0
C      1  0.4788940000000  0.4439270000000  0.5087090000000 1.0
C      1  0.4803800000000  0.4557590000000  0.4613290000000 1.0
C      1  0.4813120000000  0.5002190000000  0.4471420000000 1.0
C      1  0.4901910000000  0.5433630000000  0.4671200000000 1.0
C      1  0.4881640000000  0.5515430000000  0.5136670000000 1.0
C      1  0.5043720000000  0.3952930000000  0.4513370000000 1.0
C      1  0.5019080000000  0.4701910000000  0.3888050000000 1.0
C      1  0.5122340000000  0.5681080000000  0.4108040000000 1.0
C      1  0.5016540000000  0.6087840000000  0.4970590000000 1.0
C      1  0.5021910000000  0.5794960000000  0.5930410000000 1.0
C      1  0.5101600000000  0.4780640000000  0.6094490000000 1.0
C      1  0.5091280000000  0.3979990000000  0.5506050000000 1.0
C      1  0.5862990000000  0.4959560000000  0.4394140000000 1.0
C      1  0.5875720000000  0.5457280000000  0.4563700000000 1.0
C      1  0.5951260000000  0.5632310000000  0.5048720000000 1.0
C      1  0.5911820000000  0.5368470000000  0.5483710000000 1.0
C      1  0.5887570000000  0.4832670000000  0.5536730000000 1.0
C      1  0.5974290000000  0.4469970000000  0.5182680000000 1.0
C      1  0.5901670000000  0.4516250000000  0.4671220000000 1.0
C      1  0.4886700000000  0.5263460000000  0.4317740000000 1.0
C      1  0.4885720000000  0.5680600000000  0.4875770000000 1.0
C      1  0.4915180000000  0.5654810000000  0.5417370000000 1.0
C      1  0.4910970000000  0.5100540000000  0.5769830000000 1.0
C      1  0.4983390000000  0.4459180000000  0.5536950000000 1.0
C      1  0.4886440000000  0.4229600000000  0.4891450000000 1.0
C      1  0.4847140000000  0.4638580000000  0.4335670000000 1.0
C      1  0.4337900000000  0.5216970000000  0.5636620000000 1.0
C      1  0.4348230000000  0.4661470000000  0.5550480000000 1.0
C      1  0.4308740000000  0.4353720000000  0.5052390000000 1.0
C      1  0.4318270000000  0.4411350000000  0.4511960000000 1.0
C      1  0.4357720000000  0.5135730000000  0.4296210000000 1.0
C      1  0.4504260000000  0.5593800000000  0.4444030000000 1.0
C      1  0.4368830000000  0.5633780000000  0.5294290000000 1.0
C      1  0.4679540000000  0.5517660000000  0.4212820000000 1.0
C      1  0.4561820000000  0.5753160000000  0.4851210000000 1.0
C      1  0.4680520000000  0.5574150000000  0.5599490000000 1.0
C      1  0.4698940000000  0.4907020000000  0.5851640000000 1.0
C      1  0.4776290000000  0.4330900000000  0.5376370000000 1.0
C      1  0.4662970000000  0.4196630000000  0.4682850000000 1.0
C      1  0.4562850000000  0.4755590000000  0.4219810000000 1.0
C      1  0.4514280000000  0.5001370000000  0.6043220000000 1.0
C      1  0.4541040000000  0.4240970000000  0.5539840000000 1.0
C      1  0.4478040000000  0.3991860000000  0.4772220000000 1.0
C      1  0.4469120000000  0.4544350000000  0.4039960000000 1.0
C      1  0.4501230000000  0.5451720000000  0.3989380000000 1.0
C      1  0.4494900000000  0.6011550000000  0.4710000000000 1.0
C      1  0.4492010000000  0.5814310000000  0.5681000000000 1.0
C      1  0.5191710000000  0.5568990000000  0.5545200000000 1.0
C      1  0.5181230000000  0.4957300000000  0.5696900000000 1.0
C      1  0.5250760000000  0.4406040000000  0.5387060000000 1.0
C      1  0.5155970000000  0.4334370000000  0.4748820000000 1.0
C      1  0.5153250000000  0.4758950000000  0.4335670000000 1.0
C      1  0.5206790000000  0.5303950000000  0.4353730000000 1.0
C      1  0.5265800000000  0.5678150000000  0.4978160000000 1.0
C      1  0.5398970000000  0.6003420000000  0.5285290000000 1.0
C      1  0.5402040000000  0.5508910000000  0.5962190000000 1.0
C      1  0.5497670000000  0.4609050000000  0.5790410000000 1.0
C      1  0.5458670000000  0.4039590000000  0.5166800000000 1.0
C      1  0.5427800000000  0.4237480000000  0.4363320000000 1.0
C      1  0.5450930000000  0.4919360000000  0.3988770000000 1.0
C      1  0.5448680000000  0.5699640000000  0.4503810000000 1.0
C      1  0.4614190000000  0.5328870000000  0.4775350000000 1.0
C      1  0.4625260000000  0.5321390000000  0.5123270000000 1.0
C      1  0.4566790000000  0.5131920000000  0.5449350000000 1.0
C      1  0.4591220000000  0.4821210000000  0.5427240000000 1.0
C      1  0.4530310000000  0.4562440000000  0.4998930000000 1.0
C      1  0.4538280000000  0.4659090000000  0.4705100000000 1.0
C      1  0.4564100000000  0.4997990000000  0.4663050000000 1.0
C      1  0.5130970000000  0.6012690000000  0.4716530000000 1.0
C      1  0.5114360000000  0.5976590000000  0.5706150000000 1.0
C      1  0.5171630000000  0.5082840000000  0.6120600000000 1.0
C      1  0.5194080000000  0.4138210000000  0.5745990000000 1.0
C      1  0.5145210000000  0.3891530000000  0.4791260000000 1.0
C      1  0.5096400000000  0.4452150000000  0.4021860000000 1.0
C      1  0.5159370000000  0.5431280000000  0.3929670000000 1.0
C      1  0.5701240000000  0.5702090000000  0.5154860000000 1.0
C      1  0.5657560000000  0.5372960000000  0.5621600000000 1.0
C      1  0.5637710000000  0.4872610000000  0.5673900000000 1.0
C      1  0.5708820000000  0.4399330000000  0.5234620000000 1.0
C      1  0.5638620000000  0.4399140000000  0.4651420000000 1.0
C      1  0.5655310000000  0.4767680000000  0.4403260000000 1.0
C      1  0.5615510000000  0.5455120000000  0.4446020000000 1.0
C      1  0.5410280000000  0.5213160000000  0.5975960000000 1.0
C      1  0.5437040000000  0.4338730000000  0.5628480000000 1.0
C      1  0.5415510000000  0.4003140000000  0.4876490000000 1.0
C      1  0.5361150000000  0.4470500000000  0.4170130000000 1.0
C      1  0.5371920000000  0.5278650000000  0.4093460000000 1.0
C      1  0.5397690000000  0.5861190000000  0.4758130000000 1.0
C      1  0.5377030000000  0.5849160000000  0.5573250000000 1.0
C      1  0.5172950000000  0.4888440000000  0.4061660000000 1.0
C      1  0.5196060000000  0.5602620000000  0.4391700000000 1.0
C      1  0.5154460000000  0.5903920000000  0.5155090000000 1.0
C      1  0.5137090000000  0.5538270000000  0.5847680000000 1.0
C      1  0.5216510000000  0.4692030000000  0.5831540000000 1.0
C      1  0.5207380000000  0.4131370000000  0.5277650000000 1.0
C      1  0.5153650000000  0.4221590000000  0.4471320000000 1.0
C      1  0.4136400000000  0.4983250000000  0.5302580000000 1.0
C      1  0.4080820000000  0.4743410000000  0.5146460000000 1.0
C      1  0.4116290000000  0.4722650000000  0.4849490000000 1.0
C      1  0.4128340000000  0.4944120000000  0.4648190000000 1.0
C      1  0.4191370000000  0.5232960000000  0.4704260000000 1.0
C      1  0.4217180000000  0.5362990000000  0.4965740000000 1.0
C      1  0.4113820000000  0.5262070000000  0.5220800000000 1.0
C      1  0.4683670000000  0.5017770000000  0.4990530000000 1.0
C      1  0.5362130000000  0.4814810000000  0.5257530000000 1.0
C      1  0.4516820000000  0.4820630000000  0.5139680000000 1.0
END
