TITL C-3577084-3642-456 2.18892282559658e-06 125000 -1054.2060311996 0 0 177 (C1) n - 1
REM
REM in /home/bkarasulu/work/CARBON/AIRSS/Generating-Clusters/EDIP-Nigel-Params/with-SteepDescent/Higher-Symm/SD-CG/HFTN-CG
REM
REM
REM
REM
REM
REM ./C.cell (12c818d87b63d06a65506943cc24bca4)
REM
REM compiler GCC version 9.2.1 20190827 (Red Hat 9.2.1-1)
REM options -cpp -mtune=generic -march=x86-64 -g -O0 -fpre-include=/usr/include/finclude/math-vector-fortran.h
REM seed -389558239 -1162450137 805382713 1532711598 -1635316244 -397782429 1296361854 -631811370 2027545535 -2040781602 -1106461024 1173659522 1424594305 2110908157 -2107854239 494895180 -1974134772 -62995157 1188711745 -1366552718 1141056860 842895578 -1487081458 -1804639087 178170168 -509709103 -1014500726 -1266911308 -1199077791 -1422597676 -1963481123 -1184780522 915381001
REM
CELL 1.54180   50.00000   50.00000   50.00000   90.00000   90.00000   90.00000
LATT -1
SFAC C  
C      1  0.4696070000000  0.4816710000000  0.4047870000000 1.0
C      1  0.4300610000000  0.4831580000000  0.5735630000000 1.0
C      1  0.6022730000000  0.4833540000000  0.5224850000000 1.0
C      1  0.4702720000000  0.5167910000000  0.4035080000000 1.0
C      1  0.4301660000000  0.5162710000000  0.5735030000000 1.0
C      1  0.6024020000000  0.5175530000000  0.5224490000000 1.0
C      1  0.5295340000000  0.4831620000000  0.4038490000000 1.0
C      1  0.5699230000000  0.4833480000000  0.5736060000000 1.0
C      1  0.3979750000000  0.4822740000000  0.5226940000000 1.0
C      1  0.5302690000000  0.5182360000000  0.4050980000000 1.0
C      1  0.5699650000000  0.5164500000000  0.5734560000000 1.0
C      1  0.3981870000000  0.5163380000000  0.5224660000000 1.0
C      1  0.3851630000000  0.5297600000000  0.5467260000000 1.0
C      1  0.5983790000000  0.5286080000000  0.5733390000000 1.0
C      1  0.5160920000000  0.5306980000000  0.3810470000000 1.0
C      1  0.3847740000000  0.4695150000000  0.5472370000000 1.0
C      1  0.5983470000000  0.4711300000000  0.5732070000000 1.0
C      1  0.5149210000000  0.4705920000000  0.3797330000000 1.0
C      1  0.6153920000000  0.5303520000000  0.5471230000000 1.0
C      1  0.4018250000000  0.5285800000000  0.5731250000000 1.0
C      1  0.4851620000000  0.5293330000000  0.3795340000000 1.0
C      1  0.6152540000000  0.4699880000000  0.5468810000000 1.0
C      1  0.4016530000000  0.4710470000000  0.5734880000000 1.0
C      1  0.4839940000000  0.4692130000000  0.3808760000000 1.0
C      1  0.4831020000000  0.5295730000000  0.4737340000000 1.0
C      1  0.4789940000000  0.5261790000000  0.5278400000000 1.0
C      1  0.5308200000000  0.5296890000000  0.4974350000000 1.0
C      1  0.4868410000000  0.4629240000000  0.4702610000000 1.0
C      1  0.4787910000000  0.4729500000000  0.5284440000000 1.0
C      1  0.5330900000000  0.4767090000000  0.4987480000000 1.0
C      1  0.5126860000000  0.5366150000000  0.4702720000000 1.0
C      1  0.5229420000000  0.5275550000000  0.5288490000000 1.0
C      1  0.4662700000000  0.5232480000000  0.4985390000000 1.0
C      1  0.5163920000000  0.4699540000000  0.4739570000000 1.0
C      1  0.5226980000000  0.4716380000000  0.5283180000000 1.0
C      1  0.4688690000000  0.4702880000000  0.4972600000000 1.0
C      1  0.5553740000000  0.4765330000000  0.4393000000000 1.0
C      1  0.4124610000000  0.4743760000000  0.4815470000000 1.0
C      1  0.5266940000000  0.4749970000000  0.5787940000000 1.0
C      1  0.5565150000000  0.5268220000000  0.4395870000000 1.0
C      1  0.4126890000000  0.5232640000000  0.4812170000000 1.0
C      1  0.5268220000000  0.5249710000000  0.5786650000000 1.0
C      1  0.4430250000000  0.4731790000000  0.4390280000000 1.0
C      1  0.5872410000000  0.4766640000000  0.4813660000000 1.0
C      1  0.4733040000000  0.4749810000000  0.5788000000000 1.0
C      1  0.4441590000000  0.5234860000000  0.4387440000000 1.0
C      1  0.5877870000000  0.5255240000000  0.4812930000000 1.0
C      1  0.4734280000000  0.5244660000000  0.5787490000000 1.0
C      1  0.5315580000000  0.5449120000000  0.6026690000000 1.0
C      1  0.5772720000000  0.5432520000000  0.4225750000000 1.0
C      1  0.3904850000000  0.5548260000000  0.4794610000000 1.0
C      1  0.5313990000000  0.4551140000000  0.6028070000000 1.0
C      1  0.5746270000000  0.4576320000000  0.4233330000000 1.0
C      1  0.3885170000000  0.4440270000000  0.4804120000000 1.0
C      1  0.4686860000000  0.5446240000000  0.6024570000000 1.0
C      1  0.4251400000000  0.5426870000000  0.4228870000000 1.0
C      1  0.6116070000000  0.5559930000000  0.4805660000000 1.0
C      1  0.4685720000000  0.4549350000000  0.6026340000000 1.0
C      1  0.4225840000000  0.4563610000000  0.4220670000000 1.0
C      1  0.6093960000000  0.4451150000000  0.4792970000000 1.0
C      1  0.4290960000000  0.4316010000000  0.4399090000000 1.0
C      1  0.4810360000000  0.4322320000000  0.5848990000000 1.0
C      1  0.5815100000000  0.4330680000000  0.4766420000000 1.0
C      1  0.4339760000000  0.5664270000000  0.4408800000000 1.0
C      1  0.4812100000000  0.5672350000000  0.5846240000000 1.0
C      1  0.5844970000000  0.5692270000000  0.4768840000000 1.0
C      1  0.5658630000000  0.4336550000000  0.4410220000000 1.0
C      1  0.5189770000000  0.4323820000000  0.5850810000000 1.0
C      1  0.4155380000000  0.4306740000000  0.4767370000000 1.0
C      1  0.5707660000000  0.5682190000000  0.4401310000000 1.0
C      1  0.5190470000000  0.5675370000000  0.5848680000000 1.0
C      1  0.4182950000000  0.5669600000000  0.4765310000000 1.0
C      1  0.6086150000000  0.5605250000000  0.5447910000000 1.0
C      1  0.4835300000000  0.5597560000000  0.3867850000000 1.0
C      1  0.4087580000000  0.5586670000000  0.5700730000000 1.0
C      1  0.6083020000000  0.4398820000000  0.5438280000000 1.0
C      1  0.4852980000000  0.4390590000000  0.3880640000000 1.0
C      1  0.4085020000000  0.4409210000000  0.5708260000000 1.0
C      1  0.3923710000000  0.5597680000000  0.5435390000000 1.0
C      1  0.5147140000000  0.5608640000000  0.3881460000000 1.0
C      1  0.5915260000000  0.5587320000000  0.5708460000000 1.0
C      1  0.3914640000000  0.4393300000000  0.5447110000000 1.0
C      1  0.5164860000000  0.4401760000000  0.3870730000000 1.0
C      1  0.5916930000000  0.4410250000000  0.5702160000000 1.0
C      1  0.5304070000000  0.5879180000000  0.5391770000000 1.0
C      1  0.5312160000000  0.5892690000000  0.4516100000000 1.0
C      1  0.4494890000000  0.5913720000000  0.5074400000000 1.0
C      1  0.5300960000000  0.4118960000000  0.5398530000000 1.0
C      1  0.5263430000000  0.4063970000000  0.4517190000000 1.0
C      1  0.4481080000000  0.4087840000000  0.5077520000000 1.0
C      1  0.4702640000000  0.5871270000000  0.5391440000000 1.0
C      1  0.4739270000000  0.5933410000000  0.4514440000000 1.0
C      1  0.5518510000000  0.5911670000000  0.5077730000000 1.0
C      1  0.4693150000000  0.4119620000000  0.5392900000000 1.0
C      1  0.4691200000000  0.4110810000000  0.4517730000000 1.0
C      1  0.5509360000000  0.4081200000000  0.5079900000000 1.0
C      1  0.4849910000000  0.5417610000000  0.5552630000000 1.0
C      1  0.5629900000000  0.5467700000000  0.4836990000000 1.0
C      1  0.4578900000000  0.5415590000000  0.4597940000000 1.0
C      1  0.4849870000000  0.4575970000000  0.5555960000000 1.0
C      1  0.5624810000000  0.4567090000000  0.4831830000000 1.0
C      1  0.4556270000000  0.4525510000000  0.4593150000000 1.0
C      1  0.5148620000000  0.5422380000000  0.5555150000000 1.0
C      1  0.4372010000000  0.5432330000000  0.4827480000000 1.0
C      1  0.5438020000000  0.5478900000000  0.4596390000000 1.0
C      1  0.5148820000000  0.4574970000000  0.5555270000000 1.0
C      1  0.4369480000000  0.4530870000000  0.4836140000000 1.0
C      1  0.5417660000000  0.4582230000000  0.4601280000000 1.0
C      1  0.5171840000000  0.4402710000000  0.4182170000000 1.0
C      1  0.4171960000000  0.4397510000000  0.5273690000000 1.0
C      1  0.5630540000000  0.4412030000000  0.5576300000000 1.0
C      1  0.5208350000000  0.5623890000000  0.4185670000000 1.0
C      1  0.4185300000000  0.5584060000000  0.5267710000000 1.0
C      1  0.5630610000000  0.5586740000000  0.5576460000000 1.0
C      1  0.4788750000000  0.4377330000000  0.4184430000000 1.0
C      1  0.5822090000000  0.4410960000000  0.5268930000000 1.0
C      1  0.4369490000000  0.4411360000000  0.5576270000000 1.0
C      1  0.4825160000000  0.5595820000000  0.4179380000000 1.0
C      1  0.5829290000000  0.5600450000000  0.5273970000000 1.0
C      1  0.4373730000000  0.5581270000000  0.5574620000000 1.0
C      1  0.4604670000000  0.5770170000000  0.5640670000000 1.0
C      1  0.5787910000000  0.5815530000000  0.5051700000000 1.0
C      1  0.4616400000000  0.5764000000000  0.4334180000000 1.0
C      1  0.4601460000000  0.4224190000000  0.5643650000000 1.0
C      1  0.5765960000000  0.4205810000000  0.5043420000000 1.0
C      1  0.4553290000000  0.4201330000000  0.4301150000000 1.0
C      1  0.5397910000000  0.5774080000000  0.5641970000000 1.0
C      1  0.4236120000000  0.5792570000000  0.5043060000000 1.0
C      1  0.5447270000000  0.5798210000000  0.4299420000000 1.0
C      1  0.5398010000000  0.4225140000000  0.5645840000000 1.0
C      1  0.4211560000000  0.4182800000000  0.5050680000000 1.0
C      1  0.5382510000000  0.4235210000000  0.4336020000000 1.0
C      1  0.5147120000000  0.4694570000000  0.4272030000000 1.0
C      1  0.4257140000000  0.4695460000000  0.5226110000000 1.0
C      1  0.5559350000000  0.4709590000000  0.5465750000000 1.0
C      1  0.5146610000000  0.5330210000000  0.4307240000000 1.0
C      1  0.4261820000000  0.5281930000000  0.5222840000000 1.0
C      1  0.5559650000000  0.5290320000000  0.5460970000000 1.0
C      1  0.4849910000000  0.4670530000000  0.4306160000000 1.0
C      1  0.5744830000000  0.4712300000000  0.5226120000000 1.0
C      1  0.4442090000000  0.4708070000000  0.5466380000000 1.0
C      1  0.4849890000000  0.5303790000000  0.4269300000000 1.0
C      1  0.5747880000000  0.5302510000000  0.5224400000000 1.0
C      1  0.4444350000000  0.5281740000000  0.5465260000000 1.0
C      1  0.4879900000000  0.5881120000000  0.4746150000000 1.0
C      1  0.4854320000000  0.5696080000000  0.5210990000000 1.0
C      1  0.5306770000000  0.5738750000000  0.4969650000000 1.0
C      1  0.4844720000000  0.4189560000000  0.4731560000000 1.0
C      1  0.4846180000000  0.4294930000000  0.5217730000000 1.0
C      1  0.5278410000000  0.4218670000000  0.4967210000000 1.0
C      1  0.5158710000000  0.5804750000000  0.4726620000000 1.0
C      1  0.5152990000000  0.5702960000000  0.5214940000000 1.0
C      1  0.4722230000000  0.5770800000000  0.4960100000000 1.0
C      1  0.5123310000000  0.4113720000000  0.4749650000000 1.0
C      1  0.5144650000000  0.4288970000000  0.5217560000000 1.0
C      1  0.4693640000000  0.4261280000000  0.4971310000000 1.0
C      1  0.5582530000000  0.5312390000000  0.4016970000000 1.0
C      1  0.3852620000000  0.5294210000000  0.4953350000000 1.0
C      1  0.5585320000000  0.5310270000000  0.5983880000000 1.0
C      1  0.5572040000000  0.4698550000000  0.4015260000000 1.0
C      1  0.3847890000000  0.4697220000000  0.4959940000000 1.0
C      1  0.5584450000000  0.4688670000000  0.5985450000000 1.0
C      1  0.4426530000000  0.5303240000000  0.4010850000000 1.0
C      1  0.6154740000000  0.5300770000000  0.4957780000000 1.0
C      1  0.4415860000000  0.5309270000000  0.5983780000000 1.0
C      1  0.4417110000000  0.4684230000000  0.4012310000000 1.0
C      1  0.6148970000000  0.4704050000000  0.4952700000000 1.0
C      1  0.4415060000000  0.4686510000000  0.5985060000000 1.0
C      1  0.4863740000000  0.4997580000000  0.5860320000000 1.0
C      1  0.5138840000000  0.4999780000000  0.5856670000000 1.0
C      1  0.4334340000000  0.4985420000000  0.4480070000000 1.0
C      1  0.5656010000000  0.5014440000000  0.4490420000000 1.0
C      1  0.5871310000000  0.5010570000000  0.4657300000000 1.0
C      1  0.4127500000000  0.4987480000000  0.4657810000000 1.0
C      1  0.5404340000000  0.5034840000000  0.4959890000000 1.0
C      1  0.4588390000000  0.4964470000000  0.4952590000000 1.0
C      1  0.4955800000000  0.4996460000000  0.5302350000000 1.0
END
