TITL C-3577084-3642-101 3.94190296501344e-05 125000 -259.396270677341 0 0 45 (C3h) n - 1
REM
REM in /home/bkarasulu/work/CARBON/AIRSS/Generating-Clusters/EDIP-Nigel-Params/with-SteepDescent/Higher-Symm/SD-CG/HFTN-CG
REM
REM
REM
REM
REM
REM ./C.cell (12c818d87b63d06a65506943cc24bca4)
REM
REM compiler GCC version 9.2.1 20190827 (Red Hat 9.2.1-1)
REM options -cpp -mtune=generic -march=x86-64 -g -O0 -fpre-include=/usr/include/finclude/math-vector-fortran.h
REM seed -809505277 -49007570 -1929248405 386501183 -232429231 1143986818 -1853881015 -68278354 -74713132 -734602927 233441371 1960786550 -1538067357 -1551021824 696279846 1261414418 -2106420488 -892172940 -9492489 1868622131 -481724537 915337798 -87731620 -665282718 -965973733 -97882090 2118780706 -2072711054 -381910069 1815196372 2147124482 1597115917 1251974547
REM
CELL 1.54180   50.00000   50.00000   50.00000   90.00000   90.00000   90.00000
LATT -1
SFAC C  
C      1  0.4858710000000  0.5479770000000  0.4821620000000 1.0
C      1  0.4858710000000  0.4625730000000  0.4665480000000 1.0
C      1  0.4858710000000  0.4917530000000  0.5483170000000 1.0
C      1  0.5190520000000  0.5479770000000  0.4821620000000 1.0
C      1  0.5190520000000  0.4625730000000  0.4665480000000 1.0
C      1  0.5190520000000  0.4917530000000  0.5483170000000 1.0
C      1  0.4415590000000  0.4524380000000  0.5109060000000 1.0
C      1  0.4415600000000  0.5352360000000  0.5349150000000 1.0
C      1  0.4415600000000  0.5146290000000  0.4512050000000 1.0
C      1  0.5633630000000  0.4524380000000  0.5109070000000 1.0
C      1  0.5633630000000  0.5352350000000  0.5349150000000 1.0
C      1  0.5633630000000  0.5146290000000  0.4512060000000 1.0
C      1  0.5359310000000  0.4843400000000  0.5229340000000 1.0
C      1  0.5359320000000  0.5297000000000  0.5012730000000 1.0
C      1  0.5359320000000  0.4882620000000  0.4728210000000 1.0
C      1  0.4689910000000  0.4843410000000  0.5229330000000 1.0
C      1  0.4689910000000  0.5297000000000  0.5012730000000 1.0
C      1  0.4689910000000  0.4882620000000  0.4728210000000 1.0
C      1  0.4868580000000  0.5377240000000  0.4534500000000 1.0
C      1  0.4868580000000  0.4428340000000  0.4897830000000 1.0
C      1  0.4868580000000  0.5217440000000  0.5537940000000 1.0
C      1  0.5180650000000  0.5377240000000  0.4534500000000 1.0
C      1  0.5180650000000  0.4428340000000  0.4897830000000 1.0
C      1  0.5180650000000  0.5217440000000  0.5537940000000 1.0
C      1  0.4697140000000  0.4482840000000  0.5130950000000 1.0
C      1  0.4697140000000  0.5392090000000  0.5374180000000 1.0
C      1  0.4697140000000  0.5148100000000  0.4465130000000 1.0
C      1  0.5352090000000  0.4482840000000  0.5130950000000 1.0
C      1  0.5352090000000  0.5392080000000  0.5374180000000 1.0
C      1  0.5352090000000  0.5148100000000  0.4465140000000 1.0
C      1  0.5658000000000  0.4941350000000  0.4708600000000 1.0
C      1  0.5657990000000  0.4797060000000  0.5188280000000 1.0
C      1  0.5658000000000  0.5284610000000  0.5073400000000 1.0
C      1  0.4391230000000  0.4941350000000  0.4708600000000 1.0
C      1  0.4391230000000  0.4797060000000  0.5188270000000 1.0
C      1  0.4391230000000  0.5284620000000  0.5073400000000 1.0
C      1  0.4285910000000  0.5007680000000  0.4990090000000 1.0
C      1  0.5763320000000  0.5007670000000  0.4990090000000 1.0
C      1  0.5285270000000  0.5007670000000  0.4990090000000 1.0
C      1  0.4763960000000  0.5007680000000  0.4990090000000 1.0
C      1  0.6047330000000  0.5007670000000  0.4990090000000 1.0
C      1  0.4001890000000  0.5007680000000  0.4990090000000 1.0
C      1  0.6303660000000  0.5007670000000  0.4990090000000 1.0
C      1  0.3745570000000  0.5007680000000  0.4990090000000 1.0
C      1  0.5024610000000  0.5007670000000  0.4990090000000 1.0
END
