TITL C-3577085-527-178 -3.56091276912732e-07 125000 -650.26292647043 0 0 104 (C1) n - 1
REM
REM in /home/bkarasulu/work/CARBON/AIRSS/Generating-Clusters/EDIP-Nigel-Params/with-SteepDescent/Higher-Symm/SD-CG/HFTN-CG
REM
REM
REM
REM
REM
REM ./C.cell (12c818d87b63d06a65506943cc24bca4)
REM
REM compiler GCC version 9.2.1 20190827 (Red Hat 9.2.1-1)
REM options -cpp -mtune=generic -march=x86-64 -g -O0 -fpre-include=/usr/include/finclude/math-vector-fortran.h
REM seed 918381358 1267525774 1030927983 1871344769 -44145432 -1059097334 -134654998 372101840 -2118619323 -2137776674 -1816445470 -1870993498 -665527893 1454337304 309100328 -1691786473 -717490187 1217699158 -749800432 1300905860 -1613915851 -62862890 1834480047 -1451742797 -848873625 1387905893 -1911133129 327873461 -1672312031 -470103371 2066091566 -1072183606 243503242
REM
CELL 1.54180   50.00000   50.00000   50.00000   90.00000   90.00000   90.00000
LATT -1
SFAC C  
C      1  0.5568790000000  0.4702840000000  0.5502720000000 1.0
C      1  0.4794670000000  0.5572190000000  0.5645710000000 1.0
C      1  0.5526740000000  0.5648250000000  0.4768060000000 1.0
C      1  0.4459730000000  0.4806280000000  0.4474410000000 1.0
C      1  0.4474890000000  0.5203290000000  0.5619820000000 1.0
C      1  0.5684930000000  0.4984310000000  0.4361330000000 1.0
C      1  0.5106890000000  0.5662020000000  0.4404550000000 1.0
C      1  0.4867440000000  0.4358830000000  0.5579980000000 1.0
C      1  0.4785930000000  0.4460450000000  0.4298770000000 1.0
C      1  0.4385480000000  0.5759290000000  0.5028780000000 1.0
C      1  0.4454890000000  0.4376900000000  0.4906360000000 1.0
C      1  0.5617800000000  0.4420370000000  0.5114520000000 1.0
C      1  0.5491670000000  0.4996170000000  0.5551170000000 1.0
C      1  0.4611370000000  0.4483390000000  0.5654750000000 1.0
C      1  0.5632260000000  0.4415950000000  0.4820000000000 1.0
C      1  0.4440810000000  0.5101980000000  0.4443970000000 1.0
C      1  0.4414880000000  0.4918900000000  0.5637120000000 1.0
C      1  0.5701940000000  0.4702810000000  0.4425920000000 1.0
C      1  0.5049920000000  0.4425410000000  0.4216120000000 1.0
C      1  0.5087660000000  0.5649280000000  0.5557340000000 1.0
C      1  0.4809610000000  0.5608080000000  0.4422010000000 1.0
C      1  0.4511520000000  0.4313830000000  0.5204180000000 1.0
C      1  0.4433760000000  0.5725740000000  0.4756490000000 1.0
C      1  0.5433240000000  0.5613310000000  0.5146290000000 1.0
C      1  0.4876610000000  0.4515040000000  0.4831180000000 1.0
C      1  0.4652900000000  0.4819460000000  0.4914870000000 1.0
C      1  0.4915110000000  0.4850830000000  0.4564030000000 1.0
C      1  0.5175370000000  0.4614760000000  0.5204000000000 1.0
C      1  0.5120640000000  0.5470700000000  0.4820710000000 1.0
C      1  0.4797840000000  0.5515730000000  0.5124840000000 1.0
C      1  0.5369800000000  0.4830210000000  0.5068690000000 1.0
C      1  0.5407020000000  0.5107290000000  0.4710700000000 1.0
C      1  0.4675910000000  0.5252040000000  0.5178950000000 1.0
C      1  0.5100130000000  0.4740010000000  0.5456400000000 1.0
C      1  0.5166290000000  0.5257250000000  0.4631380000000 1.0
C      1  0.4947480000000  0.5151130000000  0.5508940000000 1.0
C      1  0.4847860000000  0.5520890000000  0.4853570000000 1.0
C      1  0.4651020000000  0.5126100000000  0.4864780000000 1.0
C      1  0.4881990000000  0.5136480000000  0.4618410000000 1.0
C      1  0.5220930000000  0.5394020000000  0.5082380000000 1.0
C      1  0.5144290000000  0.4477820000000  0.4709490000000 1.0
C      1  0.4914670000000  0.4529970000000  0.5115110000000 1.0
C      1  0.5350950000000  0.5124250000000  0.5149390000000 1.0
C      1  0.5404820000000  0.4832400000000  0.4768090000000 1.0
C      1  0.4647530000000  0.4863690000000  0.5223660000000 1.0
C      1  0.5228990000000  0.5157540000000  0.5650390000000 1.0
C      1  0.5178570000000  0.4721610000000  0.4575200000000 1.0
C      1  0.4849740000000  0.4880190000000  0.5466590000000 1.0
C      1  0.4403870000000  0.4694450000000  0.4792330000000 1.0
C      1  0.4738680000000  0.4751410000000  0.4348640000000 1.0
C      1  0.4711580000000  0.4276430000000  0.4763720000000 1.0
C      1  0.5633940000000  0.4707420000000  0.5204740000000 1.0
C      1  0.5654070000000  0.5184070000000  0.4582590000000 1.0
C      1  0.4426800000000  0.5330060000000  0.5345650000000 1.0
C      1  0.5114930000000  0.4546250000000  0.5672490000000 1.0
C      1  0.5268830000000  0.5404670000000  0.4383030000000 1.0
C      1  0.4762540000000  0.5271460000000  0.5706430000000 1.0
C      1  0.5355250000000  0.4353810000000  0.5261450000000 1.0
C      1  0.5240010000000  0.5728200000000  0.4709320000000 1.0
C      1  0.4625560000000  0.5752870000000  0.5190370000000 1.0
C      1  0.4388430000000  0.5216050000000  0.4712590000000 1.0
C      1  0.4731550000000  0.5283240000000  0.4387970000000 1.0
C      1  0.4723610000000  0.5735540000000  0.4695090000000 1.0
C      1  0.5575510000000  0.5185430000000  0.5327050000000 1.0
C      1  0.5678880000000  0.4697540000000  0.4720520000000 1.0
C      1  0.4384750000000  0.4780980000000  0.5361790000000 1.0
C      1  0.5312900000000  0.5456090000000  0.5621540000000 1.0
C      1  0.5242120000000  0.4631480000000  0.4286980000000 1.0
C      1  0.4671790000000  0.4775040000000  0.5708160000000 1.0
C      1  0.5150800000000  0.5730180000000  0.5270410000000 1.0
C      1  0.5396650000000  0.4310790000000  0.4651250000000 1.0
C      1  0.4809850000000  0.4305330000000  0.5274350000000 1.0
C      1  0.4831070000000  0.6004860000000  0.4794420000000 1.0
C      1  0.5905240000000  0.4856250000000  0.4843410000000 1.0
C      1  0.4792280000000  0.4837390000000  0.5973920000000 1.0
C      1  0.5084810000000  0.5993310000000  0.5151920000000 1.0
C      1  0.5225240000000  0.4063910000000  0.4834960000000 1.0
C      1  0.4938580000000  0.4054810000000  0.5168360000000 1.0
C      1  0.4143690000000  0.4876410000000  0.5222650000000 1.0
C      1  0.4151590000000  0.5128040000000  0.4864890000000 1.0
C      1  0.5833710000000  0.5142420000000  0.5170730000000 1.0
C      1  0.5171850000000  0.4882020000000  0.4103350000000 1.0
C      1  0.5166060000000  0.5060950000000  0.5931150000000 1.0
C      1  0.4865500000000  0.5198180000000  0.4133680000000 1.0
C      1  0.4899350000000  0.4041980000000  0.4864940000000 1.0
C      1  0.5865090000000  0.5147540000000  0.4801850000000 1.0
C      1  0.4866010000000  0.5134360000000  0.5972290000000 1.0
C      1  0.5238220000000  0.4089430000000  0.5144220000000 1.0
C      1  0.5132460000000  0.5987020000000  0.4843200000000 1.0
C      1  0.4782850000000  0.6013350000000  0.5110840000000 1.0
C      1  0.4170710000000  0.5183830000000  0.5182060000000 1.0
C      1  0.4155010000000  0.4829210000000  0.4917520000000 1.0
C      1  0.5882740000000  0.4856220000000  0.5133110000000 1.0
C      1  0.5169720000000  0.5213290000000  0.4146890000000 1.0
C      1  0.5082250000000  0.4748620000000  0.5938360000000 1.0
C      1  0.4857740000000  0.4902570000000  0.4100930000000 1.0
C      1  0.4339520000000  0.5488910000000  0.4665610000000 1.0
C      1  0.5501220000000  0.4489630000000  0.4356460000000 1.0
C      1  0.4556680000000  0.5648890000000  0.5468330000000 1.0
C      1  0.5398790000000  0.4441350000000  0.5577010000000 1.0
C      1  0.4406240000000  0.4483740000000  0.5425860000000 1.0
C      1  0.5566600000000  0.5473530000000  0.4520490000000 1.0
C      1  0.5532980000000  0.5473050000000  0.5407250000000 1.0
C      1  0.4680820000000  0.4278790000000  0.4479930000000 1.0
END
