TITL C-3578202-4305-58 2.5946768837016e-07 125000 -313.125146141418 0 0 53 (C1) n - 1
REM
REM in /home/bkarasulu/work/CARBON/AIRSS/Generating-Clusters/EDIP-Nigel-Params/with-SteepDescent/Higher-Symm/SD-CG/HFTN-CG
REM
REM
REM
REM
REM
REM ./C.cell (12c818d87b63d06a65506943cc24bca4)
REM
REM compiler GCC version 9.2.1 20190827 (Red Hat 9.2.1-1)
REM options -cpp -mtune=generic -march=x86-64 -g -O0 -fpre-include=/usr/include/finclude/math-vector-fortran.h
REM seed -733150605 1205948527 -1598657557 1835081887 -1789659107 1422303227 1120898421 827525675 1262580040 -1567816388 273873117 -147575685 -1181047693 410634633 277558546 -988395564 -152358816 -1252766101 2053803577 -1860480846 59954303 751105358 725951326 2054681070 602007686 994245776 132927389 94333052 976570056 1443040666 988325773 -1795358623 -863179186
REM
CELL 1.54180   50.00000   50.00000   50.00000   90.00000   90.00000   90.00000
LATT -1
SFAC C  
C      1  0.4579950000000  0.4956520000000  0.4797890000000 1.0
C      1  0.4530110000000  0.5036660000000  0.5242410000000 1.0
C      1  0.4424500000000  0.4728220000000  0.5175590000000 1.0
C      1  0.4369240000000  0.5255890000000  0.4811770000000 1.0
C      1  0.4770490000000  0.5142590000000  0.4369270000000 1.0
C      1  0.4765240000000  0.4890880000000  0.5652630000000 1.0
C      1  0.5075140000000  0.4524910000000  0.5085350000000 1.0
C      1  0.5097950000000  0.5516440000000  0.4903820000000 1.0
C      1  0.5574920000000  0.5082700000000  0.5340350000000 1.0
C      1  0.5565590000000  0.4805890000000  0.4639000000000 1.0
C      1  0.5226650000000  0.5673360000000  0.4702330000000 1.0
C      1  0.5195540000000  0.4373960000000  0.5294480000000 1.0
C      1  0.4741360000000  0.4522560000000  0.4793470000000 1.0
C      1  0.4735800000000  0.5434160000000  0.5142630000000 1.0
C      1  0.4981430000000  0.5253860000000  0.4781840000000 1.0
C      1  0.4990950000000  0.4805590000000  0.5198270000000 1.0
C      1  0.4388300000000  0.5488790000000  0.4646580000000 1.0
C      1  0.4470950000000  0.4495250000000  0.5343380000000 1.0
C      1  0.5009490000000  0.5784810000000  0.5324610000000 1.0
C      1  0.5154440000000  0.4260600000000  0.4737100000000 1.0
C      1  0.5358850000000  0.4675860000000  0.5571200000000 1.0
C      1  0.5397040000000  0.5324680000000  0.4489740000000 1.0
C      1  0.5018680000000  0.4932240000000  0.5758740000000 1.0
C      1  0.5033560000000  0.5124930000000  0.4277840000000 1.0
C      1  0.5344690000000  0.5149700000000  0.5500220000000 1.0
C      1  0.5291960000000  0.4857030000000  0.4567270000000 1.0
C      1  0.4788420000000  0.4709120000000  0.5416770000000 1.0
C      1  0.4744660000000  0.5333090000000  0.4596050000000 1.0
C      1  0.5183440000000  0.4329190000000  0.4462970000000 1.0
C      1  0.5169260000000  0.5642270000000  0.5498700000000 1.0
C      1  0.4714610000000  0.4428940000000  0.5458240000000 1.0
C      1  0.4623990000000  0.5593820000000  0.4545750000000 1.0
C      1  0.4484460000000  0.5285920000000  0.5077530000000 1.0
C      1  0.4503810000000  0.4681950000000  0.4895890000000 1.0
C      1  0.5264490000000  0.4523100000000  0.4845120000000 1.0
C      1  0.5294790000000  0.5426790000000  0.5100650000000 1.0
C      1  0.5504450000000  0.5260620000000  0.5001700000000 1.0
C      1  0.5553090000000  0.4525880000000  0.4909120000000 1.0
C      1  0.5358870000000  0.4415950000000  0.5503550000000 1.0
C      1  0.5407050000000  0.5591680000000  0.4520700000000 1.0
C      1  0.4830060000000  0.4651950000000  0.4547170000000 1.0
C      1  0.4880300000000  0.5289750000000  0.5350850000000 1.0
C      1  0.5118220000000  0.4618240000000  0.4485980000000 1.0
C      1  0.5177860000000  0.5374840000000  0.5375540000000 1.0
C      1  0.5654940000000  0.4798450000000  0.4917360000000 1.0
C      1  0.5506210000000  0.4987620000000  0.5078680000000 1.0
C      1  0.4881100000000  0.4277150000000  0.4853610000000 1.0
C      1  0.4850380000000  0.5703420000000  0.5107260000000 1.0
C      1  0.4672990000000  0.5124540000000  0.5498100000000 1.0
C      1  0.4680930000000  0.4902570000000  0.4519480000000 1.0
C      1  0.5186770000000  0.4897390000000  0.5524320000000 1.0
C      1  0.5185590000000  0.5135240000000  0.4527670000000 1.0
C      1  0.4834900000000  0.5032650000000  0.4998500000000 1.0
END
