TITL C-3578199-7832-567 8.67953279646173e-07 125000 -806.923133925691 0 0 129 (C1) n - 1
REM
REM in /home/bkarasulu/work/CARBON/AIRSS/Generating-Clusters/EDIP-Nigel-Params/with-SteepDescent/Higher-Symm/SD-CG/HFTN-CG
REM
REM
REM
REM
REM
REM ./C.cell (12c818d87b63d06a65506943cc24bca4)
REM
REM compiler GCC version 9.2.1 20190827 (Red Hat 9.2.1-1)
REM options -cpp -mtune=generic -march=x86-64 -g -O0 -fpre-include=/usr/include/finclude/math-vector-fortran.h
REM seed 697668922 -2092923656 -937505187 1674589729 61838351 -1059914297 732876843 2017479324 1095934455 -563405706 946945968 1707029591 -699123220 1865746353 -1743797669 -1065437654 602008435 -1386181346 -2020260930 -1810829281 630940285 -454859728 1121318808 -1489591339 -441620707 -1839559297 1293609727 -451509701 -765260873 -2006537338 -508174865 2136908032 -1462343594
REM
CELL 1.54180   50.00000   50.00000   50.00000   90.00000   90.00000   90.00000
LATT -1
SFAC C  
C      1  0.6000260000000  0.4677280000000  0.4772630000000 1.0
C      1  0.4822250000000  0.5580740000000  0.5682960000000 1.0
C      1  0.4508260000000  0.4668180000000  0.4889020000000 1.0
C      1  0.4215520000000  0.5022760000000  0.4676100000000 1.0
C      1  0.5917390000000  0.5594400000000  0.5430040000000 1.0
C      1  0.4257290000000  0.5727900000000  0.5204890000000 1.0
C      1  0.5851460000000  0.4478440000000  0.4933430000000 1.0
C      1  0.5363550000000  0.4889790000000  0.4294440000000 1.0
C      1  0.5549730000000  0.5626790000000  0.5753900000000 1.0
C      1  0.5251090000000  0.5340000000000  0.4894060000000 1.0
C      1  0.4834690000000  0.5112450000000  0.5436060000000 1.0
C      1  0.5062590000000  0.4615680000000  0.5473610000000 1.0
C      1  0.5161950000000  0.4417810000000  0.4247030000000 1.0
C      1  0.5305230000000  0.4260580000000  0.4432530000000 1.0
C      1  0.5135140000000  0.4699850000000  0.4224670000000 1.0
C      1  0.4704670000000  0.5495310000000  0.4314380000000 1.0
C      1  0.4514070000000  0.5612350000000  0.4779200000000 1.0
C      1  0.5698200000000  0.4507460000000  0.4351410000000 1.0
C      1  0.4882380000000  0.5104320000000  0.5739890000000 1.0
C      1  0.5448810000000  0.4803330000000  0.4904510000000 1.0
C      1  0.4080880000000  0.5375480000000  0.4349300000000 1.0
C      1  0.5917400000000  0.4855090000000  0.5307200000000 1.0
C      1  0.4540470000000  0.4589460000000  0.4602710000000 1.0
C      1  0.4701690000000  0.5066370000000  0.4893290000000 1.0
C      1  0.5310230000000  0.4106340000000  0.4884430000000 1.0
C      1  0.5187200000000  0.4346740000000  0.5412020000000 1.0
C      1  0.4813400000000  0.5896730000000  0.4579150000000 1.0
C      1  0.4541560000000  0.5367350000000  0.5173480000000 1.0
C      1  0.5250190000000  0.5119940000000  0.5280170000000 1.0
C      1  0.4344500000000  0.4643330000000  0.5415920000000 1.0
C      1  0.4567170000000  0.4221230000000  0.5269240000000 1.0
C      1  0.4986070000000  0.5405830000000  0.4290280000000 1.0
C      1  0.5509530000000  0.5269880000000  0.5279060000000 1.0
C      1  0.4216650000000  0.4623210000000  0.4957370000000 1.0
C      1  0.4734270000000  0.3987250000000  0.4841620000000 1.0
C      1  0.5863610000000  0.5643400000000  0.4902140000000 1.0
C      1  0.4722250000000  0.4619280000000  0.5082350000000 1.0
C      1  0.5219480000000  0.5716080000000  0.5438170000000 1.0
C      1  0.4605320000000  0.4512400000000  0.5338060000000 1.0
C      1  0.4679930000000  0.4929610000000  0.5880840000000 1.0
C      1  0.5885260000000  0.4450380000000  0.5618290000000 1.0
C      1  0.5051210000000  0.4686310000000  0.4697930000000 1.0
C      1  0.4220530000000  0.5498960000000  0.4792370000000 1.0
C      1  0.4720270000000  0.5068880000000  0.4095960000000 1.0
C      1  0.5637230000000  0.5167190000000  0.5550130000000 1.0
C      1  0.4701020000000  0.5781960000000  0.5213640000000 1.0
C      1  0.5614570000000  0.4916130000000  0.4165390000000 1.0
C      1  0.5020330000000  0.5476480000000  0.5030150000000 1.0
C      1  0.4284940000000  0.5123240000000  0.5640210000000 1.0
C      1  0.5038420000000  0.5308750000000  0.5338940000000 1.0
C      1  0.5060900000000  0.4137630000000  0.5244390000000 1.0
C      1  0.5519760000000  0.4424720000000  0.4559480000000 1.0
C      1  0.4618460000000  0.5622670000000  0.5458830000000 1.0
C      1  0.5443820000000  0.4320610000000  0.5560770000000 1.0
C      1  0.4148350000000  0.5374740000000  0.5538620000000 1.0
C      1  0.5626700000000  0.5809390000000  0.4851730000000 1.0
C      1  0.4108350000000  0.4825210000000  0.4473620000000 1.0
C      1  0.4765610000000  0.5361820000000  0.5856810000000 1.0
C      1  0.5587700000000  0.4070950000000  0.4901140000000 1.0
C      1  0.4459080000000  0.5128430000000  0.5871970000000 1.0
C      1  0.5749830000000  0.5383020000000  0.4836700000000 1.0
C      1  0.4252740000000  0.4165530000000  0.4869600000000 1.0
C      1  0.4992990000000  0.4919120000000  0.4895900000000 1.0
C      1  0.4256240000000  0.5206490000000  0.4209090000000 1.0
C      1  0.4333160000000  0.4950630000000  0.5392390000000 1.0
C      1  0.4366020000000  0.4708990000000  0.4137240000000 1.0
C      1  0.4621380000000  0.5706850000000  0.4512670000000 1.0
C      1  0.5238290000000  0.5554100000000  0.4336540000000 1.0
C      1  0.5457060000000  0.4554550000000  0.5757940000000 1.0
C      1  0.5442450000000  0.5380290000000  0.4446240000000 1.0
C      1  0.4784970000000  0.4556700000000  0.5559880000000 1.0
C      1  0.5411000000000  0.5188740000000  0.5787960000000 1.0
C      1  0.4105590000000  0.4901560000000  0.4940260000000 1.0
C      1  0.4998050000000  0.5119870000000  0.4193370000000 1.0
C      1  0.4640950000000  0.4817030000000  0.4449560000000 1.0
C      1  0.4241480000000  0.5445750000000  0.5095600000000 1.0
C      1  0.5413850000000  0.5783540000000  0.5043540000000 1.0
C      1  0.4281460000000  0.4218580000000  0.5167880000000 1.0
C      1  0.5727190000000  0.4672050000000  0.5715280000000 1.0
C      1  0.5199850000000  0.4384160000000  0.4980070000000 1.0
C      1  0.5893680000000  0.4863390000000  0.4579890000000 1.0
C      1  0.5788630000000  0.4767040000000  0.4327830000000 1.0
C      1  0.5721220000000  0.4902220000000  0.4918980000000 1.0
C      1  0.5227940000000  0.4731020000000  0.5693580000000 1.0
C      1  0.5979580000000  0.5139830000000  0.5240650000000 1.0
C      1  0.5113650000000  0.5783550000000  0.4970580000000 1.0
C      1  0.5462530000000  0.5619470000000  0.5295250000000 1.0
C      1  0.4950390000000  0.4820470000000  0.4440660000000 1.0
C      1  0.4107730000000  0.5297210000000  0.4617620000000 1.0
C      1  0.4100630000000  0.5017460000000  0.5214610000000 1.0
C      1  0.5974470000000  0.5649800000000  0.5160240000000 1.0
C      1  0.5709070000000  0.4349750000000  0.5414280000000 1.0
C      1  0.5176400000000  0.5003300000000  0.5798320000000 1.0
C      1  0.4545450000000  0.5259210000000  0.4223580000000 1.0
C      1  0.5710560000000  0.4878650000000  0.5506660000000 1.0
C      1  0.4263740000000  0.4553410000000  0.4479800000000 1.0
C      1  0.4530660000000  0.5031200000000  0.4642000000000 1.0
C      1  0.5477250000000  0.5475350000000  0.4736530000000 1.0
C      1  0.5095790000000  0.5504340000000  0.5580150000000 1.0
C      1  0.4662470000000  0.4674770000000  0.5777160000000 1.0
C      1  0.4470360000000  0.4022030000000  0.4763190000000 1.0
C      1  0.4804300000000  0.4163900000000  0.5077670000000 1.0
C      1  0.5094450000000  0.5965150000000  0.5402350000000 1.0
C      1  0.4171550000000  0.4495930000000  0.5227050000000 1.0
C      1  0.4137230000000  0.4421180000000  0.4739030000000 1.0
C      1  0.4590850000000  0.5078440000000  0.5262620000000 1.0
C      1  0.4167610000000  0.4914900000000  0.4201300000000 1.0
C      1  0.4490200000000  0.5820020000000  0.5018760000000 1.0
C      1  0.5355290000000  0.4663500000000  0.4673560000000 1.0
C      1  0.4621750000000  0.4801560000000  0.4062810000000 1.0
C      1  0.4039400000000  0.5299790000000  0.5259160000000 1.0
C      1  0.5190870000000  0.4059600000000  0.4618870000000 1.0
C      1  0.4883100000000  0.4422800000000  0.4928820000000 1.0
C      1  0.5067790000000  0.5880260000000  0.4685750000000 1.0
C      1  0.5172460000000  0.5111330000000  0.4749240000000 1.0
C      1  0.4315120000000  0.5640830000000  0.5498630000000 1.0
C      1  0.4947560000000  0.5934950000000  0.5167580000000 1.0
C      1  0.5919730000000  0.5302000000000  0.5491200000000 1.0
C      1  0.5736600000000  0.5181380000000  0.5058780000000 1.0
C      1  0.5129180000000  0.4842330000000  0.5206210000000 1.0
C      1  0.5276160000000  0.5128770000000  0.4463220000000 1.0
C      1  0.4726960000000  0.5391100000000  0.4925610000000 1.0
C      1  0.5695730000000  0.4289450000000  0.4767220000000 1.0
C      1  0.5366530000000  0.4628170000000  0.5120870000000 1.0
C      1  0.5237160000000  0.5786990000000  0.4489250000000 1.0
C      1  0.4919840000000  0.3991550000000  0.4634940000000 1.0
C      1  0.5697550000000  0.4568010000000  0.5194890000000 1.0
C      1  0.5321350000000  0.5461340000000  0.5788300000000 1.0
C      1  0.5658090000000  0.5708830000000  0.5505140000000 1.0
END
