TITL C-3577089-586-122 -3.71376438638394e-06 125000 -1091.64118704787 0 0 175 (C1) n - 1
REM
REM in /home/bkarasulu/work/CARBON/AIRSS/Generating-Clusters/EDIP-Nigel-Params/with-SteepDescent/Higher-Symm/SD-CG/HFTN-CG
REM
REM
REM
REM
REM
REM ./C.cell (12c818d87b63d06a65506943cc24bca4)
REM
REM compiler GCC version 9.2.1 20190827 (Red Hat 9.2.1-1)
REM options -cpp -mtune=generic -march=x86-64 -g -O0 -fpre-include=/usr/include/finclude/math-vector-fortran.h
REM seed 545961572 1276743324 1752497495 1541005601 -527353725 -1888699817 387812738 -1441324089 -1448037311 1685393914 -1275264836 -1654892984 -1270270121 -426273385 1963459577 -804683395 2101865724 442360936 355908743 -1446060652 808007839 -1279598155 2025847071 11876967 -2124329968 1000080234 421915775 -1513838094 362897505 985325563 -2042175833 -726276627 -385652997
REM
CELL 1.54180   50.00000   50.00000   50.00000   90.00000   90.00000   90.00000
LATT -1
SFAC C  
C      1  0.5416190000000  0.5946880000000  0.5261510000000 1.0
C      1  0.6010380000000  0.5262770000000  0.5288180000000 1.0
C      1  0.5848780000000  0.4357080000000  0.5283180000000 1.0
C      1  0.5042870000000  0.3952660000000  0.5270540000000 1.0
C      1  0.4191130000000  0.4314920000000  0.5288270000000 1.0
C      1  0.3971310000000  0.5185530000000  0.5260630000000 1.0
C      1  0.4508660000000  0.5933510000000  0.5290390000000 1.0
C      1  0.5190320000000  0.5692100000000  0.4407660000000 1.0
C      1  0.5622100000000  0.5222240000000  0.4399010000000 1.0
C      1  0.5619810000000  0.4682670000000  0.4403180000000 1.0
C      1  0.5094950000000  0.4336820000000  0.4404810000000 1.0
C      1  0.4556640000000  0.4527470000000  0.4399870000000 1.0
C      1  0.4289280000000  0.5035220000000  0.4425040000000 1.0
C      1  0.4642220000000  0.5551850000000  0.4399390000000 1.0
C      1  0.5643950000000  0.5270370000000  0.4705420000000 1.0
C      1  0.5651120000000  0.4705770000000  0.4703070000000 1.0
C      1  0.5128860000000  0.4318170000000  0.4712900000000 1.0
C      1  0.4558630000000  0.4481180000000  0.4709820000000 1.0
C      1  0.4261300000000  0.5022720000000  0.4725740000000 1.0
C      1  0.4588910000000  0.5575020000000  0.4704840000000 1.0
C      1  0.5180390000000  0.5723880000000  0.4708570000000 1.0
C      1  0.5676920000000  0.4266400000000  0.4649910000000 1.0
C      1  0.4813020000000  0.4002280000000  0.4626220000000 1.0
C      1  0.4120720000000  0.4422760000000  0.4607360000000 1.0
C      1  0.4077070000000  0.5420810000000  0.4621830000000 1.0
C      1  0.4638760000000  0.6006800000000  0.4606300000000 1.0
C      1  0.5616260000000  0.5798150000000  0.4615460000000 1.0
C      1  0.6041720000000  0.5082830000000  0.4618630000000 1.0
C      1  0.5338340000000  0.4523320000000  0.5147260000000 1.0
C      1  0.4812920000000  0.4437540000000  0.5162310000000 1.0
C      1  0.4431850000000  0.4792940000000  0.5194680000000 1.0
C      1  0.4475780000000  0.5322300000000  0.5148470000000 1.0
C      1  0.4915260000000  0.5629330000000  0.5169370000000 1.0
C      1  0.5408880000000  0.5453030000000  0.5123820000000 1.0
C      1  0.5621340000000  0.4970520000000  0.5174310000000 1.0
C      1  0.4983590000000  0.5793490000000  0.4220030000000 1.0
C      1  0.5591010000000  0.5471390000000  0.4219860000000 1.0
C      1  0.5779230000000  0.4847310000000  0.4217930000000 1.0
C      1  0.5353990000000  0.4298370000000  0.4238630000000 1.0
C      1  0.4683890000000  0.4302450000000  0.4225520000000 1.0
C      1  0.4226540000000  0.4810730000000  0.4241380000000 1.0
C      1  0.4396770000000  0.5480460000000  0.4229510000000 1.0
C      1  0.4954120000000  0.4410580000000  0.5962810000000 1.0
C      1  0.4499590000000  0.4654820000000  0.6001050000000 1.0
C      1  0.4452980000000  0.5157630000000  0.5958670000000 1.0
C      1  0.4795620000000  0.5523640000000  0.5954410000000 1.0
C      1  0.5305080000000  0.5498800000000  0.5982900000000 1.0
C      1  0.5578320000000  0.5080390000000  0.5962720000000 1.0
C      1  0.5453740000000  0.4586180000000  0.5999230000000 1.0
C      1  0.5056150000000  0.5649690000000  0.5865470000000 1.0
C      1  0.5586960000000  0.5381020000000  0.5899160000000 1.0
C      1  0.5630310000000  0.4796640000000  0.5871020000000 1.0
C      1  0.5252670000000  0.4371160000000  0.5870330000000 1.0
C      1  0.4665370000000  0.4412550000000  0.5874640000000 1.0
C      1  0.4295880000000  0.4901460000000  0.5904640000000 1.0
C      1  0.4520210000000  0.5437200000000  0.5863620000000 1.0
C      1  0.5170860000000  0.5268670000000  0.6101500000000 1.0
C      1  0.5339060000000  0.5037670000000  0.6121810000000 1.0
C      1  0.5245930000000  0.4766200000000  0.6096580000000 1.0
C      1  0.4978570000000  0.4655530000000  0.6116590000000 1.0
C      1  0.4726270000000  0.4800860000000  0.6124360000000 1.0
C      1  0.4687030000000  0.5085540000000  0.6111630000000 1.0
C      1  0.4884350000000  0.5296270000000  0.6113230000000 1.0
C      1  0.4575150000000  0.4277350000000  0.5627700000000 1.0
C      1  0.4163720000000  0.4880340000000  0.5634020000000 1.0
C      1  0.4396190000000  0.5552870000000  0.5621830000000 1.0
C      1  0.5076420000000  0.5831150000000  0.5635820000000 1.0
C      1  0.5697400000000  0.5468320000000  0.5639230000000 1.0
C      1  0.5802270000000  0.4734560000000  0.5639860000000 1.0
C      1  0.5309180000000  0.4215710000000  0.5610340000000 1.0
C      1  0.6073940000000  0.4827240000000  0.4753950000000 1.0
C      1  0.5551950000000  0.4028300000000  0.4755570000000 1.0
C      1  0.4548370000000  0.3984210000000  0.4742530000000 1.0
C      1  0.3947930000000  0.4583880000000  0.4757700000000 1.0
C      1  0.4106290000000  0.5687070000000  0.4731290000000 1.0
C      1  0.4830820000000  0.6122920000000  0.4773400000000 1.0
C      1  0.5867240000000  0.5706400000000  0.4731020000000 1.0
C      1  0.4447160000000  0.5303080000000  0.4830930000000 1.0
C      1  0.4896230000000  0.5617340000000  0.4857680000000 1.0
C      1  0.5398520000000  0.5474770000000  0.4822170000000 1.0
C      1  0.5595200000000  0.4989500000000  0.4860610000000 1.0
C      1  0.5366100000000  0.4518060000000  0.4834220000000 1.0
C      1  0.4844340000000  0.4432170000000  0.4857730000000 1.0
C      1  0.4428660000000  0.4777150000000  0.4879780000000 1.0
C      1  0.5334810000000  0.4994520000000  0.5281710000000 1.0
C      1  0.5177650000000  0.4761640000000  0.5183850000000 1.0
C      1  0.4907420000000  0.4694810000000  0.5286950000000 1.0
C      1  0.4696940000000  0.4913450000000  0.5265630000000 1.0
C      1  0.4736390000000  0.5184440000000  0.5146560000000 1.0
C      1  0.4955530000000  0.5347350000000  0.5267810000000 1.0
C      1  0.5221320000000  0.5251610000000  0.5193460000000 1.0
C      1  0.4913170000000  0.5321770000000  0.4313980000000 1.0
C      1  0.5181170000000  0.5251200000000  0.4427310000000 1.0
C      1  0.5335130000000  0.5011190000000  0.4320750000000 1.0
C      1  0.5192740000000  0.4783920000000  0.4446540000000 1.0
C      1  0.4980840000000  0.4622340000000  0.4329030000000 1.0
C      1  0.4666980000000  0.4848860000000  0.4299360000000 1.0
C      1  0.4724030000000  0.5116720000000  0.4418880000000 1.0
C      1  0.5227750000000  0.5297210000000  0.5662470000000 1.0
C      1  0.5357990000000  0.4997890000000  0.5588860000000 1.0
C      1  0.5221680000000  0.4700470000000  0.5658730000000 1.0
C      1  0.4914080000000  0.4635020000000  0.5582920000000 1.0
C      1  0.4664260000000  0.4809800000000  0.5686140000000 1.0
C      1  0.4675760000000  0.5133750000000  0.5581190000000 1.0
C      1  0.4922920000000  0.5353200000000  0.5568280000000 1.0
C      1  0.5871990000000  0.5719030000000  0.5034300000000 1.0
C      1  0.6076840000000  0.4782470000000  0.5042140000000 1.0
C      1  0.5525990000000  0.3994200000000  0.5041490000000 1.0
C      1  0.4534490000000  0.3978070000000  0.5046390000000 1.0
C      1  0.3921910000000  0.4681560000000  0.5017560000000 1.0
C      1  0.4099010000000  0.5686480000000  0.5034290000000 1.0
C      1  0.4937850000000  0.6105240000000  0.5030830000000 1.0
C      1  0.5716000000000  0.4126250000000  0.5199140000000 1.0
C      1  0.4775060000000  0.3946900000000  0.5188960000000 1.0
C      1  0.3993230000000  0.4498800000000  0.5212410000000 1.0
C      1  0.4004180000000  0.5447960000000  0.5155280000000 1.0
C      1  0.4755030000000  0.6060320000000  0.5238800000000 1.0
C      1  0.5667560000000  0.5868130000000  0.5158430000000 1.0
C      1  0.6063720000000  0.4997230000000  0.5220750000000 1.0
C      1  0.4386510000000  0.4714890000000  0.5510030000000 1.0
C      1  0.4411520000000  0.5289350000000  0.5457920000000 1.0
C      1  0.4849940000000  0.5722250000000  0.5473860000000 1.0
C      1  0.5426780000000  0.5498090000000  0.5494200000000 1.0
C      1  0.5726190000000  0.4985100000000  0.5483680000000 1.0
C      1  0.5380520000000  0.4483870000000  0.5469850000000 1.0
C      1  0.4816990000000  0.4290160000000  0.5442800000000 1.0
C      1  0.3964850000000  0.4971600000000  0.5053050000000 1.0
C      1  0.4374130000000  0.5805700000000  0.5064510000000 1.0
C      1  0.5215110000000  0.6007400000000  0.5050080000000 1.0
C      1  0.5905830000000  0.5425020000000  0.5071890000000 1.0
C      1  0.5907030000000  0.4544260000000  0.5071270000000 1.0
C      1  0.5237620000000  0.4027780000000  0.5070970000000 1.0
C      1  0.4368570000000  0.4225410000000  0.5070070000000 1.0
C      1  0.4637300000000  0.4902380000000  0.3991160000000 1.0
C      1  0.4693340000000  0.5195470000000  0.3915900000000 1.0
C      1  0.4951130000000  0.5332600000000  0.4011150000000 1.0
C      1  0.5231590000000  0.5225680000000  0.3921870000000 1.0
C      1  0.5342510000000  0.4956030000000  0.4017230000000 1.0
C      1  0.5205270000000  0.4690330000000  0.3928530000000 1.0
C      1  0.4926650000000  0.4642070000000  0.4022670000000 1.0
C      1  0.5887580000000  0.5089090000000  0.4353980000000 1.0
C      1  0.5600960000000  0.4382350000000  0.4383500000000 1.0
C      1  0.4878710000000  0.4131670000000  0.4369290000000 1.0
C      1  0.4260320000000  0.4535300000000  0.4358490000000 1.0
C      1  0.4194830000000  0.5314640000000  0.4373620000000 1.0
C      1  0.4718950000000  0.5838140000000  0.4355300000000 1.0
C      1  0.5485900000000  0.5710510000000  0.4363860000000 1.0
C      1  0.4141690000000  0.5148770000000  0.5502770000000 1.0
C      1  0.4487910000000  0.5818540000000  0.5553440000000 1.0
C      1  0.5344420000000  0.5794950000000  0.5510790000000 1.0
C      1  0.5920140000000  0.5303550000000  0.5558260000000 1.0
C      1  0.5752370000000  0.4470870000000  0.5530610000000 1.0
C      1  0.5089810000000  0.4046000000000  0.5536780000000 1.0
C      1  0.4327530000000  0.4415380000000  0.5534820000000 1.0
C      1  0.5328240000000  0.5975580000000  0.4788050000000 1.0
C      1  0.5923620000000  0.5366950000000  0.4768970000000 1.0
C      1  0.5873510000000  0.4495470000000  0.4776600000000 1.0
C      1  0.5165340000000  0.4027050000000  0.4785000000000 1.0
C      1  0.4353190000000  0.4265620000000  0.4760660000000 1.0
C      1  0.3978490000000  0.5096390000000  0.4796490000000 1.0
C      1  0.4419090000000  0.5820760000000  0.4755760000000 1.0
C      1  0.4952620000000  0.5626280000000  0.3988600000000 1.0
C      1  0.5432030000000  0.5410980000000  0.3992560000000 1.0
C      1  0.5631870000000  0.4919600000000  0.3983610000000 1.0
C      1  0.5338580000000  0.4454260000000  0.4002660000000 1.0
C      1  0.4796810000000  0.4387930000000  0.3976590000000 1.0
C      1  0.4354010000000  0.4838890000000  0.3987860000000 1.0
C      1  0.4477570000000  0.5358470000000  0.3988630000000 1.0
C      1  0.4931230000000  0.5313610000000  0.4825060000000 1.0
C      1  0.5197330000000  0.5255720000000  0.4722420000000 1.0
C      1  0.5302430000000  0.5005310000000  0.4836090000000 1.0
C      1  0.5193110000000  0.4763640000000  0.4733480000000 1.0
C      1  0.4920310000000  0.4710940000000  0.4827020000000 1.0
C      1  0.4698920000000  0.4885480000000  0.4823280000000 1.0
C      1  0.4705920000000  0.5145080000000  0.4706690000000 1.0
END
