TITL C-3578206-1180-694 0.000410242722611639 125000 -389.574404508046 0 0 65 (C1) n - 1
REM
REM in /home/bkarasulu/work/CARBON/AIRSS/Generating-Clusters/EDIP-Nigel-Params/with-SteepDescent/Higher-Symm/SD-CG/HFTN-CG
REM
REM
REM
REM
REM
REM ./C.cell (12c818d87b63d06a65506943cc24bca4)
REM
REM compiler GCC version 9.2.1 20190827 (Red Hat 9.2.1-1)
REM options -cpp -mtune=generic -march=x86-64 -g -O0 -fpre-include=/usr/include/finclude/math-vector-fortran.h
REM seed 1662738446 1564945265 1534427841 -1627299596 -2064820362 -927691004 983536739 -990440523 507924873 448674576 1307577096 1190613213 -555547270 -1764368497 -685418744 -1891260940 -1568520725 -922171670 1487538698 -1937216176 -546969673 -127971499 -33944379 -585421807 404938644 -763309175 1682990872 -1869186276 1026213488 -959490141 745922964 -125077746 -2099537826
REM
CELL 1.54180   50.00000   50.00000   50.00000   90.00000   90.00000   90.00000
LATT -1
SFAC C  
C      1  0.5556160000000  0.4411730000000  0.4797650000000 1.0
C      1  0.5535280000000  0.5466060000000  0.4623720000000 1.0
C      1  0.5554010000000  0.5096970000000  0.5609420000000 1.0
C      1  0.5136460000000  0.4179210000000  0.4979650000000 1.0
C      1  0.5130290000000  0.5410870000000  0.4309000000000 1.0
C      1  0.5159940000000  0.5395380000000  0.5716150000000 1.0
C      1  0.5656840000000  0.4920900000000  0.4843890000000 1.0
C      1  0.5632510000000  0.5171500000000  0.5021400000000 1.0
C      1  0.5659920000000  0.4891930000000  0.5148390000000 1.0
C      1  0.4837350000000  0.4813680000000  0.4719410000000 1.0
C      1  0.4844320000000  0.5309990000000  0.5006530000000 1.0
C      1  0.4828400000000  0.4857790000000  0.5277080000000 1.0
C      1  0.5054240000000  0.5155040000000  0.4187950000000 1.0
C      1  0.5089680000000  0.5625670000000  0.5546490000000 1.0
C      1  0.5049740000000  0.4218510000000  0.5257150000000 1.0
C      1  0.5002080000000  0.4524620000000  0.5736390000000 1.0
C      1  0.5040700000000  0.4593020000000  0.4198700000000 1.0
C      1  0.5029370000000  0.5880050000000  0.5029790000000 1.0
C      1  0.5389700000000  0.4634270000000  0.5466410000000 1.0
C      1  0.5408970000000  0.4762930000000  0.4453930000000 1.0
C      1  0.5417920000000  0.5591740000000  0.5081850000000 1.0
C      1  0.4850790000000  0.4418930000000  0.5287980000000 1.0
C      1  0.4853170000000  0.5019130000000  0.4336580000000 1.0
C      1  0.4886930000000  0.5558820000000  0.5359370000000 1.0
C      1  0.5058360000000  0.4957700000000  0.5465210000000 1.0
C      1  0.5069220000000  0.4605990000000  0.4715200000000 1.0
C      1  0.5061510000000  0.5420850000000  0.4806880000000 1.0
C      1  0.4502440000000  0.4663550000000  0.4940790000000 1.0
C      1  0.4522230000000  0.5161290000000  0.4758530000000 1.0
C      1  0.4551760000000  0.5153070000000  0.5293910000000 1.0
C      1  0.5571250000000  0.4867550000000  0.5431180000000 1.0
C      1  0.5582410000000  0.4681080000000  0.4683010000000 1.0
C      1  0.5597990000000  0.5439500000000  0.4904500000000 1.0
C      1  0.4655930000000  0.4579850000000  0.4467160000000 1.0
C      1  0.4636720000000  0.5630320000000  0.4932300000000 1.0
C      1  0.4595070000000  0.4719440000000  0.5581880000000 1.0
C      1  0.4814910000000  0.4732290000000  0.4287930000000 1.0
C      1  0.4816640000000  0.5730030000000  0.5132820000000 1.0
C      1  0.4790080000000  0.4518460000000  0.5554620000000 1.0
C      1  0.5263120000000  0.5035040000000  0.4488290000000 1.0
C      1  0.5292800000000  0.5405640000000  0.5302750000000 1.0
C      1  0.5266910000000  0.4530970000000  0.5200200000000 1.0
C      1  0.5418280000000  0.4305890000000  0.5021260000000 1.0
C      1  0.5417050000000  0.5322820000000  0.4403230000000 1.0
C      1  0.5437000000000  0.5351070000000  0.5585090000000 1.0
C      1  0.4469890000000  0.4901340000000  0.5413310000000 1.0
C      1  0.4480830000000  0.4686790000000  0.4653570000000 1.0
C      1  0.4482180000000  0.5394250000000  0.4931030000000 1.0
C      1  0.5275240000000  0.4712200000000  0.4927270000000 1.0
C      1  0.5267540000000  0.5187650000000  0.4776760000000 1.0
C      1  0.5279020000000  0.5077800000000  0.5274810000000 1.0
C      1  0.4945670000000  0.5187140000000  0.5626220000000 1.0
C      1  0.4934310000000  0.4364730000000  0.4833340000000 1.0
C      1  0.4923630000000  0.5438410000000  0.4539040000000 1.0
C      1  0.4748560000000  0.4504310000000  0.5029320000000 1.0
C      1  0.4739430000000  0.5197650000000  0.4541760000000 1.0
C      1  0.4753170000000  0.5316770000000  0.5438780000000 1.0
C      1  0.5197790000000  0.4563930000000  0.4433910000000 1.0
C      1  0.5195620000000  0.5683930000000  0.4907850000000 1.0
C      1  0.5172340000000  0.4728740000000  0.5637820000000 1.0
C      1  0.3870100000000  0.4990430000000  0.5028620000000 1.0
C      1  0.4888880000000  0.4991860000000  0.4996280000000 1.0
C      1  0.4123840000000  0.4974870000000  0.4994840000000 1.0
C      1  0.5191840000000  0.4992710000000  0.4994850000000 1.0
C      1  0.4406820000000  0.4962850000000  0.4987730000000 1.0
END
