TITL C-3578209-2550-549 1.47063679466913e-06 125000 -931.455413151539 0 0 149 (C1) n - 1
REM
REM in /home/bkarasulu/work/CARBON/AIRSS/Generating-Clusters/EDIP-Nigel-Params/with-SteepDescent/Higher-Symm/SD-CG/HFTN-CG
REM
REM
REM
REM
REM
REM ./C.cell (12c818d87b63d06a65506943cc24bca4)
REM
REM compiler GCC version 9.2.1 20190827 (Red Hat 9.2.1-1)
REM options -cpp -mtune=generic -march=x86-64 -g -O0 -fpre-include=/usr/include/finclude/math-vector-fortran.h
REM seed 82982854 -952586903 -120887852 -172976801 -315594979 -1425053277 1581902802 1919048184 928975293 661613205 182407912 1633758978 -419475484 -681374764 -1791836921 1897224609 1288499623 801830213 -91846970 -1663814197 -1558675633 523189927 -262134386 -2043531323 -2135318316 366913079 172630798 -941926452 -871725958 -1599912238 350429576 -1505777132 946924847
REM
CELL 1.54180   50.00000   50.00000   50.00000   90.00000   90.00000   90.00000
LATT -1
SFAC C  
C      1  0.5063260000000  0.5009330000000  0.4590910000000 1.0
C      1  0.4936540000000  0.5321150000000  0.4945830000000 1.0
C      1  0.4897880000000  0.5181490000000  0.5416300000000 1.0
C      1  0.4848240000000  0.4673430000000  0.5347280000000 1.0
C      1  0.4929300000000  0.4490880000000  0.4729020000000 1.0
C      1  0.4955700000000  0.5479050000000  0.5409820000000 1.0
C      1  0.4894310000000  0.4782900000000  0.5641580000000 1.0
C      1  0.4899970000000  0.4331260000000  0.5001190000000 1.0
C      1  0.4781580000000  0.4531860000000  0.4255980000000 1.0
C      1  0.4973020000000  0.5483460000000  0.4687220000000 1.0
C      1  0.5182090000000  0.4650740000000  0.4016270000000 1.0
C      1  0.5182710000000  0.5822750000000  0.4396600000000 1.0
C      1  0.5174160000000  0.5789240000000  0.5550620000000 1.0
C      1  0.5163760000000  0.4673490000000  0.5971510000000 1.0
C      1  0.5136160000000  0.3970260000000  0.4990470000000 1.0
C      1  0.4812350000000  0.6021500000000  0.4902220000000 1.0
C      1  0.4789520000000  0.5360790000000  0.5950750000000 1.0
C      1  0.4788300000000  0.4211860000000  0.5646870000000 1.0
C      1  0.4732630000000  0.4075980000000  0.4503070000000 1.0
C      1  0.4777250000000  0.5239550000000  0.4056450000000 1.0
C      1  0.5247430000000  0.4658530000000  0.5148770000000 1.0
C      1  0.5220230000000  0.4572270000000  0.4711580000000 1.0
C      1  0.5382600000000  0.5340570000000  0.4656860000000 1.0
C      1  0.5302410000000  0.5640460000000  0.5061380000000 1.0
C      1  0.5400260000000  0.4988540000000  0.5506230000000 1.0
C      1  0.5287750000000  0.4255180000000  0.4295770000000 1.0
C      1  0.5248590000000  0.5433200000000  0.4136890000000 1.0
C      1  0.5279020000000  0.5944500000000  0.5113190000000 1.0
C      1  0.5245470000000  0.5155190000000  0.5977900000000 1.0
C      1  0.5253670000000  0.4160820000000  0.5427920000000 1.0
C      1  0.4460850000000  0.4852590000000  0.4089730000000 1.0
C      1  0.4641600000000  0.5731020000000  0.4524190000000 1.0
C      1  0.4546490000000  0.5697610000000  0.5682790000000 1.0
C      1  0.4594280000000  0.4620740000000  0.5879030000000 1.0
C      1  0.4536230000000  0.4036940000000  0.4959470000000 1.0
C      1  0.5909090000000  0.5320770000000  0.4996380000000 1.0
C      1  0.5792560000000  0.5151110000000  0.5198060000000 1.0
C      1  0.5900130000000  0.4887230000000  0.5171320000000 1.0
C      1  0.5987540000000  0.4865290000000  0.4891390000000 1.0
C      1  0.6020800000000  0.5143670000000  0.4798170000000 1.0
C      1  0.3970220000000  0.4583900000000  0.5233370000000 1.0
C      1  0.3973080000000  0.4629640000000  0.4632710000000 1.0
C      1  0.3930180000000  0.5194530000000  0.4591690000000 1.0
C      1  0.4049750000000  0.5411700000000  0.5011130000000 1.0
C      1  0.3961900000000  0.5101370000000  0.5511340000000 1.0
C      1  0.5542690000000  0.4267750000000  0.5020350000000 1.0
C      1  0.5584710000000  0.4659690000000  0.4295100000000 1.0
C      1  0.5632730000000  0.5622880000000  0.4516430000000 1.0
C      1  0.5653260000000  0.5768650000000  0.5358840000000 1.0
C      1  0.5564520000000  0.4851570000000  0.5742140000000 1.0
C      1  0.5344110000000  0.4093720000000  0.5151910000000 1.0
C      1  0.5371150000000  0.4514610000000  0.4188700000000 1.0
C      1  0.5394770000000  0.5636590000000  0.4322550000000 1.0
C      1  0.5406480000000  0.5923320000000  0.5396230000000 1.0
C      1  0.5368300000000  0.4884640000000  0.5958710000000 1.0
C      1  0.5772960000000  0.4457230000000  0.4640110000000 1.0
C      1  0.5695630000000  0.5094510000000  0.4467570000000 1.0
C      1  0.5833200000000  0.5809740000000  0.4937030000000 1.0
C      1  0.5747390000000  0.5258450000000  0.5668230000000 1.0
C      1  0.5820630000000  0.4475290000000  0.5437560000000 1.0
C      1  0.4960610000000  0.4241880000000  0.5863250000000 1.0
C      1  0.4920330000000  0.3880540000000  0.4573560000000 1.0
C      1  0.4918770000000  0.5052750000000  0.3904390000000 1.0
C      1  0.4957380000000  0.6134800000000  0.4691300000000 1.0
C      1  0.4959360000000  0.5580410000000  0.5951930000000 1.0
C      1  0.5159070000000  0.3959730000000  0.4699370000000 1.0
C      1  0.5150060000000  0.4946890000000  0.4013020000000 1.0
C      1  0.5201860000000  0.6021780000000  0.4617860000000 1.0
C      1  0.5197340000000  0.5637550000000  0.5819820000000 1.0
C      1  0.5186380000000  0.4405180000000  0.5856970000000 1.0
C      1  0.5586220000000  0.5092970000000  0.4212790000000 1.0
C      1  0.5665690000000  0.5969550000000  0.4781880000000 1.0
C      1  0.5640940000000  0.5438710000000  0.5848580000000 1.0
C      1  0.5617460000000  0.4516470000000  0.5655200000000 1.0
C      1  0.5608550000000  0.4214350000000  0.4724060000000 1.0
C      1  0.5301920000000  0.4785840000000  0.4525190000000 1.0
C      1  0.5328220000000  0.5623830000000  0.4759470000000 1.0
C      1  0.5556890000000  0.5534580000000  0.5201040000000 1.0
C      1  0.5438450000000  0.4757400000000  0.5328280000000 1.0
C      1  0.5410830000000  0.4547070000000  0.4939810000000 1.0
C      1  0.4767700000000  0.4960090000000  0.4584630000000 1.0
C      1  0.4626460000000  0.5280430000000  0.5066030000000 1.0
C      1  0.4635910000000  0.5060870000000  0.5290840000000 1.0
C      1  0.4657180000000  0.4776040000000  0.5133780000000 1.0
C      1  0.4700390000000  0.4721400000000  0.4748890000000 1.0
C      1  0.5054310000000  0.4204650000000  0.4135230000000 1.0
C      1  0.4950040000000  0.5483320000000  0.4139060000000 1.0
C      1  0.4983730000000  0.6006620000000  0.5150820000000 1.0
C      1  0.4948510000000  0.5095310000000  0.5958110000000 1.0
C      1  0.4951310000000  0.4135360000000  0.5399530000000 1.0
C      1  0.4362840000000  0.5208120000000  0.4354100000000 1.0
C      1  0.4434590000000  0.5700880000000  0.4957690000000 1.0
C      1  0.4355760000000  0.5258210000000  0.5693510000000 1.0
C      1  0.4379720000000  0.4461810000000  0.5438390000000 1.0
C      1  0.4338410000000  0.4365320000000  0.4630050000000 1.0
C      1  0.4126940000000  0.4619890000000  0.5465810000000 1.0
C      1  0.4101350000000  0.4430690000000  0.4792820000000 1.0
C      1  0.4118230000000  0.5053390000000  0.4426790000000 1.0
C      1  0.4261380000000  0.5494470000000  0.4819360000000 1.0
C      1  0.4123280000000  0.5340530000000  0.5523020000000 1.0
C      1  0.5361160000000  0.4132620000000  0.4563520000000 1.0
C      1  0.5335580000000  0.5148520000000  0.4113380000000 1.0
C      1  0.5401900000000  0.6049690000000  0.4839440000000 1.0
C      1  0.5365570000000  0.5398270000000  0.5848680000000 1.0
C      1  0.5368890000000  0.4350480000000  0.5638200000000 1.0
C      1  0.5773950000000  0.4289810000000  0.5209120000000 1.0
C      1  0.5803020000000  0.4507660000000  0.4368120000000 1.0
C      1  0.5799020000000  0.5359010000000  0.4571200000000 1.0
C      1  0.5852710000000  0.5893340000000  0.5205090000000 1.0
C      1  0.5805590000000  0.5007790000000  0.5779500000000 1.0
C      1  0.4488410000000  0.4099900000000  0.4673430000000 1.0
C      1  0.4499760000000  0.5130700000000  0.4106720000000 1.0
C      1  0.4668990000000  0.5781660000000  0.4810220000000 1.0
C      1  0.4565960000000  0.5436960000000  0.5777720000000 1.0
C      1  0.4606010000000  0.4446240000000  0.5639030000000 1.0
C      1  0.4887700000000  0.4327870000000  0.4453170000000 1.0
C      1  0.5136290000000  0.5287810000000  0.4483310000000 1.0
C      1  0.5070670000000  0.5483920000000  0.5142760000000 1.0
C      1  0.5073700000000  0.5030210000000  0.5594650000000 1.0
C      1  0.5031000000000  0.4482190000000  0.5236900000000 1.0
C      1  0.4902120000000  0.4780970000000  0.6048990000000 1.0
C      1  0.4874280000000  0.3966230000000  0.5137610000000 1.0
C      1  0.4946850000000  0.4463500000000  0.4022930000000 1.0
C      1  0.4923800000000  0.5754150000000  0.4272650000000 1.0
C      1  0.4904780000000  0.5895790000000  0.5419190000000 1.0
C      1  0.5708310000000  0.4672500000000  0.5234040000000 1.0
C      1  0.5723930000000  0.4714060000000  0.4804680000000 1.0
C      1  0.5541130000000  0.4925710000000  0.4667940000000 1.0
C      1  0.5719250000000  0.5535650000000  0.4928330000000 1.0
C      1  0.5595290000000  0.5236810000000  0.5411170000000 1.0
C      1  0.4683590000000  0.5673320000000  0.5422900000000 1.0
C      1  0.4606020000000  0.4895900000000  0.5761210000000 1.0
C      1  0.4607670000000  0.4304070000000  0.5047460000000 1.0
C      1  0.4516960000000  0.4637790000000  0.4260680000000 1.0
C      1  0.4730310000000  0.5449880000000  0.4520590000000 1.0
C      1  0.4436040000000  0.5012950000000  0.5554240000000 1.0
C      1  0.4446500000000  0.4536970000000  0.5153990000000 1.0
C      1  0.4446490000000  0.4642710000000  0.4555030000000 1.0
C      1  0.4570780000000  0.5199690000000  0.4574500000000 1.0
C      1  0.4493710000000  0.5533130000000  0.5196940000000 1.0
C      1  0.4167440000000  0.4901560000000  0.5503610000000 1.0
C      1  0.4173290000000  0.4612180000000  0.5025280000000 1.0
C      1  0.4194580000000  0.4825310000000  0.4612900000000 1.0
C      1  0.4423000000000  0.5225670000000  0.4839060000000 1.0
C      1  0.4222290000000  0.5408860000000  0.5256080000000 1.0
C      1  0.3974110000000  0.5157230000000  0.4872990000000 1.0
C      1  0.5104680000000  0.5071900000000  0.4888410000000 1.0
C      1  0.4217290000000  0.4973730000000  0.4885450000000 1.0
C      1  0.5398740000000  0.5119920000000  0.4866910000000 1.0
END
