TITL C-3578196-9646-113 -2.12069039114406e-06 125000 -324.484352445885 0 0 54 (C1) n - 1
REM
REM in /home/bkarasulu/work/CARBON/AIRSS/Generating-Clusters/EDIP-Nigel-Params/with-SteepDescent/Higher-Symm/SD-CG/HFTN-CG
REM
REM
REM
REM
REM
REM ./C.cell (12c818d87b63d06a65506943cc24bca4)
REM
REM compiler GCC version 9.2.1 20190827 (Red Hat 9.2.1-1)
REM options -cpp -mtune=generic -march=x86-64 -g -O0 -fpre-include=/usr/include/finclude/math-vector-fortran.h
REM seed -1165353425 -1716102553 1155403849 2126741502 -585025544 654419339 1612228149 -1591136490 1916798408 -1874003503 911195680 1624931836 -1601149698 -1304771661 75227706 -695143414 402559354 -2093023589 569803063 -350000590 -1783751442 1584092128 1665589681 -860110630 -1679629999 820118518 -822903161 1679847293 539951030 1760562702 -99880486 68342163 1272313924
REM
CELL 1.54180   50.00000   50.00000   50.00000   90.00000   90.00000   90.00000
LATT -1
SFAC C  
C      1  0.4889450000000  0.4486490000000  0.4728050000000 1.0
C      1  0.5104310000000  0.5475160000000  0.4728240000000 1.0
C      1  0.4890480000000  0.4484670000000  0.5273340000000 1.0
C      1  0.5096140000000  0.5479340000000  0.5278250000000 1.0
C      1  0.5237240000000  0.5191620000000  0.4326590000000 1.0
C      1  0.4719340000000  0.4790230000000  0.4341390000000 1.0
C      1  0.5232720000000  0.5191250000000  0.5677230000000 1.0
C      1  0.4717870000000  0.4785870000000  0.5660630000000 1.0
C      1  0.4599270000000  0.5493210000000  0.5153080000000 1.0
C      1  0.5382980000000  0.4508630000000  0.5154030000000 1.0
C      1  0.4605890000000  0.5497900000000  0.4842940000000 1.0
C      1  0.5382390000000  0.4507420000000  0.4848010000000 1.0
C      1  0.4895700000000  0.4553010000000  0.4454120000000 1.0
C      1  0.5073740000000  0.5424390000000  0.4453440000000 1.0
C      1  0.4896050000000  0.4550280000000  0.5547500000000 1.0
C      1  0.5066130000000  0.5423470000000  0.5551950000000 1.0
C      1  0.5553540000000  0.4889820000000  0.5412700000000 1.0
C      1  0.4402070000000  0.5106210000000  0.5397090000000 1.0
C      1  0.5555070000000  0.4888540000000  0.4591540000000 1.0
C      1  0.4406320000000  0.5108800000000  0.4606730000000 1.0
C      1  0.5107790000000  0.4923540000000  0.5263840000000 1.0
C      1  0.4844400000000  0.5050690000000  0.5240550000000 1.0
C      1  0.5108750000000  0.4923420000000  0.4739170000000 1.0
C      1  0.4845300000000  0.5050440000000  0.4762960000000 1.0
C      1  0.5098970000000  0.4645370000000  0.4841910000000 1.0
C      1  0.4879980000000  0.5341620000000  0.4845110000000 1.0
C      1  0.5099080000000  0.4645390000000  0.5160220000000 1.0
C      1  0.4876300000000  0.5341920000000  0.5157940000000 1.0
C      1  0.5267660000000  0.4929880000000  0.5513050000000 1.0
C      1  0.4683970000000  0.5051310000000  0.5499610000000 1.0
C      1  0.5269640000000  0.4929880000000  0.4490390000000 1.0
C      1  0.4687100000000  0.5055220000000  0.4502980000000 1.0
C      1  0.4415830000000  0.4727430000000  0.5165910000000 1.0
C      1  0.5824430000000  0.5283490000000  0.5193930000000 1.0
C      1  0.4394580000000  0.4702950000000  0.4883150000000 1.0
C      1  0.5825530000000  0.5282270000000  0.4811170000000 1.0
C      1  0.4941910000000  0.4846060000000  0.4127600000000 1.0
C      1  0.4999910000000  0.5138180000000  0.4126350000000 1.0
C      1  0.4939780000000  0.4842380000000  0.5875160000000 1.0
C      1  0.4995690000000  0.5134780000000  0.5877600000000 1.0
C      1  0.4807670000000  0.5283270000000  0.4332430000000 1.0
C      1  0.5149860000000  0.4701360000000  0.4316330000000 1.0
C      1  0.4802280000000  0.5278900000000  0.5672020000000 1.0
C      1  0.5148960000000  0.4700020000000  0.5686070000000 1.0
C      1  0.4287940000000  0.4875440000000  0.4697690000000 1.0
C      1  0.5708550000000  0.5115820000000  0.4626330000000 1.0
C      1  0.4254850000000  0.4876980000000  0.5335800000000 1.0
C      1  0.5706500000000  0.5117560000000  0.5378640000000 1.0
C      1  0.5588700000000  0.4703330000000  0.5195240000000 1.0
C      1  0.4380280000000  0.5310370000000  0.5192160000000 1.0
C      1  0.5588820000000  0.4701950000000  0.4809120000000 1.0
C      1  0.4383890000000  0.5317920000000  0.4806400000000 1.0
C      1  0.5679970000000  0.5420530000000  0.5001700000000 1.0
C      1  0.4698440000000  0.4914010000000  0.5003600000000 1.0
END
