TITL C-3578204-4308-256 2.61004200778144e-07 125000 -493.05306045893 0 0 80 (C1) n - 1
REM
REM in /home/bkarasulu/work/CARBON/AIRSS/Generating-Clusters/EDIP-Nigel-Params/with-SteepDescent/Higher-Symm/SD-CG/HFTN-CG
REM
REM
REM
REM
REM
REM ./C.cell (12c818d87b63d06a65506943cc24bca4)
REM
REM compiler GCC version 9.2.1 20190827 (Red Hat 9.2.1-1)
REM options -cpp -mtune=generic -march=x86-64 -g -O0 -fpre-include=/usr/include/finclude/math-vector-fortran.h
REM seed -101529197 694633619 1046220935 -1877318299 -1004637822 2022689676 1902597217 1694068400 -288796697 624915102 -1555436693 -680716476 866728642 1196305965 554531564 -1072088275 -829769656 27331713 -1483469496 -442195059 1043254478 1525445812 -1186841733 -1367929 -497148727 -1554588404 1171996368 1698267969 1216019719 -63028906 1461005463 223042759 -1097107952
REM
CELL 1.54180   50.00000   50.00000   50.00000   90.00000   90.00000   90.00000
LATT -1
SFAC C  
C      1  0.5144640000000  0.4369990000000  0.5499350000000 1.0
C      1  0.5149020000000  0.5746630000000  0.5299900000000 1.0
C      1  0.5177390000000  0.4890870000000  0.4199830000000 1.0
C      1  0.4828240000000  0.4363060000000  0.5505100000000 1.0
C      1  0.4830690000000  0.5757820000000  0.5308420000000 1.0
C      1  0.4793860000000  0.4874300000000  0.4183150000000 1.0
C      1  0.5249010000000  0.4835960000000  0.5683340000000 1.0
C      1  0.5264310000000  0.5689250000000  0.4797230000000 1.0
C      1  0.5258520000000  0.4503390000000  0.4515870000000 1.0
C      1  0.4711090000000  0.4835640000000  0.5706850000000 1.0
C      1  0.4725290000000  0.5670970000000  0.4812030000000 1.0
C      1  0.4724910000000  0.4485650000000  0.4506300000000 1.0
C      1  0.4687080000000  0.5502610000000  0.5348810000000 1.0
C      1  0.4651460000000  0.5030980000000  0.4374250000000 1.0
C      1  0.4701030000000  0.4479580000000  0.5272840000000 1.0
C      1  0.5262580000000  0.5481380000000  0.5295070000000 1.0
C      1  0.5319540000000  0.5058590000000  0.4384510000000 1.0
C      1  0.5267210000000  0.4484950000000  0.5259030000000 1.0
C      1  0.4756720000000  0.4884730000000  0.5111210000000 1.0
C      1  0.4858560000000  0.5208620000000  0.5074650000000 1.0
C      1  0.4782900000000  0.4954940000000  0.4787980000000 1.0
C      1  0.5115110000000  0.4884210000000  0.5156640000000 1.0
C      1  0.5236860000000  0.5148480000000  0.5006020000000 1.0
C      1  0.5116070000000  0.4957380000000  0.4759210000000 1.0
C      1  0.5112980000000  0.4985770000000  0.5447610000000 1.0
C      1  0.5151920000000  0.5397850000000  0.4785310000000 1.0
C      1  0.5138580000000  0.4635160000000  0.4767130000000 1.0
C      1  0.4818040000000  0.5001110000000  0.5464770000000 1.0
C      1  0.4857190000000  0.5390170000000  0.4811040000000 1.0
C      1  0.4831640000000  0.4616620000000  0.4765650000000 1.0
C      1  0.5626130000000  0.5180190000000  0.5212910000000 1.0
C      1  0.5682340000000  0.5101380000000  0.4726970000000 1.0
C      1  0.5655360000000  0.4723230000000  0.5044720000000 1.0
C      1  0.4325280000000  0.5178290000000  0.5223570000000 1.0
C      1  0.4360820000000  0.5091920000000  0.4743130000000 1.0
C      1  0.4350510000000  0.4717440000000  0.5051560000000 1.0
C      1  0.4431030000000  0.4810740000000  0.5555740000000 1.0
C      1  0.4452110000000  0.5553460000000  0.4893220000000 1.0
C      1  0.4436890000000  0.4604800000000  0.4563830000000 1.0
C      1  0.5519060000000  0.4826520000000  0.5534080000000 1.0
C      1  0.5546960000000  0.5571880000000  0.4885910000000 1.0
C      1  0.5535650000000  0.4629830000000  0.4568660000000 1.0
C      1  0.5168040000000  0.5302930000000  0.4488570000000 1.0
C      1  0.5156670000000  0.4410400000000  0.4990740000000 1.0
C      1  0.5172490000000  0.5288540000000  0.5511220000000 1.0
C      1  0.4780430000000  0.5279950000000  0.4499860000000 1.0
C      1  0.4791150000000  0.4396560000000  0.4994040000000 1.0
C      1  0.4802980000000  0.5300840000000  0.5544510000000 1.0
C      1  0.4842470000000  0.4197230000000  0.4557130000000 1.0
C      1  0.4840490000000  0.5026930000000  0.5931810000000 1.0
C      1  0.4817480000000  0.5765330000000  0.4528990000000 1.0
C      1  0.5159200000000  0.4208350000000  0.4558260000000 1.0
C      1  0.5157360000000  0.5027760000000  0.5913310000000 1.0
C      1  0.5135330000000  0.5780830000000  0.4518560000000 1.0
C      1  0.5508140000000  0.4926040000000  0.4564420000000 1.0
C      1  0.5484600000000  0.4674740000000  0.5282120000000 1.0
C      1  0.5518390000000  0.5449340000000  0.5159190000000 1.0
C      1  0.4436030000000  0.4905680000000  0.4526500000000 1.0
C      1  0.4457560000000  0.4632970000000  0.5312830000000 1.0
C      1  0.4480930000000  0.5420820000000  0.5158010000000 1.0
C      1  0.4827280000000  0.5531120000000  0.4328360000000 1.0
C      1  0.4847840000000  0.4123070000000  0.4857070000000 1.0
C      1  0.4836860000000  0.5322670000000  0.5848670000000 1.0
C      1  0.5136750000000  0.5550680000000  0.4315260000000 1.0
C      1  0.5160320000000  0.4133880000000  0.4855230000000 1.0
C      1  0.5147790000000  0.5320940000000  0.5819490000000 1.0
C      1  0.5140510000000  0.4609810000000  0.4260990000000 1.0
C      1  0.5142090000000  0.4560760000000  0.5741870000000 1.0
C      1  0.5142380000000  0.5865660000000  0.5015410000000 1.0
C      1  0.4848690000000  0.4597660000000  0.4252900000000 1.0
C      1  0.4833480000000  0.4558110000000  0.5748150000000 1.0
C      1  0.4833390000000  0.5863480000000  0.5016910000000 1.0
C      1  0.5649400000000  0.4560280000000  0.4814290000000 1.0
C      1  0.5631790000000  0.5074850000000  0.5474710000000 1.0
C      1  0.5661890000000  0.5382160000000  0.4713930000000 1.0
C      1  0.4347790000000  0.4550990000000  0.4824650000000 1.0
C      1  0.4323520000000  0.5057630000000  0.5477500000000 1.0
C      1  0.4345090000000  0.5370770000000  0.4709330000000 1.0
C      1  0.4290340000000  0.4994080000000  0.5003370000000 1.0
C      1  0.5721290000000  0.5004770000000  0.4999970000000 1.0
END
