TITL C-3578195-8548-530 -8.66247744893149e-07 125000 -829.517157315417 0 0 134 (C1) n - 1
REM
REM in /home/bkarasulu/work/CARBON/AIRSS/Generating-Clusters/EDIP-Nigel-Params/with-SteepDescent/Higher-Symm/SD-CG/HFTN-CG
REM
REM
REM
REM
REM
REM ./C.cell (12c818d87b63d06a65506943cc24bca4)
REM
REM compiler GCC version 9.2.1 20190827 (Red Hat 9.2.1-1)
REM options -cpp -mtune=generic -march=x86-64 -g -O0 -fpre-include=/usr/include/finclude/math-vector-fortran.h
REM seed -1088552499 286654615 889728793 2044596719 -1736756052 -40338514 1953519606 -1052309397 -1721426334 1651501802 -1671230626 -1411860546 -1570177565 1659564273 -584906480 -1818416804 287970825 -461211157 -1520309501 1808974679 1571226189 1434562470 78046957 1026934060 1548535049 430074419 1952295575 -2146896653 365629889 -1387079813 -1436660383 -283062052 -1790045719
REM
CELL 1.54180   50.00000   50.00000   50.00000   90.00000   90.00000   90.00000
LATT -1
SFAC C  
C      1  0.4214770000000  0.5152770000000  0.5184750000000 1.0
C      1  0.4467230000000  0.4412160000000  0.5193540000000 1.0
C      1  0.5240410000000  0.4175330000000  0.5186610000000 1.0
C      1  0.5842550000000  0.4840880000000  0.5166460000000 1.0
C      1  0.5519920000000  0.5626160000000  0.5177580000000 1.0
C      1  0.4734110000000  0.5759330000000  0.5183290000000 1.0
C      1  0.5736950000000  0.5206480000000  0.4792990000000 1.0
C      1  0.5601850000000  0.4324560000000  0.4831690000000 1.0
C      1  0.4759900000000  0.4190670000000  0.4807700000000 1.0
C      1  0.4082870000000  0.4792500000000  0.4806100000000 1.0
C      1  0.4433620000000  0.5580060000000  0.4790880000000 1.0
C      1  0.5268950000000  0.5909130000000  0.4809670000000 1.0
C      1  0.4430120000000  0.4555540000000  0.4274990000000 1.0
C      1  0.5118740000000  0.4275980000000  0.4268540000000 1.0
C      1  0.5695670000000  0.4746660000000  0.4237940000000 1.0
C      1  0.5579410000000  0.5465720000000  0.4254620000000 1.0
C      1  0.4903970000000  0.5701630000000  0.4272030000000 1.0
C      1  0.4317710000000  0.5270310000000  0.4265880000000 1.0
C      1  0.5557350000000  0.4513830000000  0.5756800000000 1.0
C      1  0.4867970000000  0.4275440000000  0.5753880000000 1.0
C      1  0.4314680000000  0.4751910000000  0.5743480000000 1.0
C      1  0.4423840000000  0.5483640000000  0.5756720000000 1.0
C      1  0.5120660000000  0.5717570000000  0.5755070000000 1.0
C      1  0.5697460000000  0.5242190000000  0.5746970000000 1.0
C      1  0.4848840000000  0.5646700000000  0.5717290000000 1.0
C      1  0.4365710000000  0.5211150000000  0.5709310000000 1.0
C      1  0.4504420000000  0.4550910000000  0.5695980000000 1.0
C      1  0.5140020000000  0.4336710000000  0.5721600000000 1.0
C      1  0.5641270000000  0.4779280000000  0.5707370000000 1.0
C      1  0.5498680000000  0.5440590000000  0.5715810000000 1.0
C      1  0.5179180000000  0.5656350000000  0.4259840000000 1.0
C      1  0.5636420000000  0.5192820000000  0.4317800000000 1.0
C      1  0.5500350000000  0.4544460000000  0.4281500000000 1.0
C      1  0.4852450000000  0.4360170000000  0.4328040000000 1.0
C      1  0.4356400000000  0.4832680000000  0.4309490000000 1.0
C      1  0.4536310000000  0.5435030000000  0.4345080000000 1.0
C      1  0.5249750000000  0.5458740000000  0.4691510000000 1.0
C      1  0.4811340000000  0.5212930000000  0.4786590000000 1.0
C      1  0.4472120000000  0.4970150000000  0.4653140000000 1.0
C      1  0.4858750000000  0.4687190000000  0.4773100000000 1.0
C      1  0.5283900000000  0.4613070000000  0.4723940000000 1.0
C      1  0.5313330000000  0.4996590000000  0.4802750000000 1.0
C      1  0.4969810000000  0.5325490000000  0.5181150000000 1.0
C      1  0.5218500000000  0.5302380000000  0.5317090000000 1.0
C      1  0.5408630000000  0.4915890000000  0.5230730000000 1.0
C      1  0.5079810000000  0.4625380000000  0.5281470000000 1.0
C      1  0.4707780000000  0.4845740000000  0.5207700000000 1.0
C      1  0.4719120000000  0.5156880000000  0.5260960000000 1.0
C      1  0.4694470000000  0.4516870000000  0.4148830000000 1.0
C      1  0.5273510000000  0.4479730000000  0.4116630000000 1.0
C      1  0.5574290000000  0.4984800000000  0.4129330000000 1.0
C      1  0.5326110000000  0.5480510000000  0.4096420000000 1.0
C      1  0.4737270000000  0.5496660000000  0.4152190000000 1.0
C      1  0.4419690000000  0.5034400000000  0.4108530000000 1.0
C      1  0.5297680000000  0.4502520000000  0.5891820000000 1.0
C      1  0.4724950000000  0.4502700000000  0.5867380000000 1.0
C      1  0.4427440000000  0.4989510000000  0.5877240000000 1.0
C      1  0.4678490000000  0.5520750000000  0.5911710000000 1.0
C      1  0.5283340000000  0.5508560000000  0.5892130000000 1.0
C      1  0.5583290000000  0.5003050000000  0.5873390000000 1.0
C      1  0.4478890000000  0.5288650000000  0.5150110000000 1.0
C      1  0.4450460000000  0.4705550000000  0.5112610000000 1.0
C      1  0.5011880000000  0.4372930000000  0.5151710000000 1.0
C      1  0.5585070000000  0.4706230000000  0.5135510000000 1.0
C      1  0.5470480000000  0.5337320000000  0.5161770000000 1.0
C      1  0.4990720000000  0.5621660000000  0.5104840000000 1.0
C      1  0.5443380000000  0.5268260000000  0.4861910000000 1.0
C      1  0.5560890000000  0.4624850000000  0.4844820000000 1.0
C      1  0.4982670000000  0.4413070000000  0.4847790000000 1.0
C      1  0.4373830000000  0.4716360000000  0.4797220000000 1.0
C      1  0.4521850000000  0.5285610000000  0.4849540000000 1.0
C      1  0.5072400000000  0.5681930000000  0.4799120000000 1.0
C      1  0.4477570000000  0.5597300000000  0.5234900000000 1.0
C      1  0.4199020000000  0.4855190000000  0.5234470000000 1.0
C      1  0.4729810000000  0.4252320000000  0.5247750000000 1.0
C      1  0.5503090000000  0.4289850000000  0.5263830000000 1.0
C      1  0.5790420000000  0.5132830000000  0.5241010000000 1.0
C      1  0.5261870000000  0.5776040000000  0.5236010000000 1.0
C      1  0.5535240000000  0.5801110000000  0.4719650000000 1.0
C      1  0.5799600000000  0.4909540000000  0.4730070000000 1.0
C      1  0.5350180000000  0.4181040000000  0.4755980000000 1.0
C      1  0.4485560000000  0.4290230000000  0.4769010000000 1.0
C      1  0.4048820000000  0.5077740000000  0.4727480000000 1.0
C      1  0.4645310000000  0.5781530000000  0.4751800000000 1.0
C      1  0.5062230000000  0.4679810000000  0.5568000000000 1.0
C      1  0.5314480000000  0.4896850000000  0.5542820000000 1.0
C      1  0.5227990000000  0.5199110000000  0.5589530000000 1.0
C      1  0.4932440000000  0.5279200000000  0.5656370000000 1.0
C      1  0.4704710000000  0.5111230000000  0.5558660000000 1.0
C      1  0.4757440000000  0.4788710000000  0.5534490000000 1.0
C      1  0.4907970000000  0.4705500000000  0.4483030000000 1.0
C      1  0.4714010000000  0.4945270000000  0.4426770000000 1.0
C      1  0.4824880000000  0.5235470000000  0.4495640000000 1.0
C      1  0.5126750000000  0.5318700000000  0.4448070000000 1.0
C      1  0.5315170000000  0.5062510000000  0.4477130000000 1.0
C      1  0.5223470000000  0.4753950000000  0.4451450000000 1.0
C      1  0.4397870000000  0.5630130000000  0.5514990000000 1.0
C      1  0.4159260000000  0.4804580000000  0.5516750000000 1.0
C      1  0.4745990000000  0.4165980000000  0.5524950000000 1.0
C      1  0.5566840000000  0.4338510000000  0.5535810000000 1.0
C      1  0.5855440000000  0.5196780000000  0.5516460000000 1.0
C      1  0.5235730000000  0.5827340000000  0.5522100000000 1.0
C      1  0.5572480000000  0.5657100000000  0.4470620000000 1.0
C      1  0.5852090000000  0.4832600000000  0.4456600000000 1.0
C      1  0.5263230000000  0.4167820000000  0.4486340000000 1.0
C      1  0.4396520000000  0.4431500000000  0.4535740000000 1.0
C      1  0.4144930000000  0.5182650000000  0.4477710000000 1.0
C      1  0.4824610000000  0.5801660000000  0.4529870000000 1.0
C      1  0.5994310000000  0.4814940000000  0.4925320000000 1.0
C      1  0.5666150000000  0.5720860000000  0.4957050000000 1.0
C      1  0.4679950000000  0.5947980000000  0.4979690000000 1.0
C      1  0.4051010000000  0.5226230000000  0.4967820000000 1.0
C      1  0.4321670000000  0.4266690000000  0.4999770000000 1.0
C      1  0.5262460000000  0.4005750000000  0.4958650000000 1.0
C      1  0.3979860000000  0.4751900000000  0.5069960000000 1.0
C      1  0.4287250000000  0.5683460000000  0.5022970000000 1.0
C      1  0.5277440000000  0.6019660000000  0.5074200000000 1.0
C      1  0.5897140000000  0.5291470000000  0.5016520000000 1.0
C      1  0.5706700000000  0.4225310000000  0.5077840000000 1.0
C      1  0.4729400000000  0.4030770000000  0.5049320000000 1.0
C      1  0.4838450000000  0.4754390000000  0.4047630000000 1.0
C      1  0.5132050000000  0.4728650000000  0.4022190000000 1.0
C      1  0.5293320000000  0.4975030000000  0.4042760000000 1.0
C      1  0.5167210000000  0.5237200000000  0.4023160000000 1.0
C      1  0.4872000000000  0.5262270000000  0.4030200000000 1.0
C      1  0.4704850000000  0.5018500000000  0.4005580000000 1.0
C      1  0.5161670000000  0.4751410000000  0.5987960000000 1.0
C      1  0.4867930000000  0.4745030000000  0.5959220000000 1.0
C      1  0.4705410000000  0.4988140000000  0.5986300000000 1.0
C      1  0.4835320000000  0.5261930000000  0.6030010000000 1.0
C      1  0.5154690000000  0.5266110000000  0.6021760000000 1.0
C      1  0.5304480000000  0.5009410000000  0.5976840000000 1.0
C      1  0.5100140000000  0.4904220000000  0.5166860000000 1.0
C      1  0.4980160000000  0.4953000000000  0.4874000000000 1.0
END
