TITL C-3578204-4308-37 -3.29746719268472e-06 125000 -1021.0538820004 0 0 161 (C1) n - 1
REM
REM in /home/bkarasulu/work/CARBON/AIRSS/Generating-Clusters/EDIP-Nigel-Params/with-SteepDescent/Higher-Symm/SD-CG/HFTN-CG
REM
REM
REM
REM
REM
REM ./C.cell (12c818d87b63d06a65506943cc24bca4)
REM
REM compiler GCC version 9.2.1 20190827 (Red Hat 9.2.1-1)
REM options -cpp -mtune=generic -march=x86-64 -g -O0 -fpre-include=/usr/include/finclude/math-vector-fortran.h
REM seed 1674022203 1114604895 334978776 -1655358791 731459491 1218205720 -1703288070 -1460526036 144282175 -1030466923 -731913614 -1769410979 560450817 -572340253 700058383 1193355790 1640625415 -1467222959 -481700473 -1135060194 1896501944 743290371 -495900912 1949171722 -967020697 1044517461 -1978662756 -1285670529 -1255810000 1481930820 -904061339 2084504538 -520264617
REM
CELL 1.54180   50.00000   50.00000   50.00000   90.00000   90.00000   90.00000
LATT -1
SFAC C  
C      1  0.5174310000000  0.5606890000000  0.5601080000000 1.0
C      1  0.5163920000000  0.4414180000000  0.4390960000000 1.0
C      1  0.4895230000000  0.5629620000000  0.5664810000000 1.0
C      1  0.4894170000000  0.4402800000000  0.4311040000000 1.0
C      1  0.4837840000000  0.4364360000000  0.4860260000000 1.0
C      1  0.4865160000000  0.5678470000000  0.5113930000000 1.0
C      1  0.5148710000000  0.4374880000000  0.4830380000000 1.0
C      1  0.5149580000000  0.5635620000000  0.5163890000000 1.0
C      1  0.4004920000000  0.4646830000000  0.5455940000000 1.0
C      1  0.3987930000000  0.5346160000000  0.4536660000000 1.0
C      1  0.5912100000000  0.4774670000000  0.5547380000000 1.0
C      1  0.5936840000000  0.5216470000000  0.4496340000000 1.0
C      1  0.5114300000000  0.4753430000000  0.6063760000000 1.0
C      1  0.5099750000000  0.5267640000000  0.3934900000000 1.0
C      1  0.4825590000000  0.4706150000000  0.6056450000000 1.0
C      1  0.4813200000000  0.5313630000000  0.3942980000000 1.0
C      1  0.4683400000000  0.5498520000000  0.4112020000000 1.0
C      1  0.4696720000000  0.4529570000000  0.5876440000000 1.0
C      1  0.5274740000000  0.5437210000000  0.4108130000000 1.0
C      1  0.5283070000000  0.4571650000000  0.5892740000000 1.0
C      1  0.4237340000000  0.5465890000000  0.4413500000000 1.0
C      1  0.4207030000000  0.4525940000000  0.5637690000000 1.0
C      1  0.5800970000000  0.5433470000000  0.4336310000000 1.0
C      1  0.5800430000000  0.4555300000000  0.5714010000000 1.0
C      1  0.3976040000000  0.4849640000000  0.4715270000000 1.0
C      1  0.4179470000000  0.5120570000000  0.5253460000000 1.0
C      1  0.5955710000000  0.4840000000000  0.4803820000000 1.0
C      1  0.6233110000000  0.5285300000000  0.5269040000000 1.0
C      1  0.5165960000000  0.5839630000000  0.4648920000000 1.0
C      1  0.5154990000000  0.4146660000000  0.5332440000000 1.0
C      1  0.4877410000000  0.5793930000000  0.4650500000000 1.0
C      1  0.4864740000000  0.4182560000000  0.5333740000000 1.0
C      1  0.3936050000000  0.5116740000000  0.5065790000000 1.0
C      1  0.3883430000000  0.4845660000000  0.4983030000000 1.0
C      1  0.6139650000000  0.5164000000000  0.5034970000000 1.0
C      1  0.6089570000000  0.4879600000000  0.5046150000000 1.0
C      1  0.4863950000000  0.5141780000000  0.4288010000000 1.0
C      1  0.4873010000000  0.4903960000000  0.5727800000000 1.0
C      1  0.5155530000000  0.5094320000000  0.4361620000000 1.0
C      1  0.5172120000000  0.4927970000000  0.5656400000000 1.0
C      1  0.5568170000000  0.4595890000000  0.5877720000000 1.0
C      1  0.5557740000000  0.5345940000000  0.4176220000000 1.0
C      1  0.4422310000000  0.4536110000000  0.5823880000000 1.0
C      1  0.4413050000000  0.5472310000000  0.4190130000000 1.0
C      1  0.4729960000000  0.4123330000000  0.4713500000000 1.0
C      1  0.4745380000000  0.5907700000000  0.5243550000000 1.0
C      1  0.5245900000000  0.4021280000000  0.4716010000000 1.0
C      1  0.5293050000000  0.5977290000000  0.5257200000000 1.0
C      1  0.4215180000000  0.5329940000000  0.5675020000000 1.0
C      1  0.4223360000000  0.4690090000000  0.4350750000000 1.0
C      1  0.5793100000000  0.5309020000000  0.5505230000000 1.0
C      1  0.5814180000000  0.4687430000000  0.4416800000000 1.0
C      1  0.4706790000000  0.4904420000000  0.5469080000000 1.0
C      1  0.4715230000000  0.5112470000000  0.4567300000000 1.0
C      1  0.5239910000000  0.4949730000000  0.5369300000000 1.0
C      1  0.5233210000000  0.5067120000000  0.4647730000000 1.0
C      1  0.5333820000000  0.5709630000000  0.4861490000000 1.0
C      1  0.5318300000000  0.4273490000000  0.5111440000000 1.0
C      1  0.4748960000000  0.5608280000000  0.4850580000000 1.0
C      1  0.4755130000000  0.4398800000000  0.5157550000000 1.0
C      1  0.5117960000000  0.5276310000000  0.4828190000000 1.0
C      1  0.5150370000000  0.4715670000000  0.5201750000000 1.0
C      1  0.4821700000000  0.5293420000000  0.4817660000000 1.0
C      1  0.4856650000000  0.4684460000000  0.5241750000000 1.0
C      1  0.5577910000000  0.4240030000000  0.4479380000000 1.0
C      1  0.5591950000000  0.5732360000000  0.5495010000000 1.0
C      1  0.4448050000000  0.4247020000000  0.4387430000000 1.0
C      1  0.4443130000000  0.5761070000000  0.5567100000000 1.0
C      1  0.5857090000000  0.5701970000000  0.4406690000000 1.0
C      1  0.5824720000000  0.4304900000000  0.5592630000000 1.0
C      1  0.4110430000000  0.5708670000000  0.4510600000000 1.0
C      1  0.4141360000000  0.4285100000000  0.5487970000000 1.0
C      1  0.4737810000000  0.4656200000000  0.4327790000000 1.0
C      1  0.4723730000000  0.5384980000000  0.5674870000000 1.0
C      1  0.5339350000000  0.4615070000000  0.4258930000000 1.0
C      1  0.5343460000000  0.5403650000000  0.5732650000000 1.0
C      1  0.4793010000000  0.5183990000000  0.5350880000000 1.0
C      1  0.4806780000000  0.4809400000000  0.4595490000000 1.0
C      1  0.5085570000000  0.5182400000000  0.5301820000000 1.0
C      1  0.5095030000000  0.4821140000000  0.4706130000000 1.0
C      1  0.5148120000000  0.5686520000000  0.4202330000000 1.0
C      1  0.5147070000000  0.4339190000000  0.5776980000000 1.0
C      1  0.4854510000000  0.5701670000000  0.4218550000000 1.0
C      1  0.4859990000000  0.4333480000000  0.5752260000000 1.0
C      1  0.4156800000000  0.5785330000000  0.4785840000000 1.0
C      1  0.4244640000000  0.4243670000000  0.5219230000000 1.0
C      1  0.5785270000000  0.5712540000000  0.4680200000000 1.0
C      1  0.5745980000000  0.4288520000000  0.5324070000000 1.0
C      1  0.4333000000000  0.5752630000000  0.5299450000000 1.0
C      1  0.4297420000000  0.4168060000000  0.4631600000000 1.0
C      1  0.5638960000000  0.5666730000000  0.5210000000000 1.0
C      1  0.5684990000000  0.4179150000000  0.4753200000000 1.0
C      1  0.4296530000000  0.4976790000000  0.4312850000000 1.0
C      1  0.4301920000000  0.5052170000000  0.5735880000000 1.0
C      1  0.5728600000000  0.4990270000000  0.4435950000000 1.0
C      1  0.5772570000000  0.5030410000000  0.5620650000000 1.0
C      1  0.4635880000000  0.4691460000000  0.4807150000000 1.0
C      1  0.4685660000000  0.5139690000000  0.5066660000000 1.0
C      1  0.5246870000000  0.4664560000000  0.4908130000000 1.0
C      1  0.5224380000000  0.5344880000000  0.5103180000000 1.0
C      1  0.5541610000000  0.5028190000000  0.4698780000000 1.0
C      1  0.5532610000000  0.5014620000000  0.5308890000000 1.0
C      1  0.4405680000000  0.5093060000000  0.4586840000000 1.0
C      1  0.4365580000000  0.4900910000000  0.5467330000000 1.0
C      1  0.5171640000000  0.5050620000000  0.6084010000000 1.0
C      1  0.5156770000000  0.4976070000000  0.3920500000000 1.0
C      1  0.4934170000000  0.5203150000000  0.6107360000000 1.0
C      1  0.4910650000000  0.4838800000000  0.3893010000000 1.0
C      1  0.4743860000000  0.4144160000000  0.5583790000000 1.0
C      1  0.4744150000000  0.5868490000000  0.4414690000000 1.0
C      1  0.5267110000000  0.4165060000000  0.5592270000000 1.0
C      1  0.5276410000000  0.5852880000000  0.4389870000000 1.0
C      1  0.5576470000000  0.5056190000000  0.4185020000000 1.0
C      1  0.5603320000000  0.5014820000000  0.5853730000000 1.0
C      1  0.4473050000000  0.4979390000000  0.4087940000000 1.0
C      1  0.4495220000000  0.5062270000000  0.5944230000000 1.0
C      1  0.5531850000000  0.5299150000000  0.5147530000000 1.0
C      1  0.5577050000000  0.4760190000000  0.4858760000000 1.0
C      1  0.4398870000000  0.5198820000000  0.5068470000000 1.0
C      1  0.4349450000000  0.4845270000000  0.4811120000000 1.0
C      1  0.4047320000000  0.4368460000000  0.5027200000000 1.0
C      1  0.3982530000000  0.5615060000000  0.4965920000000 1.0
C      1  0.5937980000000  0.4417200000000  0.5142090000000 1.0
C      1  0.5994460000000  0.5599410000000  0.4863300000000 1.0
C      1  0.4726130000000  0.5855500000000  0.5546710000000 1.0
C      1  0.4732730000000  0.4169720000000  0.4415700000000 1.0
C      1  0.5322850000000  0.5841840000000  0.5513140000000 1.0
C      1  0.5296610000000  0.4165990000000  0.4470850000000 1.0
C      1  0.5311090000000  0.4919570000000  0.4174500000000 1.0
C      1  0.5329360000000  0.5110290000000  0.5835360000000 1.0
C      1  0.4748330000000  0.4895070000000  0.4129260000000 1.0
C      1  0.4763300000000  0.5149530000000  0.5877480000000 1.0
C      1  0.5931330000000  0.5651140000000  0.5157990000000 1.0
C      1  0.5834750000000  0.4405460000000  0.4861020000000 1.0
C      1  0.4078060000000  0.5620010000000  0.5255780000000 1.0
C      1  0.4153880000000  0.4392790000000  0.4752300000000 1.0
C      1  0.4476390000000  0.4017860000000  0.4793400000000 1.0
C      1  0.4474800000000  0.5929290000000  0.5127080000000 1.0
C      1  0.5453270000000  0.4068470000000  0.4916120000000 1.0
C      1  0.5486160000000  0.5885970000000  0.5057830000000 1.0
C      1  0.5960690000000  0.5302500000000  0.4815970000000 1.0
C      1  0.5929290000000  0.4710810000000  0.5241180000000 1.0
C      1  0.4007410000000  0.5337920000000  0.4845230000000 1.0
C      1  0.4032070000000  0.4645480000000  0.5156440000000 1.0
C      1  0.6015830000000  0.5440340000000  0.5355630000000 1.0
C      1  0.5943730000000  0.4599490000000  0.4670400000000 1.0
C      1  0.4072440000000  0.5354830000000  0.5412820000000 1.0
C      1  0.4058430000000  0.4615020000000  0.4584420000000 1.0
C      1  0.4324210000000  0.4722550000000  0.5136680000000 1.0
C      1  0.4315850000000  0.5337770000000  0.4834260000000 1.0
C      1  0.5630230000000  0.4751310000000  0.5163530000000 1.0
C      1  0.5646700000000  0.5278580000000  0.4861720000000 1.0
C      1  0.5548210000000  0.5537760000000  0.4733770000000 1.0
C      1  0.5513380000000  0.4468030000000  0.5253730000000 1.0
C      1  0.4424710000000  0.5643740000000  0.4880920000000 1.0
C      1  0.4458170000000  0.4449220000000  0.5176240000000 1.0
C      1  0.4451220000000  0.5504690000000  0.5707150000000 1.0
C      1  0.4465360000000  0.4534680000000  0.4339960000000 1.0
C      1  0.5609150000000  0.5485350000000  0.5643010000000 1.0
C      1  0.5595010000000  0.4510870000000  0.4357300000000 1.0
C      1  0.4733490000000  0.4846870000000  0.5031620000000 1.0
END
