TITL C-3577076-40-583 -2.09784061977938e-06 125000 -447.784731389819 0 0 72 (C2) n - 1
REM
REM in /home/bkarasulu/work/CARBON/AIRSS/Generating-Clusters/EDIP-Nigel-Params/with-SteepDescent/Higher-Symm/SD-CG/HFTN-CG
REM
REM
REM
REM
REM
REM ./C.cell (12c818d87b63d06a65506943cc24bca4)
REM
REM compiler GCC version 9.2.1 20190827 (Red Hat 9.2.1-1)
REM options -cpp -mtune=generic -march=x86-64 -g -O0 -fpre-include=/usr/include/finclude/math-vector-fortran.h
REM seed -1369086134 1937921832 -1169885122 1147812673 1025943304 352815248 -721906504 1448881993 -1337735655 1442464506 -1035570955 916789195 832663235 717250459 1542664531 141067255 -1258454881 232726216 -1626825277 -1609911385 1225808516 968955872 1801167163 -1089077550 -958181207 -1668434654 865140526 -1141354925 1937361368 1165192498 511719012 -1470872564 397833377
REM
CELL 1.54180   50.00000   50.00000   50.00000   90.00000   90.00000   90.00000
LATT -1
SFAC C  
C      1  0.4254250000000  0.5136540000000  0.4739090000000 1.0
C      1  0.4897730000000  0.5670020000000  0.4704400000000 1.0
C      1  0.5543470000000  0.5368630000000  0.4660820000000 1.0
C      1  0.5745780000000  0.4863470000000  0.4739180000000 1.0
C      1  0.5102310000000  0.4329990000000  0.4704410000000 1.0
C      1  0.4456570000000  0.4631380000000  0.4660750000000 1.0
C      1  0.5746420000000  0.5167390000000  0.4738710000000 1.0
C      1  0.5121160000000  0.5824930000000  0.4722610000000 1.0
C      1  0.4447500000000  0.5344560000000  0.4659470000000 1.0
C      1  0.4253610000000  0.4832610000000  0.4738620000000 1.0
C      1  0.4878880000000  0.4175070000000  0.4722580000000 1.0
C      1  0.5552540000000  0.4655450000000  0.4659530000000 1.0
C      1  0.5356080000000  0.4866930000000  0.4268150000000 1.0
C      1  0.5116050000000  0.4497480000000  0.4478310000000 1.0
C      1  0.4607980000000  0.4654610000000  0.4412570000000 1.0
C      1  0.4644020000000  0.5133080000000  0.4268100000000 1.0
C      1  0.4884020000000  0.5502530000000  0.4478300000000 1.0
C      1  0.5392100000000  0.5345390000000  0.4412620000000 1.0
C      1  0.4563040000000  0.4880690000000  0.4263590000000 1.0
C      1  0.4862850000000  0.4548310000000  0.4376470000000 1.0
C      1  0.5334360000000  0.4684650000000  0.4471440000000 1.0
C      1  0.5437060000000  0.5119320000000  0.4263640000000 1.0
C      1  0.5137230000000  0.5451700000000  0.4376500000000 1.0
C      1  0.4665710000000  0.5315350000000  0.4471400000000 1.0
C      1  0.5294120000000  0.4695810000000  0.5640710000000 1.0
C      1  0.4841500000000  0.4473320000000  0.5557150000000 1.0
C      1  0.4505550000000  0.4858520000000  0.5534750000000 1.0
C      1  0.4705800000000  0.5304180000000  0.5640670000000 1.0
C      1  0.5158430000000  0.5526680000000  0.5557180000000 1.0
C      1  0.5494380000000  0.5141470000000  0.5534820000000 1.0
C      1  0.4704570000000  0.4701200000000  0.5647350000000 1.0
C      1  0.5151350000000  0.4470460000000  0.5553910000000 1.0
C      1  0.5493450000000  0.4853630000000  0.5529640000000 1.0
C      1  0.5295340000000  0.5298790000000  0.5647390000000 1.0
C      1  0.4848580000000  0.5529540000000  0.5553900000000 1.0
C      1  0.4506480000000  0.5146360000000  0.5529570000000 1.0
C      1  0.5840230000000  0.4862100000000  0.5172160000000 1.0
C      1  0.5348780000000  0.4197860000000  0.5114820000000 1.0
C      1  0.4354170000000  0.4284680000000  0.5162190000000 1.0
C      1  0.4159750000000  0.5137900000000  0.5172060000000 1.0
C      1  0.4651200000000  0.5802130000000  0.5114780000000 1.0
C      1  0.5645810000000  0.5715320000000  0.5162280000000 1.0
C      1  0.4166440000000  0.4855300000000  0.5173270000000 1.0
C      1  0.4629890000000  0.4190650000000  0.5137950000000 1.0
C      1  0.5631170000000  0.4271030000000  0.5153120000000 1.0
C      1  0.5833540000000  0.5144700000000  0.5173380000000 1.0
C      1  0.5370090000000  0.5809350000000  0.5138010000000 1.0
C      1  0.4368810000000  0.5728970000000  0.5153050000000 1.0
C      1  0.4836970000000  0.4361880000000  0.5264730000000 1.0
C      1  0.4306270000000  0.4720390000000  0.5382060000000 1.0
C      1  0.4307490000000  0.5556760000000  0.5357350000000 1.0
C      1  0.5163000000000  0.5638120000000  0.5264760000000 1.0
C      1  0.5693680000000  0.5279600000000  0.5382150000000 1.0
C      1  0.5692470000000  0.4443240000000  0.5357430000000 1.0
C      1  0.5148690000000  0.4362860000000  0.5261290000000 1.0
C      1  0.5687410000000  0.4718390000000  0.5367590000000 1.0
C      1  0.5702330000000  0.5554730000000  0.5376870000000 1.0
C      1  0.4851280000000  0.5637140000000  0.5261280000000 1.0
C      1  0.4312550000000  0.5281610000000  0.5367500000000 1.0
C      1  0.4297620000000  0.4445270000000  0.5376770000000 1.0
C      1  0.4077160000000  0.4728190000000  0.4937480000000 1.0
C      1  0.4419590000000  0.5596290000000  0.4799300000000 1.0
C      1  0.5371630000000  0.5836720000000  0.4838670000000 1.0
C      1  0.5922850000000  0.5271810000000  0.4937600000000 1.0
C      1  0.5580430000000  0.4403710000000  0.4799370000000 1.0
C      1  0.4628390000000  0.4163280000000  0.4838610000000 1.0
C      1  0.5930000000000  0.4752370000000  0.4927780000000 1.0
C      1  0.5578940000000  0.5625110000000  0.4796020000000 1.0
C      1  0.4654290000000  0.5770670000000  0.4818180000000 1.0
C      1  0.4070010000000  0.5247630000000  0.4927660000000 1.0
C      1  0.4421080000000  0.4374900000000  0.4795940000000 1.0
C      1  0.5345740000000  0.4229340000000  0.4818210000000 1.0
END
