TITL C-3578207-9274-839 -5.149480383995e-07 125000 -176.293201582659 0 0 31 (C3) n - 1
REM
REM in /home/bkarasulu/work/CARBON/AIRSS/Generating-Clusters/EDIP-Nigel-Params/with-SteepDescent/Higher-Symm/SD-CG/HFTN-CG
REM
REM
REM
REM
REM
REM ./C.cell (12c818d87b63d06a65506943cc24bca4)
REM
REM compiler GCC version 9.2.1 20190827 (Red Hat 9.2.1-1)
REM options -cpp -mtune=generic -march=x86-64 -g -O0 -fpre-include=/usr/include/finclude/math-vector-fortran.h
REM seed 528980035 -2135670050 -1735506148 636172535 -1805986680 548346790 -1728469842 -972916449 714745539 -887349530 -115971670 -875477282 182203330 1408883838 -547534848 -1402347303 982591230 -1194122340 679041689 -1429531615 366592591 -426291532 -280029955 1272353558 1916426373 501394514 1890095353 1964178797 208111868 78361278 1050526328 -164865773 -989654896
REM
CELL 1.54180   50.00000   50.00000   50.00000   90.00000   90.00000   90.00000
LATT -1
SFAC C  
C      1  0.5093250000000  0.5333820000000  0.5217910000000 1.0
C      1  0.5137630000000  0.5332940000000  0.4827980000000 1.0
C      1  0.4777760000000  0.5332670000000  0.4984520000000 1.0
C      1  0.5045990000000  0.4914900000000  0.4766820000000 1.0
C      1  0.4770860000000  0.4915210000000  0.5096650000000 1.0
C      1  0.5194060000000  0.4916160000000  0.5170010000000 1.0
C      1  0.4511600000000  0.4988690000000  0.4899740000000 1.0
C      1  0.5153120000000  0.4991310000000  0.5492600000000 1.0
C      1  0.5345790000000  0.4989570000000  0.4640600000000 1.0
C      1  0.4620030000000  0.5414330000000  0.5233670000000 1.0
C      1  0.5387840000000  0.5415710000000  0.5229500000000 1.0
C      1  0.5000320000000  0.5413380000000  0.4566640000000 1.0
C      1  0.5342500000000  0.4688930000000  0.4656930000000 1.0
C      1  0.4527560000000  0.4688040000000  0.4896000000000 1.0
C      1  0.5142080000000  0.4690590000000  0.5482220000000 1.0
C      1  0.5058740000000  0.5150780000000  0.4440820000000 1.0
C      1  0.4482010000000  0.5151720000000  0.5247380000000 1.0
C      1  0.5468880000000  0.5153740000000  0.5343550000000 1.0
C      1  0.4865700000000  0.5394500000000  0.5413350000000 1.0
C      1  0.5420620000000  0.5394310000000  0.4927010000000 1.0
C      1  0.4721990000000  0.5392460000000  0.4689600000000 1.0
C      1  0.5521540000000  0.5117890000000  0.4858360000000 1.0
C      1  0.4612240000000  0.5115700000000  0.4637990000000 1.0
C      1  0.4876030000000  0.5118380000000  0.5535650000000 1.0
C      1  0.4842840000000  0.4958610000000  0.4536560000000 1.0
C      1  0.4672990000000  0.4960390000000  0.5387480000000 1.0
C      1  0.5494840000000  0.4961200000000  0.5109120000000 1.0
C      1  0.5063780000000  0.4519870000000  0.5279230000000 1.0
C      1  0.5205950000000  0.4519020000000  0.4827130000000 1.0
C      1  0.4743340000000  0.4518430000000  0.4930050000000 1.0
C      1  0.5004440000000  0.4473000000000  0.5012250000000 1.0
END
