TITL C-3578198-8939-770 -1.90568104521445e-07 125000 -1101.22829833914 0 0 178 (C1) n - 1
REM
REM in /home/bkarasulu/work/CARBON/AIRSS/Generating-Clusters/EDIP-Nigel-Params/with-SteepDescent/Higher-Symm/SD-CG/HFTN-CG
REM
REM
REM
REM
REM
REM ./C.cell (12c818d87b63d06a65506943cc24bca4)
REM
REM compiler GCC version 9.2.1 20190827 (Red Hat 9.2.1-1)
REM options -cpp -mtune=generic -march=x86-64 -g -O0 -fpre-include=/usr/include/finclude/math-vector-fortran.h
REM seed -1152843987 1580916895 -10850002 1424300834 1562318389 -1943493305 -1840161123 2079411006 1302956719 2004347029 37794073 2099210095 353609716 1400544873 -1134960480 1918289744 369342093 -1413171205 -1458002706 -1778895365 77866205 -987256444 -1634622814 -1848150070 -1599279658 1223985450 172547772 2065585304 30149956 -324025108 -1668473462 1656389714 1041471338
REM
CELL 1.54180   50.00000   50.00000   50.00000   90.00000   90.00000   90.00000
LATT -1
SFAC C  
C      1  0.5094770000000  0.3992490000000  0.5496190000000 1.0
C      1  0.4091480000000  0.5384670000000  0.5488460000000 1.0
C      1  0.5788350000000  0.5597640000000  0.5489610000000 1.0
C      1  0.4623820000000  0.4699350000000  0.6009760000000 1.0
C      1  0.4923130000000  0.5507320000000  0.5997190000000 1.0
C      1  0.5485350000000  0.4841010000000  0.5972410000000 1.0
C      1  0.4419470000000  0.5343940000000  0.4920800000000 1.0
C      1  0.5590310000000  0.5327710000000  0.4915660000000 1.0
C      1  0.4970610000000  0.4329620000000  0.4907520000000 1.0
C      1  0.4859430000000  0.4760140000000  0.4602070000000 1.0
C      1  0.4856390000000  0.5254680000000  0.4598260000000 1.0
C      1  0.5288600000000  0.5005350000000  0.4601150000000 1.0
C      1  0.5858750000000  0.5462480000000  0.4893650000000 1.0
C      1  0.4925560000000  0.4035780000000  0.4866810000000 1.0
C      1  0.4167780000000  0.5506040000000  0.4894030000000 1.0
C      1  0.5237400000000  0.4090850000000  0.5275450000000 1.0
C      1  0.4025870000000  0.5203220000000  0.5281220000000 1.0
C      1  0.5670970000000  0.5746860000000  0.5280770000000 1.0
C      1  0.4567840000000  0.4130530000000  0.4410730000000 1.0
C      1  0.4466510000000  0.5788730000000  0.4490390000000 1.0
C      1  0.5952340000000  0.5065040000000  0.4498040000000 1.0
C      1  0.4445050000000  0.4993710000000  0.4397260000000 1.0
C      1  0.5282110000000  0.5491270000000  0.4390090000000 1.0
C      1  0.5280000000000  0.4522040000000  0.4385400000000 1.0
C      1  0.4372180000000  0.4880690000000  0.4658290000000 1.0
C      1  0.5212420000000  0.5597560000000  0.4649990000000 1.0
C      1  0.5404610000000  0.4522020000000  0.4647770000000 1.0
C      1  0.4407090000000  0.4806080000000  0.4151660000000 1.0
C      1  0.5137490000000  0.5626370000000  0.4155120000000 1.0
C      1  0.5472380000000  0.4586350000000  0.4155110000000 1.0
C      1  0.3893940000000  0.5120430000000  0.4805330000000 1.0
C      1  0.5681520000000  0.5911400000000  0.4802120000000 1.0
C      1  0.5411230000000  0.3971190000000  0.4810210000000 1.0
C      1  0.4307880000000  0.5558610000000  0.4428680000000 1.0
C      1  0.5847840000000  0.5322930000000  0.4427160000000 1.0
C      1  0.4852280000000  0.4125000000000  0.4391240000000 1.0
C      1  0.5506230000000  0.4408000000000  0.5562640000000 1.0
C      1  0.4164510000000  0.4831560000000  0.5576090000000 1.0
C      1  0.5275560000000  0.5807350000000  0.5561410000000 1.0
C      1  0.6053250000000  0.5241250000000  0.4978800000000 1.0
C      1  0.4624690000000  0.3983010000000  0.4898120000000 1.0
C      1  0.4261760000000  0.5787650000000  0.4973480000000 1.0
C      1  0.5242630000000  0.5784460000000  0.5051090000000 1.0
C      1  0.5535060000000  0.4405670000000  0.5057650000000 1.0
C      1  0.4245830000000  0.4812340000000  0.5078250000000 1.0
C      1  0.4146660000000  0.5655310000000  0.5434310000000 1.0
C      1  0.5987920000000  0.5407130000000  0.5437690000000 1.0
C      1  0.4841570000000  0.3887240000000  0.5473570000000 1.0
C      1  0.4723380000000  0.5417790000000  0.5301760000000 1.0
C      1  0.5492510000000  0.5024000000000  0.5310550000000 1.0
C      1  0.4767140000000  0.4548640000000  0.5306350000000 1.0
C      1  0.5021610000000  0.4465650000000  0.4032300000000 1.0
C      1  0.4533210000000  0.5262470000000  0.4057700000000 1.0
C      1  0.5474420000000  0.5290640000000  0.4047780000000 1.0
C      1  0.5097860000000  0.6265660000000  0.4617480000000 1.0
C      1  0.6015930000000  0.4275560000000  0.4631600000000 1.0
C      1  0.3887040000000  0.4434290000000  0.4621780000000 1.0
C      1  0.4347650000000  0.4229010000000  0.4983420000000 1.0
C      1  0.4726340000000  0.6014040000000  0.4966330000000 1.0
C      1  0.5999430000000  0.4708890000000  0.4945430000000 1.0
C      1  0.5213130000000  0.4906630000000  0.3891720000000 1.0
C      1  0.4814960000000  0.4887550000000  0.3889870000000 1.0
C      1  0.4998060000000  0.5237150000000  0.3894510000000 1.0
C      1  0.5228250000000  0.5422100000000  0.3955430000000 1.0
C      1  0.5257920000000  0.4616320000000  0.3951010000000 1.0
C      1  0.4542530000000  0.4989620000000  0.3960460000000 1.0
C      1  0.5662180000000  0.4656190000000  0.4662870000000 1.0
C      1  0.4379620000000  0.4591860000000  0.4669270000000 1.0
C      1  0.4969140000000  0.5758260000000  0.4663560000000 1.0
C      1  0.4328700000000  0.5805390000000  0.5271380000000 1.0
C      1  0.6021240000000  0.5178520000000  0.5270490000000 1.0
C      1  0.4601090000000  0.3993960000000  0.5393510000000 1.0
C      1  0.5473010000000  0.5012020000000  0.3991750000000 1.0
C      1  0.4779480000000  0.4601840000000  0.3967340000000 1.0
C      1  0.4770350000000  0.5404640000000  0.3994160000000 1.0
C      1  0.3956490000000  0.5318340000000  0.5018960000000 1.0
C      1  0.5805200000000  0.5738940000000  0.5019260000000 1.0
C      1  0.5186180000000  0.3955870000000  0.5017660000000 1.0
C      1  0.5889870000000  0.4511980000000  0.4564460000000 1.0
C      1  0.4150990000000  0.4464760000000  0.4566450000000 1.0
C      1  0.4985170000000  0.6022540000000  0.4554230000000 1.0
C      1  0.4448070000000  0.4310450000000  0.4232750000000 1.0
C      1  0.4693520000000  0.5810910000000  0.4321880000000 1.0
C      1  0.5857490000000  0.4863500000000  0.4323690000000 1.0
C      1  0.5699020000000  0.4715660000000  0.4949270000000 1.0
C      1  0.4444180000000  0.4509060000000  0.4944310000000 1.0
C      1  0.4885520000000  0.5761120000000  0.4948930000000 1.0
C      1  0.4550880000000  0.5879360000000  0.5465390000000 1.0
C      1  0.6017780000000  0.4943370000000  0.5454100000000 1.0
C      1  0.4434580000000  0.4141910000000  0.5566730000000 1.0
C      1  0.5193140000000  0.5030480000000  0.5771990000000 1.0
C      1  0.4915490000000  0.4804020000000  0.5771390000000 1.0
C      1  0.4883340000000  0.5156080000000  0.5771880000000 1.0
C      1  0.6062000000000  0.4533070000000  0.5167400000000 1.0
C      1  0.4128650000000  0.4259960000000  0.5190080000000 1.0
C      1  0.4868030000000  0.6142640000000  0.5177920000000 1.0
C      1  0.5043930000000  0.4214990000000  0.4190630000000 1.0
C      1  0.4302420000000  0.5359060000000  0.4214350000000 1.0
C      1  0.5674150000000  0.5433130000000  0.4216330000000 1.0
C      1  0.5902160000000  0.5002040000000  0.5722970000000 1.0
C      1  0.4550900000000  0.4255380000000  0.5805090000000 1.0
C      1  0.4569070000000  0.5769750000000  0.5742150000000 1.0
C      1  0.5634280000000  0.5241200000000  0.5469950000000 1.0
C      1  0.4834050000000  0.4297050000000  0.5468790000000 1.0
C      1  0.4473670000000  0.5444210000000  0.5468780000000 1.0
C      1  0.5382520000000  0.5960100000000  0.4835930000000 1.0
C      1  0.5615980000000  0.4191950000000  0.4851980000000 1.0
C      1  0.3918600000000  0.4836560000000  0.4878090000000 1.0
C      1  0.4825030000000  0.5953490000000  0.5395710000000 1.0
C      1  0.5923180000000  0.4673850000000  0.5382150000000 1.0
C      1  0.4247000000000  0.4333710000000  0.5455310000000 1.0
C      1  0.4523210000000  0.4935510000000  0.5655640000000 1.0
C      1  0.5159460000000  0.5450040000000  0.5640380000000 1.0
C      1  0.5260280000000  0.4557750000000  0.5649440000000 1.0
C      1  0.5259320000000  0.6226230000000  0.4844490000000 1.0
C      1  0.5907030000000  0.4152000000000  0.4859700000000 1.0
C      1  0.3837090000000  0.4559580000000  0.4867430000000 1.0
C      1  0.5303030000000  0.4149190000000  0.4306390000000 1.0
C      1  0.4112500000000  0.5158000000000  0.4302390000000 1.0
C      1  0.5597120000000  0.5695280000000  0.4314060000000 1.0
C      1  0.5200310000000  0.5438430000000  0.6022240000000 1.0
C      1  0.5285830000000  0.4633780000000  0.5939220000000 1.0
C      1  0.4531170000000  0.4971760000000  0.6025910000000 1.0
C      1  0.5278000000000  0.5006690000000  0.4903360000000 1.0
C      1  0.4864150000000  0.4769300000000  0.4904920000000 1.0
C      1  0.4859960000000  0.5248100000000  0.4899890000000 1.0
C      1  0.4754480000000  0.4137580000000  0.5956910000000 1.0
C      1  0.4367220000000  0.5627220000000  0.5878710000000 1.0
C      1  0.5859860000000  0.5260050000000  0.5835010000000 1.0
C      1  0.4694760000000  0.5476410000000  0.5012240000000 1.0
C      1  0.5558250000000  0.5024300000000  0.5017960000000 1.0
C      1  0.4749430000000  0.4515850000000  0.5013290000000 1.0
C      1  0.5118060000000  0.6232410000000  0.5087750000000 1.0
C      1  0.5999360000000  0.4268260000000  0.5098820000000 1.0
C      1  0.3912940000000  0.4411610000000  0.5092340000000 1.0
C      1  0.4459170000000  0.4039000000000  0.4665230000000 1.0
C      1  0.4426850000000  0.5909260000000  0.4758430000000 1.0
C      1  0.6070180000000  0.5029440000000  0.4770860000000 1.0
C      1  0.5462070000000  0.5361390000000  0.5674860000000 1.0
C      1  0.5016850000000  0.4380690000000  0.5693490000000 1.0
C      1  0.4463140000000  0.5243040000000  0.5684570000000 1.0
C      1  0.5123510000000  0.5211220000000  0.4452020000000 1.0
C      1  0.5118910000000  0.4798300000000  0.4452320000000 1.0
C      1  0.4763810000000  0.5008300000000  0.4450650000000 1.0
C      1  0.5249530000000  0.4493820000000  0.4917680000000 1.0
C      1  0.4428560000000  0.5024950000000  0.4925560000000 1.0
C      1  0.5315260000000  0.5484210000000  0.4920650000000 1.0
C      1  0.4718170000000  0.4997770000000  0.5024600000000 1.0
C      1  0.5135350000000  0.5258860000000  0.5019100000000 1.0
C      1  0.5148750000000  0.4766760000000  0.5025930000000 1.0
C      1  0.4847460000000  0.5718310000000  0.5806830000000 1.0
C      1  0.5721540000000  0.4790250000000  0.5799020000000 1.0
C      1  0.4452460000000  0.4519850000000  0.5850950000000 1.0
C      1  0.4730680000000  0.5180770000000  0.6031070000000 1.0
C      1  0.5286000000000  0.5164240000000  0.6028460000000 1.0
C      1  0.5011090000000  0.4683530000000  0.6035950000000 1.0
C      1  0.4726850000000  0.4847850000000  0.5382830000000 1.0
C      1  0.4996050000000  0.5297030000000  0.5379020000000 1.0
C      1  0.5249150000000  0.4845210000000  0.5392960000000 1.0
C      1  0.4553650000000  0.4556590000000  0.4142420000000 1.0
C      1  0.4847400000000  0.5623670000000  0.4167170000000 1.0
C      1  0.5615570000000  0.4836400000000  0.4172750000000 1.0
C      1  0.5011800000000  0.4218480000000  0.5927630000000 1.0
C      1  0.4337380000000  0.5355640000000  0.5917180000000 1.0
C      1  0.5632690000000  0.5408830000000  0.5900660000000 1.0
C      1  0.5768160000000  0.5776070000000  0.4539330000000 1.0
C      1  0.5272570000000  0.3966660000000  0.4536110000000 1.0
C      1  0.3970880000000  0.5249320000000  0.4542090000000 1.0
C      1  0.4270770000000  0.4573900000000  0.5629380000000 1.0
C      1  0.5003240000000  0.5862920000000  0.5608870000000 1.0
C      1  0.5751880000000  0.4571170000000  0.5602700000000 1.0
C      1  0.4096730000000  0.4921370000000  0.5313100000000 1.0
C      1  0.5395040000000  0.5829740000000  0.5305060000000 1.0
C      1  0.5475050000000  0.4257230000000  0.5310660000000 1.0
C      1  0.4091210000000  0.5507300000000  0.4607510000000 1.0
C      1  0.5913970000000  0.5531750000000  0.4610840000000 1.0
C      1  0.4985740000000  0.3963770000000  0.4585540000000 1.0
C      1  0.4990120000000  0.4993670000000  0.5378040000000 1.0
END
