TITL C-3578203-1966-763 -1.46272395285445e-06 125000 -626.33530024845 0 0 102 (C1) n - 1
REM
REM in /home/bkarasulu/work/CARBON/AIRSS/Generating-Clusters/EDIP-Nigel-Params/with-SteepDescent/Higher-Symm/SD-CG/HFTN-CG
REM
REM
REM
REM
REM
REM ./C.cell (12c818d87b63d06a65506943cc24bca4)
REM
REM compiler GCC version 9.2.1 20190827 (Red Hat 9.2.1-1)
REM options -cpp -mtune=generic -march=x86-64 -g -O0 -fpre-include=/usr/include/finclude/math-vector-fortran.h
REM seed 1762044802 789750876 -107133937 1865450397 -1277408226 290881293 -801064438 -1811471754 -365507512 -1545197328 -1300773740 -1850750713 303177073 -1253668186 1571507437 264037416 -1617594702 -219761006 -907257706 -676111462 -1531601673 1342883422 291423127 1581373319 959637877 1051258665 1023118558 -835317676 1400502541 -1005293862 1508813561 456225712 311353048
REM
CELL 1.54180   50.00000   50.00000   50.00000   90.00000   90.00000   90.00000
LATT -1
SFAC C  
C      1  0.4726880000000  0.5623320000000  0.5402660000000 1.0
C      1  0.4343970000000  0.4771480000000  0.5385800000000 1.0
C      1  0.5220820000000  0.4436480000000  0.5319460000000 1.0
C      1  0.5558370000000  0.5229180000000  0.5338990000000 1.0
C      1  0.5354650000000  0.5701140000000  0.4548410000000 1.0
C      1  0.5689960000000  0.4656450000000  0.4528780000000 1.0
C      1  0.4805800000000  0.4381810000000  0.4662560000000 1.0
C      1  0.4406930000000  0.5214990000000  0.4695870000000 1.0
C      1  0.5077650000000  0.4787330000000  0.4575650000000 1.0
C      1  0.5360730000000  0.4896060000000  0.4707600000000 1.0
C      1  0.5113830000000  0.5222930000000  0.4566260000000 1.0
C      1  0.4880880000000  0.5027740000000  0.4567870000000 1.0
C      1  0.4982900000000  0.4820140000000  0.5222500000000 1.0
C      1  0.4768620000000  0.4941940000000  0.5398130000000 1.0
C      1  0.4928380000000  0.5199020000000  0.5450580000000 1.0
C      1  0.5217360000000  0.4893890000000  0.5379130000000 1.0
C      1  0.4844770000000  0.5405620000000  0.5237700000000 1.0
C      1  0.4495700000000  0.5004180000000  0.5248310000000 1.0
C      1  0.4979370000000  0.4526130000000  0.5131800000000 1.0
C      1  0.5422510000000  0.5005750000000  0.5201220000000 1.0
C      1  0.5040870000000  0.5475180000000  0.4765170000000 1.0
C      1  0.5293650000000  0.5081690000000  0.4948100000000 1.0
C      1  0.5062130000000  0.4500830000000  0.4833910000000 1.0
C      1  0.4537820000000  0.4945360000000  0.4950790000000 1.0
C      1  0.4077260000000  0.4701910000000  0.5244860000000 1.0
C      1  0.5293420000000  0.4154680000000  0.5241320000000 1.0
C      1  0.5839230000000  0.5280030000000  0.5241430000000 1.0
C      1  0.4725560000000  0.5877860000000  0.5240230000000 1.0
C      1  0.5887550000000  0.4697650000000  0.4755370000000 1.0
C      1  0.4717840000000  0.4096320000000  0.4761580000000 1.0
C      1  0.4133040000000  0.5289660000000  0.4790810000000 1.0
C      1  0.5328270000000  0.5909160000000  0.4769060000000 1.0
C      1  0.5528030000000  0.4451670000000  0.4669960000000 1.0
C      1  0.5512130000000  0.5508880000000  0.4723140000000 1.0
C      1  0.4550070000000  0.5473950000000  0.4783010000000 1.0
C      1  0.4544110000000  0.4503850000000  0.4771730000000 1.0
C      1  0.4489010000000  0.4536330000000  0.5250280000000 1.0
C      1  0.4430360000000  0.5589170000000  0.5403310000000 1.0
C      1  0.5435430000000  0.5488450000000  0.5226220000000 1.0
C      1  0.5477560000000  0.4569220000000  0.5222390000000 1.0
C      1  0.4113760000000  0.5185180000000  0.5324910000000 1.0
C      1  0.4811960000000  0.4164930000000  0.5300430000000 1.0
C      1  0.5900730000000  0.4824120000000  0.5330330000000 1.0
C      1  0.5181890000000  0.5909170000000  0.5344020000000 1.0
C      1  0.5873490000000  0.5174430000000  0.4689650000000 1.0
C      1  0.5183210000000  0.4108030000000  0.4682910000000 1.0
C      1  0.4177490000000  0.4822480000000  0.4733750000000 1.0
C      1  0.4851850000000  0.5841900000000  0.4695890000000 1.0
C      1  0.5264050000000  0.4752230000000  0.5722890000000 1.0
C      1  0.5227730000000  0.5249340000000  0.5685050000000 1.0
C      1  0.4731180000000  0.5292320000000  0.5761600000000 1.0
C      1  0.4709000000000  0.4765260000000  0.5735050000000 1.0
C      1  0.4745560000000  0.4694690000000  0.4297330000000 1.0
C      1  0.4716140000000  0.5251440000000  0.4300170000000 1.0
C      1  0.5286590000000  0.5304890000000  0.4243370000000 1.0
C      1  0.5261930000000  0.4718650000000  0.4260080000000 1.0
C      1  0.4681370000000  0.5652310000000  0.4578360000000 1.0
C      1  0.4374900000000  0.4680280000000  0.4601010000000 1.0
C      1  0.5325820000000  0.4283570000000  0.4519550000000 1.0
C      1  0.5665810000000  0.5305220000000  0.4565890000000 1.0
C      1  0.5271810000000  0.5657260000000  0.5421730000000 1.0
C      1  0.5663150000000  0.4713240000000  0.5431610000000 1.0
C      1  0.4679690000000  0.4379660000000  0.5420000000000 1.0
C      1  0.4334010000000  0.5311740000000  0.5455780000000 1.0
C      1  0.4266740000000  0.4387100000000  0.5124590000000 1.0
C      1  0.5612310000000  0.4326810000000  0.5115770000000 1.0
C      1  0.5690020000000  0.5619150000000  0.5145530000000 1.0
C      1  0.4371450000000  0.5744360000000  0.5163460000000 1.0
C      1  0.5734340000000  0.4364070000000  0.4860760000000 1.0
C      1  0.4399740000000  0.4272490000000  0.4887090000000 1.0
C      1  0.4322540000000  0.5595390000000  0.4929100000000 1.0
C      1  0.5642690000000  0.5723320000000  0.4883890000000 1.0
C      1  0.4019460000000  0.4976500000000  0.5160470000000 1.0
C      1  0.5028470000000  0.4073790000000  0.5147270000000 1.0
C      1  0.5950690000000  0.5027770000000  0.5146060000000 1.0
C      1  0.4987880000000  0.5962060000000  0.5151860000000 1.0
C      1  0.5897710000000  0.4964410000000  0.4865350000000 1.0
C      1  0.4983390000000  0.4026640000000  0.4860100000000 1.0
C      1  0.4047550000000  0.5025810000000  0.4872750000000 1.0
C      1  0.5059410000000  0.5893020000000  0.4877380000000 1.0
C      1  0.5144110000000  0.5526320000000  0.5653520000000 1.0
C      1  0.4470370000000  0.5173350000000  0.5682240000000 1.0
C      1  0.4837840000000  0.4551120000000  0.5592850000000 1.0
C      1  0.5539940000000  0.4860160000000  0.5674000000000 1.0
C      1  0.4831790000000  0.5505180000000  0.4379230000000 1.0
C      1  0.5502080000000  0.5153690000000  0.4379590000000 1.0
C      1  0.5164030000000  0.4442130000000  0.4320920000000 1.0
C      1  0.4522130000000  0.4828740000000  0.4404210000000 1.0
C      1  0.4443380000000  0.4870360000000  0.5680090000000 1.0
C      1  0.5132120000000  0.4518710000000  0.5599620000000 1.0
C      1  0.5505410000000  0.5170040000000  0.5632130000000 1.0
C      1  0.4842660000000  0.5560730000000  0.5684640000000 1.0
C      1  0.5520580000000  0.4846300000000  0.4352180000000 1.0
C      1  0.4868270000000  0.4453110000000  0.4375410000000 1.0
C      1  0.4482760000000  0.5122960000000  0.4413910000000 1.0
C      1  0.5147270000000  0.5554680000000  0.4359360000000 1.0
C      1  0.4800580000000  0.5374040000000  0.4932770000000 1.0
C      1  0.5363860000000  0.4615580000000  0.4850110000000 1.0
C      1  0.4629090000000  0.4653800000000  0.5007830000000 1.0
C      1  0.5306040000000  0.5395530000000  0.4926070000000 1.0
C      1  0.5022500000000  0.4981540000000  0.4994540000000 1.0
C      1  0.4797350000000  0.5081040000000  0.4860000000000 1.0
END
