TITL C-3577078-809-752 -1.01829214531799e-07 125000 -912.682492537354 0 0 149 (C1) n - 1
REM
REM in /home/bkarasulu/work/CARBON/AIRSS/Generating-Clusters/EDIP-Nigel-Params/with-SteepDescent/Higher-Symm/SD-CG/HFTN-CG
REM
REM
REM
REM
REM
REM ./C.cell (12c818d87b63d06a65506943cc24bca4)
REM
REM compiler GCC version 9.2.1 20190827 (Red Hat 9.2.1-1)
REM options -cpp -mtune=generic -march=x86-64 -g -O0 -fpre-include=/usr/include/finclude/math-vector-fortran.h
REM seed 2019779562 563971614 560365731 1822233281 -374643118 304452118 -283110507 70779494 1464048323 699454125 1124344544 -540113442 -2037084418 -567779941 -818635550 1869860284 -1178175033 -2089325835 1834696168 310248327 1070512666 1670582217 1871738005 -730729604 1484240135 -1139131398 -948611755 -1195318077 2019223534 -1764502860 267789492 -259414317 -1813817147
REM
CELL 1.54180   50.00000   50.00000   50.00000   90.00000   90.00000   90.00000
LATT -1
SFAC C  
C      1  0.4848720000000  0.5932910000000  0.5245970000000 1.0
C      1  0.5275530000000  0.4831060000000  0.5996410000000 1.0
C      1  0.5985170000000  0.5267330000000  0.4827940000000 1.0
C      1  0.4860800000000  0.4033110000000  0.4751990000000 1.0
C      1  0.5164240000000  0.4045390000000  0.5288530000000 1.0
C      1  0.5183810000000  0.5980730000000  0.4692250000000 1.0
C      1  0.5261150000000  0.5153950000000  0.3997300000000 1.0
C      1  0.4709750000000  0.5140000000000  0.5975710000000 1.0
C      1  0.4703360000000  0.4817300000000  0.4102910000000 1.0
C      1  0.5893360000000  0.4715550000000  0.5148990000000 1.0
C      1  0.4063230000000  0.4660130000000  0.4807760000000 1.0
C      1  0.4020570000000  0.5249160000000  0.5123680000000 1.0
C      1  0.4299040000000  0.5303010000000  0.4362310000000 1.0
C      1  0.4400440000000  0.4312050000000  0.5312080000000 1.0
C      1  0.5290790000000  0.4355510000000  0.4320230000000 1.0
C      1  0.4294850000000  0.4736830000000  0.5627450000000 1.0
C      1  0.5706840000000  0.4696170000000  0.4373840000000 1.0
C      1  0.5656570000000  0.5261340000000  0.5632590000000 1.0
C      1  0.4383310000000  0.5692450000000  0.4709770000000 1.0
C      1  0.5608690000000  0.5674910000000  0.5300680000000 1.0
C      1  0.5646000000000  0.4280140000000  0.4728600000000 1.0
C      1  0.5248750000000  0.5596550000000  0.5688450000000 1.0
C      1  0.4726740000000  0.5630270000000  0.4296700000000 1.0
C      1  0.4709640000000  0.4380820000000  0.5741830000000 1.0
C      1  0.5137720000000  0.5438170000000  0.4022560000000 1.0
C      1  0.4025970000000  0.5113020000000  0.5400370000000 1.0
C      1  0.5436180000000  0.4025300000000  0.5143430000000 1.0
C      1  0.5119910000000  0.4566970000000  0.6031090000000 1.0
C      1  0.4909960000000  0.4541240000000  0.4006240000000 1.0
C      1  0.4876170000000  0.5396620000000  0.6003340000000 1.0
C      1  0.3998760000000  0.4923860000000  0.4550990000000 1.0
C      1  0.5974220000000  0.4896260000000  0.5394580000000 1.0
C      1  0.5980080000000  0.5120610000000  0.4554090000000 1.0
C      1  0.5450630000000  0.6016920000000  0.4955140000000 1.0
C      1  0.4584310000000  0.5975200000000  0.5100920000000 1.0
C      1  0.4600530000000  0.4021840000000  0.4922800000000 1.0
C      1  0.5029310000000  0.6020350000000  0.4464330000000 1.0
C      1  0.4434900000000  0.5094410000000  0.6011710000000 1.0
C      1  0.6012130000000  0.4476210000000  0.5060760000000 1.0
C      1  0.5108170000000  0.4013230000000  0.5562410000000 1.0
C      1  0.4911540000000  0.3985800000000  0.4478550000000 1.0
C      1  0.4879460000000  0.5937420000000  0.5524320000000 1.0
C      1  0.4482960000000  0.4957790000000  0.3992560000000 1.0
C      1  0.5556860000000  0.4853810000000  0.5997430000000 1.0
C      1  0.5537270000000  0.5092120000000  0.3982270000000 1.0
C      1  0.5975510000000  0.5547110000000  0.4869800000000 1.0
C      1  0.4015620000000  0.5527820000000  0.5089670000000 1.0
C      1  0.3998870000000  0.4457580000000  0.4991430000000 1.0
C      1  0.4294600000000  0.4565700000000  0.4442020000000 1.0
C      1  0.4433740000000  0.4315530000000  0.4554540000000 1.0
C      1  0.4542340000000  0.4452490000000  0.4296850000000 1.0
C      1  0.4333350000000  0.5500460000000  0.5586180000000 1.0
C      1  0.5728580000000  0.5493840000000  0.4281920000000 1.0
C      1  0.5837240000000  0.4489870000000  0.5624650000000 1.0
C      1  0.4330240000000  0.5778520000000  0.5499630000000 1.0
C      1  0.5568590000000  0.5846200000000  0.4523920000000 1.0
C      1  0.5604560000000  0.4372030000000  0.5501700000000 1.0
C      1  0.4473840000000  0.5600470000000  0.5814330000000 1.0
C      1  0.5518540000000  0.5676010000000  0.4310660000000 1.0
C      1  0.5513720000000  0.4340530000000  0.5779970000000 1.0
C      1  0.4807610000000  0.4762310000000  0.5161370000000 1.0
C      1  0.5029680000000  0.4716440000000  0.4595480000000 1.0
C      1  0.4856150000000  0.5166250000000  0.4813350000000 1.0
C      1  0.4688540000000  0.5372770000000  0.4911480000000 1.0
C      1  0.5328300000000  0.5369150000000  0.5070410000000 1.0
C      1  0.5170210000000  0.4864560000000  0.4833590000000 1.0
C      1  0.5038840000000  0.5223140000000  0.5370510000000 1.0
C      1  0.5011240000000  0.5323600000000  0.4612600000000 1.0
C      1  0.4915870000000  0.4662430000000  0.5426410000000 1.0
C      1  0.4595000000000  0.4930780000000  0.5278620000000 1.0
C      1  0.5402010000000  0.4944060000000  0.4668700000000 1.0
C      1  0.5432970000000  0.4931460000000  0.5260900000000 1.0
C      1  0.5871150000000  0.5204710000000  0.5440470000000 1.0
C      1  0.5395760000000  0.5849220000000  0.5189550000000 1.0
C      1  0.5155980000000  0.5377920000000  0.5874490000000 1.0
C      1  0.5865770000000  0.4832300000000  0.4588030000000 1.0
C      1  0.4128430000000  0.4822580000000  0.5385550000000 1.0
C      1  0.4119760000000  0.5196070000000  0.4579590000000 1.0
C      1  0.5417330000000  0.4118570000000  0.4846060000000 1.0
C      1  0.4636300000000  0.4167100000000  0.5194640000000 1.0
C      1  0.4610690000000  0.5848670000000  0.4823140000000 1.0
C      1  0.5192950000000  0.4566600000000  0.4129120000000 1.0
C      1  0.4833420000000  0.4597620000000  0.5910880000000 1.0
C      1  0.4846980000000  0.5409120000000  0.4130460000000 1.0
C      1  0.5640900000000  0.4213360000000  0.5246110000000 1.0
C      1  0.5232160000000  0.5622570000000  0.4237320000000 1.0
C      1  0.4209770000000  0.5231100000000  0.5602850000000 1.0
C      1  0.5633950000000  0.5869920000000  0.4793680000000 1.0
C      1  0.4348870000000  0.5836290000000  0.5218600000000 1.0
C      1  0.4389380000000  0.4204190000000  0.4826050000000 1.0
C      1  0.5237020000000  0.4343180000000  0.5871140000000 1.0
C      1  0.4785910000000  0.4341640000000  0.4178750000000 1.0
C      1  0.4759500000000  0.5608660000000  0.5840500000000 1.0
C      1  0.4175830000000  0.4818290000000  0.4350800000000 1.0
C      1  0.5879310000000  0.4771570000000  0.5646320000000 1.0
C      1  0.5818320000000  0.5233080000000  0.4330770000000 1.0
C      1  0.5725980000000  0.5160500000000  0.4921950000000 1.0
C      1  0.4925530000000  0.5667650000000  0.5145640000000 1.0
C      1  0.5184090000000  0.4878820000000  0.5718520000000 1.0
C      1  0.5604050000000  0.4716000000000  0.5023830000000 1.0
C      1  0.4340810000000  0.4738410000000  0.4892370000000 1.0
C      1  0.4289230000000  0.5154400000000  0.5043480000000 1.0
C      1  0.4926990000000  0.4311240000000  0.4822320000000 1.0
C      1  0.5124830000000  0.4328060000000  0.5217930000000 1.0
C      1  0.5161650000000  0.5695520000000  0.4765250000000 1.0
C      1  0.5172700000000  0.5067670000000  0.4267260000000 1.0
C      1  0.4779930000000  0.5078590000000  0.5698480000000 1.0
C      1  0.4742030000000  0.4962260000000  0.4379710000000 1.0
C      1  0.4836280000000  0.4374820000000  0.5103190000000 1.0
C      1  0.5086120000000  0.4786210000000  0.4312730000000 1.0
C      1  0.4349160000000  0.5095630000000  0.4752180000000 1.0
C      1  0.4814310000000  0.5631660000000  0.4863580000000 1.0
C      1  0.5212100000000  0.5645850000000  0.5068760000000 1.0
C      1  0.5229650000000  0.4361430000000  0.4845490000000 1.0
C      1  0.5132500000000  0.5170210000000  0.5653720000000 1.0
C      1  0.4926900000000  0.5210210000000  0.4348090000000 1.0
C      1  0.4894180000000  0.4791540000000  0.5686610000000 1.0
C      1  0.4332750000000  0.4887170000000  0.5165730000000 1.0
C      1  0.5656190000000  0.4903940000000  0.4791790000000 1.0
C      1  0.5694430000000  0.5099990000000  0.5219940000000 1.0
C      1  0.5783780000000  0.4314570000000  0.5005030000000 1.0
C      1  0.4997320000000  0.5761500000000  0.4356380000000 1.0
C      1  0.4344820000000  0.5017660000000  0.5752770000000 1.0
C      1  0.5703760000000  0.5626120000000  0.4949680000000 1.0
C      1  0.4293540000000  0.5607570000000  0.5038910000000 1.0
C      1  0.4250320000000  0.4338720000000  0.5048400000000 1.0
C      1  0.5043990000000  0.4282580000000  0.5661550000000 1.0
C      1  0.4981220000000  0.4253940000000  0.4385510000000 1.0
C      1  0.4935610000000  0.5660020000000  0.5603890000000 1.0
C      1  0.4339950000000  0.5031000000000  0.4229400000000 1.0
C      1  0.5629530000000  0.4918260000000  0.5719220000000 1.0
C      1  0.5627960000000  0.5028920000000  0.4255320000000 1.0
C      1  0.4659620000000  0.4975170000000  0.4691220000000 1.0
C      1  0.4664320000000  0.4697600000000  0.4845960000000 1.0
C      1  0.4820180000000  0.4510740000000  0.4633160000000 1.0
C      1  0.4611460000000  0.5188510000000  0.5444800000000 1.0
C      1  0.5400450000000  0.5124370000000  0.4446460000000 1.0
C      1  0.5404680000000  0.4767470000000  0.5525480000000 1.0
C      1  0.4489530000000  0.5362250000000  0.5130470000000 1.0
C      1  0.5526410000000  0.5382530000000  0.4864350000000 1.0
C      1  0.5306620000000  0.4629730000000  0.4966580000000 1.0
C      1  0.4851440000000  0.5459600000000  0.5363290000000 1.0
C      1  0.5340830000000  0.5399770000000  0.4596920000000 1.0
C      1  0.5146430000000  0.4490210000000  0.5459500000000 1.0
C      1  0.5545110000000  0.4450950000000  0.4478280000000 1.0
C      1  0.4473830000000  0.4481460000000  0.5562420000000 1.0
C      1  0.4478840000000  0.5533200000000  0.4462870000000 1.0
C      1  0.5495600000000  0.5501670000000  0.5529300000000 1.0
C      1  0.5198370000000  0.5105030000000  0.5135040000000 1.0
END
