TITL C-3577090-796-101 -2.94457604210939e-06 125000 -949.836596350164 0 0 152 (C1) n - 1
REM
REM in /home/bkarasulu/work/CARBON/AIRSS/Generating-Clusters/EDIP-Nigel-Params/with-SteepDescent/Higher-Symm/SD-CG/HFTN-CG
REM
REM
REM
REM
REM
REM ./C.cell (12c818d87b63d06a65506943cc24bca4)
REM
REM compiler GCC version 9.2.1 20190827 (Red Hat 9.2.1-1)
REM options -cpp -mtune=generic -march=x86-64 -g -O0 -fpre-include=/usr/include/finclude/math-vector-fortran.h
REM seed -729314694 1426614231 -173197087 -1170272505 -865826433 -1300753915 2005465659 977770832 42501252 2129718343 15644096 -1342820218 -504907355 -1277145753 -1496266888 -868230625 788955852 -1618707208 -578828737 -582803435 -1062661975 707945539 -59316959 -1217301430 610576171 45360687 -1539999535 -1321664017 -1246139325 142475572 1476955895 -1542263392 1230074300
REM
CELL 1.54180   50.00000   50.00000   50.00000   90.00000   90.00000   90.00000
LATT -1
SFAC C  
C      1  0.4408470000000  0.5629200000000  0.5583910000000 1.0
C      1  0.4434390000000  0.5192930000000  0.5856330000000 1.0
C      1  0.4408920000000  0.4693770000000  0.5821630000000 1.0
C      1  0.4427910000000  0.4277330000000  0.5554240000000 1.0
C      1  0.4404340000000  0.4206670000000  0.5066410000000 1.0
C      1  0.4398190000000  0.4173490000000  0.4573110000000 1.0
C      1  0.4356190000000  0.4555840000000  0.4267600000000 1.0
C      1  0.4491570000000  0.5001210000000  0.4052810000000 1.0
C      1  0.4383060000000  0.5415500000000  0.4298090000000 1.0
C      1  0.4489120000000  0.5805430000000  0.4623290000000 1.0
C      1  0.4420380000000  0.5869010000000  0.5145600000000 1.0
C      1  0.4806990000000  0.4543900000000  0.5148750000000 1.0
C      1  0.4740050000000  0.4532410000000  0.4828230000000 1.0
C      1  0.4883840000000  0.4646070000000  0.4595150000000 1.0
C      1  0.4745870000000  0.4917500000000  0.4517620000000 1.0
C      1  0.4884860000000  0.5183250000000  0.4540900000000 1.0
C      1  0.4752000000000  0.5370100000000  0.4742000000000 1.0
C      1  0.4895380000000  0.5512080000000  0.4965760000000 1.0
C      1  0.4769820000000  0.5414610000000  0.5223980000000 1.0
C      1  0.4900450000000  0.5254530000000  0.5438600000000 1.0
C      1  0.4773990000000  0.4978880000000  0.5422500000000 1.0
C      1  0.4925140000000  0.4714550000000  0.5423950000000 1.0
C      1  0.4327610000000  0.5531720000000  0.4998790000000 1.0
C      1  0.4471350000000  0.5436910000000  0.5258990000000 1.0
C      1  0.4332960000000  0.5219700000000  0.5427360000000 1.0
C      1  0.4480280000000  0.4964660000000  0.5480040000000 1.0
C      1  0.4336170000000  0.4686330000000  0.5443890000000 1.0
C      1  0.4468520000000  0.4566900000000  0.5187160000000 1.0
C      1  0.4437280000000  0.4508290000000  0.4756730000000 1.0
C      1  0.4307850000000  0.4689390000000  0.4536290000000 1.0
C      1  0.4451980000000  0.4952810000000  0.4532180000000 1.0
C      1  0.4322440000000  0.5239190000000  0.4539810000000 1.0
C      1  0.4460550000000  0.5384270000000  0.4763310000000 1.0
C      1  0.5279280000000  0.5816600000000  0.4661470000000 1.0
C      1  0.5272720000000  0.5850960000000  0.5162020000000 1.0
C      1  0.5264090000000  0.5618310000000  0.5605940000000 1.0
C      1  0.5266100000000  0.5185370000000  0.5868700000000 1.0
C      1  0.5261500000000  0.4675820000000  0.5862110000000 1.0
C      1  0.5248840000000  0.4285450000000  0.5532680000000 1.0
C      1  0.5242360000000  0.4113350000000  0.5056160000000 1.0
C      1  0.5233570000000  0.4171460000000  0.4537980000000 1.0
C      1  0.5263210000000  0.4547910000000  0.4172300000000 1.0
C      1  0.5280150000000  0.5071150000000  0.4117490000000 1.0
C      1  0.5262090000000  0.5581550000000  0.4223640000000 1.0
C      1  0.4972750000000  0.4678050000000  0.5861030000000 1.0
C      1  0.4962550000000  0.4262070000000  0.5552400000000 1.0
C      1  0.4957690000000  0.4074200000000  0.5069310000000 1.0
C      1  0.4943360000000  0.4164170000000  0.4545750000000 1.0
C      1  0.4966210000000  0.4552890000000  0.4152740000000 1.0
C      1  0.4997610000000  0.5081510000000  0.4077620000000 1.0
C      1  0.4968840000000  0.5574330000000  0.4248480000000 1.0
C      1  0.4994360000000  0.5875700000000  0.4663250000000 1.0
C      1  0.4984750000000  0.5926540000000  0.5180420000000 1.0
C      1  0.4974050000000  0.5670810000000  0.5649390000000 1.0
C      1  0.4974600000000  0.5198680000000  0.5904140000000 1.0
C      1  0.4039810000000  0.4700740000000  0.5384670000000 1.0
C      1  0.3962730000000  0.4582880000000  0.5136750000000 1.0
C      1  0.3951450000000  0.4592090000000  0.4861130000000 1.0
C      1  0.4017020000000  0.4710460000000  0.4611390000000 1.0
C      1  0.3920180000000  0.4967690000000  0.4567370000000 1.0
C      1  0.4024500000000  0.5225880000000  0.4575890000000 1.0
C      1  0.3927220000000  0.5395720000000  0.4773010000000 1.0
C      1  0.4029630000000  0.5504170000000  0.5007050000000 1.0
C      1  0.3930300000000  0.5403290000000  0.5247950000000 1.0
C      1  0.4038020000000  0.5215090000000  0.5425660000000 1.0
C      1  0.3928410000000  0.4954830000000  0.5437440000000 1.0
C      1  0.6188570000000  0.5020920000000  0.5468840000000 1.0
C      1  0.6264340000000  0.4798410000000  0.5340620000000 1.0
C      1  0.6269070000000  0.4647620000000  0.5120150000000 1.0
C      1  0.6185120000000  0.4594390000000  0.4871990000000 1.0
C      1  0.6060300000000  0.4676680000000  0.4639210000000 1.0
C      1  0.6158320000000  0.4910630000000  0.4529610000000 1.0
C      1  0.6060540000000  0.5168890000000  0.4544670000000 1.0
C      1  0.6157210000000  0.5324570000000  0.4757320000000 1.0
C      1  0.6061900000000  0.5484300000000  0.4968170000000 1.0
C      1  0.6150260000000  0.5415810000000  0.5224330000000 1.0
C      1  0.6072990000000  0.5272560000000  0.5451080000000 1.0
C      1  0.5659110000000  0.4985990000000  0.5549430000000 1.0
C      1  0.5640070000000  0.4653290000000  0.5440780000000 1.0
C      1  0.5715220000000  0.4486830000000  0.5205030000000 1.0
C      1  0.5598710000000  0.4533870000000  0.4931860000000 1.0
C      1  0.5761720000000  0.4669280000000  0.4635440000000 1.0
C      1  0.5631300000000  0.4903370000000  0.4474750000000 1.0
C      1  0.5765530000000  0.5184520000000  0.4505140000000 1.0
C      1  0.5628810000000  0.5379560000000  0.4718640000000 1.0
C      1  0.5767470000000  0.5530970000000  0.4961210000000 1.0
C      1  0.5647480000000  0.5475360000000  0.5253490000000 1.0
C      1  0.5776170000000  0.5280490000000  0.5487990000000 1.0
C      1  0.4839490000000  0.4824320000000  0.4095820000000 1.0
C      1  0.4858170000000  0.5291620000000  0.4241550000000 1.0
C      1  0.4829450000000  0.5776070000000  0.4431660000000 1.0
C      1  0.4857910000000  0.5818960000000  0.4926860000000 1.0
C      1  0.4839220000000  0.5808470000000  0.5415560000000 1.0
C      1  0.4840260000000  0.5400280000000  0.5709800000000 1.0
C      1  0.4836070000000  0.4932180000000  0.5925430000000 1.0
C      1  0.4829070000000  0.4446520000000  0.5744410000000 1.0
C      1  0.4819930000000  0.4140160000000  0.5322700000000 1.0
C      1  0.4814480000000  0.4096800000000  0.4812730000000 1.0
C      1  0.4824150000000  0.4408050000000  0.4392380000000 1.0
C      1  0.5209500000000  0.4650870000000  0.4633400000000 1.0
C      1  0.5324420000000  0.4910170000000  0.4527190000000 1.0
C      1  0.5175620000000  0.5144610000000  0.4633320000000 1.0
C      1  0.5328010000000  0.5380140000000  0.4727760000000 1.0
C      1  0.5210610000000  0.5516390000000  0.4970230000000 1.0
C      1  0.5351100000000  0.5420350000000  0.5220720000000 1.0
C      1  0.5215670000000  0.5268160000000  0.5441060000000 1.0
C      1  0.5363460000000  0.4997910000000  0.5479630000000 1.0
C      1  0.5255280000000  0.4711130000000  0.5426150000000 1.0
C      1  0.5152960000000  0.4519000000000  0.5172590000000 1.0
C      1  0.5305970000000  0.4612300000000  0.4924450000000 1.0
C      1  0.5410650000000  0.4931040000000  0.5915140000000 1.0
C      1  0.5394700000000  0.4442480000000  0.5737330000000 1.0
C      1  0.5388650000000  0.4172160000000  0.5301900000000 1.0
C      1  0.5381220000000  0.4100050000000  0.4789390000000 1.0
C      1  0.5346310000000  0.4435890000000  0.4448280000000 1.0
C      1  0.5410180000000  0.4806170000000  0.4102480000000 1.0
C      1  0.5418020000000  0.5335250000000  0.4157750000000 1.0
C      1  0.5416730000000  0.5757240000000  0.4405310000000 1.0
C      1  0.5429510000000  0.5884720000000  0.4903550000000 1.0
C      1  0.5410910000000  0.5809330000000  0.5424620000000 1.0
C      1  0.5414500000000  0.5430310000000  0.5788890000000 1.0
C      1  0.4462800000000  0.5691710000000  0.4359680000000 1.0
C      1  0.4573100000000  0.5880550000000  0.4896780000000 1.0
C      1  0.4541700000000  0.5835510000000  0.5416060000000 1.0
C      1  0.4546950000000  0.5433200000000  0.5754390000000 1.0
C      1  0.4542440000000  0.4936030000000  0.5916780000000 1.0
C      1  0.4540060000000  0.4446690000000  0.5747830000000 1.0
C      1  0.4529560000000  0.4152620000000  0.5323710000000 1.0
C      1  0.4520330000000  0.4085110000000  0.4824270000000 1.0
C      1  0.4524860000000  0.4333180000000  0.4359040000000 1.0
C      1  0.4474310000000  0.4715650000000  0.4054440000000 1.0
C      1  0.4575300000000  0.5272430000000  0.4130850000000 1.0
C      1  0.5646290000000  0.4413990000000  0.4509200000000 1.0
C      1  0.5674340000000  0.4818230000000  0.4198230000000 1.0
C      1  0.5688770000000  0.5372390000000  0.4279850000000 1.0
C      1  0.5675590000000  0.5626880000000  0.4426820000000 1.0
C      1  0.5700530000000  0.5807680000000  0.4911020000000 1.0
C      1  0.5677230000000  0.5736160000000  0.5384740000000 1.0
C      1  0.5692790000000  0.5411480000000  0.5734250000000 1.0
C      1  0.5683880000000  0.4944610000000  0.5840080000000 1.0
C      1  0.5669240000000  0.4486280000000  0.5679220000000 1.0
C      1  0.5665260000000  0.4219730000000  0.5275210000000 1.0
C      1  0.5631570000000  0.4265380000000  0.4771600000000 1.0
C      1  0.5224980000000  0.5026520000000  0.5059220000000 1.0
C      1  0.4212080000000  0.4982130000000  0.5011910000000 1.0
C      1  0.3944460000000  0.4993420000000  0.5015710000000 1.0
C      1  0.5765110000000  0.4992930000000  0.5037150000000 1.0
C      1  0.4700030000000  0.4945290000000  0.4987190000000 1.0
C      1  0.6020040000000  0.5045050000000  0.5037890000000 1.0
C      1  0.4444160000000  0.4812740000000  0.4997180000000 1.0
C      1  0.5498330000000  0.4985550000000  0.5057680000000 1.0
C      1  0.4970200000000  0.4935450000000  0.5027100000000 1.0
END
