TITL C-3577077-324-312 6.59466897865148e-07 125000 -821.844210509833 0 0 131 (C1) n - 1
REM
REM in /home/bkarasulu/work/CARBON/AIRSS/Generating-Clusters/EDIP-Nigel-Params/with-SteepDescent/Higher-Symm/SD-CG/HFTN-CG
REM
REM
REM
REM
REM
REM ./C.cell (12c818d87b63d06a65506943cc24bca4)
REM
REM compiler GCC version 9.2.1 20190827 (Red Hat 9.2.1-1)
REM options -cpp -mtune=generic -march=x86-64 -g -O0 -fpre-include=/usr/include/finclude/math-vector-fortran.h
REM seed -716727158 1654607249 -344356069 1799619225 -975368326 1077664831 -732675168 1482581249 -200493670 1267982965 1292517090 74803297 351919481 -961880071 1643467622 1752097254 889466358 -2036883369 480893466 -173662376 866232295 -160697864 -934768784 189114028 952084079 1456360678 78675687 753173776 -2132522625 -1594978241 -795081274 -1391760868 -296779427
REM
CELL 1.54180   50.00000   50.00000   50.00000   90.00000   90.00000   90.00000
LATT -1
SFAC C  
C      1  0.5908380000000  0.5185420000000  0.4948760000000 1.0
C      1  0.5581000000000  0.5262940000000  0.5636330000000 1.0
C      1  0.4877480000000  0.5311490000000  0.5866250000000 1.0
C      1  0.4212000000000  0.5325750000000  0.5453800000000 1.0
C      1  0.4117070000000  0.5222360000000  0.4690710000000 1.0
C      1  0.4677280000000  0.5367820000000  0.4181750000000 1.0
C      1  0.5482540000000  0.5293320000000  0.4220270000000 1.0
C      1  0.4813470000000  0.5506140000000  0.4744100000000 1.0
C      1  0.5148900000000  0.5410780000000  0.4555060000000 1.0
C      1  0.5373570000000  0.5357930000000  0.4762290000000 1.0
C      1  0.5320660000000  0.5442260000000  0.5269770000000 1.0
C      1  0.5053050000000  0.5469310000000  0.5434670000000 1.0
C      1  0.4721920000000  0.5413870000000  0.5289340000000 1.0
C      1  0.4624520000000  0.5390860000000  0.4977100000000 1.0
C      1  0.4228120000000  0.4693220000000  0.4732810000000 1.0
C      1  0.4602030000000  0.4864690000000  0.4230080000000 1.0
C      1  0.5392600000000  0.4786180000000  0.4188570000000 1.0
C      1  0.5809130000000  0.4674560000000  0.4875370000000 1.0
C      1  0.5722500000000  0.4800840000000  0.5631480000000 1.0
C      1  0.4927100000000  0.4793640000000  0.5839940000000 1.0
C      1  0.4184340000000  0.4835610000000  0.5594210000000 1.0
C      1  0.4839480000000  0.3785490000000  0.5130700000000 1.0
C      1  0.4882620000000  0.3777470000000  0.4853220000000 1.0
C      1  0.5044560000000  0.3890160000000  0.4652280000000 1.0
C      1  0.5354430000000  0.3880910000000  0.4701910000000 1.0
C      1  0.5403630000000  0.3797150000000  0.4964500000000 1.0
C      1  0.5270350000000  0.3880710000000  0.5195430000000 1.0
C      1  0.5064750000000  0.3710740000000  0.5284720000000 1.0
C      1  0.5575460000000  0.4692620000000  0.5396990000000 1.0
C      1  0.4797280000000  0.4549130000000  0.5724060000000 1.0
C      1  0.4353250000000  0.4597750000000  0.5531950000000 1.0
C      1  0.4446190000000  0.4463230000000  0.4721670000000 1.0
C      1  0.4746680000000  0.4634960000000  0.4364920000000 1.0
C      1  0.5248630000000  0.4561700000000  0.4361440000000 1.0
C      1  0.5726420000000  0.4423320000000  0.5005490000000 1.0
C      1  0.5359320000000  0.4200990000000  0.4680810000000 1.0
C      1  0.5429710000000  0.4347230000000  0.4952040000000 1.0
C      1  0.5196820000000  0.4168700000000  0.5203700000000 1.0
C      1  0.4926340000000  0.4192510000000  0.5375080000000 1.0
C      1  0.4712690000000  0.4037110000000  0.5230060000000 1.0
C      1  0.4583860000000  0.4225800000000  0.5002750000000 1.0
C      1  0.5043720000000  0.4191810000000  0.4678060000000 1.0
C      1  0.5557230000000  0.5697480000000  0.4834700000000 1.0
C      1  0.5479060000000  0.5713740000000  0.5314680000000 1.0
C      1  0.5059630000000  0.5767320000000  0.5545630000000 1.0
C      1  0.4640650000000  0.5701890000000  0.5326150000000 1.0
C      1  0.4466310000000  0.5744190000000  0.4884260000000 1.0
C      1  0.4737700000000  0.5743060000000  0.4532230000000 1.0
C      1  0.5211620000000  0.5705710000000  0.4502780000000 1.0
C      1  0.5330720000000  0.5939580000000  0.5191190000000 1.0
C      1  0.5058670000000  0.5951510000000  0.5303040000000 1.0
C      1  0.4845130000000  0.5826970000000  0.5133690000000 1.0
C      1  0.4675540000000  0.5967140000000  0.4920260000000 1.0
C      1  0.4846150000000  0.5988190000000  0.4687380000000 1.0
C      1  0.5121260000000  0.5844040000000  0.4758260000000 1.0
C      1  0.5365450000000  0.5922430000000  0.4901760000000 1.0
C      1  0.5449610000000  0.5068700000000  0.4740200000000 1.0
C      1  0.5358200000000  0.4912950000000  0.4973850000000 1.0
C      1  0.5017910000000  0.4942670000000  0.5341300000000 1.0
C      1  0.4718970000000  0.4983410000000  0.5378320000000 1.0
C      1  0.4549480000000  0.4925580000000  0.5136880000000 1.0
C      1  0.4640470000000  0.5099700000000  0.4886390000000 1.0
C      1  0.4907670000000  0.5018460000000  0.4822130000000 1.0
C      1  0.4258410000000  0.4950710000000  0.5842790000000 1.0
C      1  0.4114890000000  0.4737990000000  0.4992700000000 1.0
C      1  0.4306520000000  0.4838660000000  0.4272790000000 1.0
C      1  0.5173490000000  0.4860410000000  0.4016070000000 1.0
C      1  0.5765220000000  0.4711710000000  0.4600190000000 1.0
C      1  0.5984950000000  0.4870540000000  0.5549360000000 1.0
C      1  0.5216570000000  0.4813990000000  0.5814080000000 1.0
C      1  0.6003700000000  0.4751310000000  0.5292860000000 1.0
C      1  0.5298340000000  0.4546680000000  0.5742150000000 1.0
C      1  0.4460210000000  0.4794340000000  0.5963660000000 1.0
C      1  0.4141890000000  0.4497060000000  0.5124950000000 1.0
C      1  0.4286640000000  0.4553060000000  0.4284070000000 1.0
C      1  0.5018240000000  0.4630130000000  0.3955180000000 1.0
C      1  0.5690260000000  0.4483770000000  0.4455880000000 1.0
C      1  0.5038550000000  0.5056060000000  0.4178850000000 1.0
C      1  0.5672860000000  0.4993270000000  0.4555780000000 1.0
C      1  0.5561090000000  0.4936560000000  0.5201670000000 1.0
C      1  0.5205600000000  0.5032690000000  0.5586170000000 1.0
C      1  0.4565210000000  0.5047560000000  0.5628480000000 1.0
C      1  0.4239460000000  0.4977220000000  0.5124150000000 1.0
C      1  0.4528500000000  0.5091470000000  0.4603780000000 1.0
C      1  0.5646350000000  0.5435610000000  0.4423520000000 1.0
C      1  0.5786990000000  0.5366780000000  0.5166040000000 1.0
C      1  0.5381590000000  0.5451540000000  0.5757340000000 1.0
C      1  0.4658930000000  0.5499120000000  0.5767140000000 1.0
C      1  0.4188780000000  0.5452760000000  0.5183590000000 1.0
C      1  0.4171380000000  0.5462390000000  0.4530150000000 1.0
C      1  0.4947300000000  0.5512050000000  0.4148950000000 1.0
C      1  0.4511290000000  0.4449320000000  0.4426980000000 1.0
C      1  0.4983590000000  0.4510110000000  0.4208440000000 1.0
C      1  0.5449460000000  0.4345380000000  0.4428650000000 1.0
C      1  0.5795690000000  0.4506680000000  0.5285100000000 1.0
C      1  0.5320440000000  0.4560380000000  0.5466470000000 1.0
C      1  0.4512530000000  0.4570110000000  0.5780670000000 1.0
C      1  0.4394360000000  0.4453380000000  0.5249900000000 1.0
C      1  0.5566680000000  0.5015780000000  0.4276750000000 1.0
C      1  0.5841270000000  0.4899990000000  0.5069020000000 1.0
C      1  0.5554690000000  0.4999910000000  0.5761450000000 1.0
C      1  0.4747020000000  0.5030710000000  0.5879050000000 1.0
C      1  0.4130260000000  0.5040080000000  0.5391960000000 1.0
C      1  0.4262230000000  0.4947690000000  0.4559900000000 1.0
C      1  0.4757270000000  0.5090630000000  0.4121130000000 1.0
C      1  0.5119510000000  0.5310450000000  0.5679700000000 1.0
C      1  0.4509610000000  0.5332960000000  0.5550400000000 1.0
C      1  0.4212130000000  0.5237560000000  0.4973360000000 1.0
C      1  0.4530170000000  0.5366110000000  0.4455690000000 1.0
C      1  0.5170670000000  0.5312830000000  0.4253600000000 1.0
C      1  0.5854530000000  0.5221590000000  0.4647820000000 1.0
C      1  0.5556740000000  0.5239280000000  0.5332740000000 1.0
C      1  0.5283390000000  0.4625610000000  0.4888750000000 1.0
C      1  0.5068420000000  0.4638410000000  0.5325580000000 1.0
C      1  0.4841240000000  0.4478110000000  0.5429980000000 1.0
C      1  0.4629780000000  0.4631620000000  0.5132240000000 1.0
C      1  0.4674000000000  0.4611610000000  0.4835120000000 1.0
C      1  0.4875000000000  0.4759620000000  0.4653250000000 1.0
C      1  0.5153430000000  0.4657360000000  0.4626440000000 1.0
C      1  0.4354110000000  0.5687500000000  0.4598220000000 1.0
C      1  0.4960740000000  0.5746900000000  0.4319460000000 1.0
C      1  0.5535400000000  0.5684930000000  0.4522380000000 1.0
C      1  0.5708480000000  0.5643810000000  0.5103340000000 1.0
C      1  0.5379690000000  0.5721200000000  0.5628700000000 1.0
C      1  0.4749850000000  0.5745020000000  0.5622280000000 1.0
C      1  0.4361600000000  0.5693190000000  0.5163190000000 1.0
C      1  0.5102960000000  0.5066360000000  0.5046070000000 1.0
C      1  0.5196400000000  0.5377320000000  0.5010260000000 1.0
C      1  0.4933470000000  0.4281520000000  0.4945080000000 1.0
C      1  0.5002060000000  0.5623870000000  0.4942210000000 1.0
C      1  0.5054620000000  0.4553390000000  0.5045230000000 1.0
END
