TITL C-3578209-2550-78 -3.06170526756372e-07 125000 -617.353469524034 0 0 99 (C1) n - 1
REM
REM in /home/bkarasulu/work/CARBON/AIRSS/Generating-Clusters/EDIP-Nigel-Params/with-SteepDescent/Higher-Symm/SD-CG/HFTN-CG
REM
REM
REM
REM
REM
REM ./C.cell (12c818d87b63d06a65506943cc24bca4)
REM
REM compiler GCC version 9.2.1 20190827 (Red Hat 9.2.1-1)
REM options -cpp -mtune=generic -march=x86-64 -g -O0 -fpre-include=/usr/include/finclude/math-vector-fortran.h
REM seed 916245591 1074146078 566596282 -838001184 1662223176 -1154841556 -1905346145 -1304345576 956966190 -1721679423 1343074703 -1992684604 1337173384 1093442483 -381538157 1429014791 -864529864 -1224468670 -365894533 -1328924917 529681681 1975149386 -763280684 -1226687977 1145812341 -271314117 1829150284 2079979639 413890873 -1768271951 -1652908646 665779353 1158443129
REM
CELL 1.54180   50.00000   50.00000   50.00000   90.00000   90.00000   90.00000
LATT -1
SFAC C  
C      1  0.5500040000000  0.4778270000000  0.5229870000000 1.0
C      1  0.4503800000000  0.5228550000000  0.5221350000000 1.0
C      1  0.4504230000000  0.4775950000000  0.4769440000000 1.0
C      1  0.5506770000000  0.5222390000000  0.4772360000000 1.0
C      1  0.5627790000000  0.5302490000000  0.4507480000000 1.0
C      1  0.4382420000000  0.4689770000000  0.4507930000000 1.0
C      1  0.4381490000000  0.5315050000000  0.5482660000000 1.0
C      1  0.5620220000000  0.4689850000000  0.5491030000000 1.0
C      1  0.5280980000000  0.5912500000000  0.4801180000000 1.0
C      1  0.4719020000000  0.4083820000000  0.4797830000000 1.0
C      1  0.4726450000000  0.5914420000000  0.5198370000000 1.0
C      1  0.5293690000000  0.4084380000000  0.5147840000000 1.0
C      1  0.4589410000000  0.4881650000000  0.4118070000000 1.0
C      1  0.5415340000000  0.5106680000000  0.4121300000000 1.0
C      1  0.5404230000000  0.4882670000000  0.5874630000000 1.0
C      1  0.4582900000000  0.5117930000000  0.5873850000000 1.0
C      1  0.5131470000000  0.5098280000000  0.4456830000000 1.0
C      1  0.4881460000000  0.4906530000000  0.4445150000000 1.0
C      1  0.4876600000000  0.5095760000000  0.5548260000000 1.0
C      1  0.5122640000000  0.4899350000000  0.5538060000000 1.0
C      1  0.5416060000000  0.4474000000000  0.5567680000000 1.0
C      1  0.4586550000000  0.5527640000000  0.5565530000000 1.0
C      1  0.4585260000000  0.4475340000000  0.4426230000000 1.0
C      1  0.5424380000000  0.5516520000000  0.4423880000000 1.0
C      1  0.5707100000000  0.4854440000000  0.5022270000000 1.0
C      1  0.4301450000000  0.5149740000000  0.5012700000000 1.0
C      1  0.4300690000000  0.4857660000000  0.4976340000000 1.0
C      1  0.5709120000000  0.5145860000000  0.4980730000000 1.0
C      1  0.5250880000000  0.4352190000000  0.5327480000000 1.0
C      1  0.4761080000000  0.5642460000000  0.5330470000000 1.0
C      1  0.4755930000000  0.4359870000000  0.4662100000000 1.0
C      1  0.5252110000000  0.5636090000000  0.4657990000000 1.0
C      1  0.5320560000000  0.5009800000000  0.5337030000000 1.0
C      1  0.4682390000000  0.4993980000000  0.5336890000000 1.0
C      1  0.4685180000000  0.5008710000000  0.4655610000000 1.0
C      1  0.5326180000000  0.4987810000000  0.4662260000000 1.0
C      1  0.5569510000000  0.5620110000000  0.5044630000000 1.0
C      1  0.4437220000000  0.4385350000000  0.5046470000000 1.0
C      1  0.4443990000000  0.5623950000000  0.4942830000000 1.0
C      1  0.5579590000000  0.4420660000000  0.4946580000000 1.0
C      1  0.4823250000000  0.5075280000000  0.4100290000000 1.0
C      1  0.5175020000000  0.4918760000000  0.4114550000000 1.0
C      1  0.5167890000000  0.5075340000000  0.5881310000000 1.0
C      1  0.4815100000000  0.4921020000000  0.5889890000000 1.0
C      1  0.5041010000000  0.4505900000000  0.5887600000000 1.0
C      1  0.4953340000000  0.5495050000000  0.5893570000000 1.0
C      1  0.4955860000000  0.4501410000000  0.4101840000000 1.0
C      1  0.5052670000000  0.5487430000000  0.4103190000000 1.0
C      1  0.4699900000000  0.4565290000000  0.5547810000000 1.0
C      1  0.5297630000000  0.5433360000000  0.5553310000000 1.0
C      1  0.5297990000000  0.4562770000000  0.4443960000000 1.0
C      1  0.4705290000000  0.5432690000000  0.4439350000000 1.0
C      1  0.4871450000000  0.4573520000000  0.5079030000000 1.0
C      1  0.5135610000000  0.5428980000000  0.5076730000000 1.0
C      1  0.5132020000000  0.4574110000000  0.4917290000000 1.0
C      1  0.4873810000000  0.5427870000000  0.4913670000000 1.0
C      1  0.5503280000000  0.5214900000000  0.5463310000000 1.0
C      1  0.4496540000000  0.4788380000000  0.5458640000000 1.0
C      1  0.4501060000000  0.5214380000000  0.4531480000000 1.0
C      1  0.5507080000000  0.4776630000000  0.4536760000000 1.0
C      1  0.5253010000000  0.5338630000000  0.4254190000000 1.0
C      1  0.4752360000000  0.4649480000000  0.4249180000000 1.0
C      1  0.4749080000000  0.5350000000000  0.5744210000000 1.0
C      1  0.5243310000000  0.4652720000000  0.5737490000000 1.0
C      1  0.4801550000000  0.4127660000000  0.5232640000000 1.0
C      1  0.5214110000000  0.5863060000000  0.5256470000000 1.0
C      1  0.5206860000000  0.4134550000000  0.4755450000000 1.0
C      1  0.4805500000000  0.5871090000000  0.4748660000000 1.0
C      1  0.4389320000000  0.4940250000000  0.4330210000000 1.0
C      1  0.5617860000000  0.5048560000000  0.4332430000000 1.0
C      1  0.5610260000000  0.4940740000000  0.5668050000000 1.0
C      1  0.4384230000000  0.5063470000000  0.5659640000000 1.0
C      1  0.5159200000000  0.4843290000000  0.4840180000000 1.0
C      1  0.4842310000000  0.5156530000000  0.4841450000000 1.0
C      1  0.4845480000000  0.4844870000000  0.5157760000000 1.0
C      1  0.5163370000000  0.5158230000000  0.5152410000000 1.0
C      1  0.4815270000000  0.5362140000000  0.4176890000000 1.0
C      1  0.5190620000000  0.4630710000000  0.4180130000000 1.0
C      1  0.5187180000000  0.5363920000000  0.5815890000000 1.0
C      1  0.4805260000000  0.4633830000000  0.5812490000000 1.0
C      1  0.5429390000000  0.5878760000000  0.5060600000000 1.0
C      1  0.4563230000000  0.4121260000000  0.5054600000000 1.0
C      1  0.4581980000000  0.5884670000000  0.4941200000000 1.0
C      1  0.5479420000000  0.4144730000000  0.4894210000000 1.0
C      1  0.4323750000000  0.4695730000000  0.5226680000000 1.0
C      1  0.5676460000000  0.5310760000000  0.5229700000000 1.0
C      1  0.5687950000000  0.4666670000000  0.4775500000000 1.0
C      1  0.4330580000000  0.5312100000000  0.4763570000000 1.0
C      1  0.5108630000000  0.4408710000000  0.4660770000000 1.0
C      1  0.4893360000000  0.5593000000000  0.4654850000000 1.0
C      1  0.4893420000000  0.4400940000000  0.5332070000000 1.0
C      1  0.5112890000000  0.5595140000000  0.5335690000000 1.0
C      1  0.5359110000000  0.4533150000000  0.5108530000000 1.0
C      1  0.4646690000000  0.5474770000000  0.5102470000000 1.0
C      1  0.4643750000000  0.4528280000000  0.4889480000000 1.0
C      1  0.5365150000000  0.5471920000000  0.4887940000000 1.0
C      1  0.4988450000000  0.4009370000000  0.4993610000000 1.0
C      1  0.5015110000000  0.5976060000000  0.4939840000000 1.0
C      1  0.5002390000000  0.5001130000000  0.4997990000000 1.0
END
