TITL C-3577076-40-527 -6.28984178786901e-07 125000 -437.367649772614 0 0 72 (C1) n - 1
REM
REM in /home/bkarasulu/work/CARBON/AIRSS/Generating-Clusters/EDIP-Nigel-Params/with-SteepDescent/Higher-Symm/SD-CG/HFTN-CG
REM
REM
REM
REM
REM
REM ./C.cell (12c818d87b63d06a65506943cc24bca4)
REM
REM compiler GCC version 9.2.1 20190827 (Red Hat 9.2.1-1)
REM options -cpp -mtune=generic -march=x86-64 -g -O0 -fpre-include=/usr/include/finclude/math-vector-fortran.h
REM seed -1735699898 -1882037452 -1942773326 590503361 286508084 -971181066 -971190370 -1402258913 1504957801 1673810775 618513112 -2026263473 1800160948 939412134 -1165226952 1757266537 585139164 -1638307766 1288105526 383186252 434718095 1112633616 101874543 -784792743 -2107939785 1459527288 2052807885 1443854326 -256952145 -1888656422 1710395433 -1955308200 -616891059
REM
CELL 1.54180   50.00000   50.00000   50.00000   90.00000   90.00000   90.00000
LATT -1
SFAC C  
C      1  0.4779900000000  0.5048460000000  0.4504220000000 1.0
C      1  0.5219940000000  0.5048010000000  0.4504100000000 1.0
C      1  0.4547320000000  0.4712730000000  0.5202250000000 1.0
C      1  0.5450630000000  0.4712410000000  0.5204090000000 1.0
C      1  0.5140410000000  0.4563060000000  0.5822140000000 1.0
C      1  0.4855440000000  0.4561320000000  0.5822560000000 1.0
C      1  0.4844600000000  0.4299240000000  0.4574450000000 1.0
C      1  0.5155180000000  0.4299190000000  0.4574860000000 1.0
C      1  0.5582110000000  0.4726120000000  0.4618070000000 1.0
C      1  0.4417870000000  0.4726430000000  0.4616950000000 1.0
C      1  0.5672220000000  0.4629210000000  0.5067760000000 1.0
C      1  0.4326070000000  0.4629030000000  0.5065730000000 1.0
C      1  0.5150280000000  0.5457780000000  0.4298060000000 1.0
C      1  0.4850430000000  0.5457890000000  0.4298330000000 1.0
C      1  0.5347380000000  0.5273410000000  0.5490540000000 1.0
C      1  0.4652020000000  0.5271140000000  0.5490960000000 1.0
C      1  0.5747390000000  0.5048650000000  0.4468430000000 1.0
C      1  0.4252880000000  0.5049150000000  0.4467600000000 1.0
C      1  0.4739580000000  0.5643070000000  0.5108610000000 1.0
C      1  0.5263690000000  0.5644760000000  0.5107010000000 1.0
C      1  0.4812570000000  0.5435460000000  0.5665200000000 1.0
C      1  0.5186040000000  0.5440760000000  0.5661740000000 1.0
C      1  0.5709590000000  0.4989530000000  0.4750210000000 1.0
C      1  0.4290610000000  0.4990010000000  0.4749430000000 1.0
C      1  0.4840960000000  0.4792930000000  0.5517740000000 1.0
C      1  0.5155480000000  0.4795070000000  0.5517660000000 1.0
C      1  0.5150770000000  0.5690720000000  0.4840730000000 1.0
C      1  0.4851340000000  0.5690600000000  0.4841900000000 1.0
C      1  0.4847060000000  0.5818760000000  0.5320480000000 1.0
C      1  0.5156920000000  0.5823100000000  0.5316850000000 1.0
C      1  0.5383590000000  0.4991110000000  0.5544490000000 1.0
C      1  0.4613410000000  0.4989270000000  0.5544450000000 1.0
C      1  0.4427610000000  0.5185990000000  0.4963230000000 1.0
C      1  0.5572440000000  0.5185320000000  0.4963770000000 1.0
C      1  0.5195530000000  0.4850850000000  0.5093620000000 1.0
C      1  0.4803540000000  0.4850700000000  0.5093720000000 1.0
C      1  0.4850160000000  0.5727110000000  0.5620760000000 1.0
C      1  0.5164410000000  0.5734510000000  0.5617260000000 1.0
C      1  0.4838790000000  0.4246660000000  0.5083490000000 1.0
C      1  0.5159900000000  0.4247720000000  0.5084210000000 1.0
C      1  0.4423750000000  0.4502030000000  0.4829680000000 1.0
C      1  0.5575400000000  0.4502290000000  0.4831380000000 1.0
C      1  0.5715760000000  0.5133280000000  0.5235600000000 1.0
C      1  0.4283570000000  0.5134210000000  0.5234590000000 1.0
C      1  0.4850610000000  0.4679700000000  0.4837510000000 1.0
C      1  0.5148730000000  0.4679800000000  0.4837610000000 1.0
C      1  0.4412770000000  0.5374590000000  0.5355930000000 1.0
C      1  0.5587890000000  0.5374880000000  0.5355910000000 1.0
C      1  0.5613210000000  0.4884180000000  0.5375590000000 1.0
C      1  0.4384290000000  0.4883920000000  0.5373780000000 1.0
C      1  0.4845140000000  0.4547920000000  0.4385770000000 1.0
C      1  0.5155200000000  0.4547740000000  0.4386010000000 1.0
C      1  0.4726160000000  0.4396710000000  0.4844110000000 1.0
C      1  0.5273060000000  0.4396940000000  0.4844800000000 1.0
C      1  0.4849530000000  0.5223240000000  0.4730660000000 1.0
C      1  0.5150770000000  0.5222900000000  0.4730550000000 1.0
C      1  0.5305020000000  0.5201680000000  0.4270670000000 1.0
C      1  0.4695390000000  0.5202170000000  0.4270690000000 1.0
C      1  0.4719520000000  0.4764690000000  0.4564260000000 1.0
C      1  0.5280510000000  0.4764490000000  0.4564540000000 1.0
C      1  0.5278580000000  0.5117360000000  0.4979490000000 1.0
C      1  0.4721440000000  0.5117630000000  0.4979590000000 1.0
C      1  0.5584160000000  0.5190820000000  0.4295400000000 1.0
C      1  0.4416200000000  0.5191540000000  0.4294790000000 1.0
C      1  0.5530230000000  0.5530160000000  0.5115160000000 1.0
C      1  0.4472430000000  0.5530010000000  0.5115950000000 1.0
C      1  0.5251420000000  0.5493400000000  0.4651300000000 1.0
C      1  0.4749740000000  0.5494270000000  0.4651900000000 1.0
C      1  0.5147000000000  0.4379730000000  0.5368090000000 1.0
C      1  0.4849840000000  0.4377690000000  0.5368250000000 1.0
C      1  0.5286370000000  0.4442480000000  0.5611330000000 1.0
C      1  0.4710260000000  0.4440340000000  0.5611460000000 1.0
END
