TITL C-3577091-527-458 3.54384087816884e-07 125000 -757.642043204631 0 0 123 (C1) n - 1
REM
REM in /home/bkarasulu/work/CARBON/AIRSS/Generating-Clusters/EDIP-Nigel-Params/with-SteepDescent/Higher-Symm/SD-CG/HFTN-CG
REM
REM
REM
REM
REM
REM ./C.cell (12c818d87b63d06a65506943cc24bca4)
REM
REM compiler GCC version 9.2.1 20190827 (Red Hat 9.2.1-1)
REM options -cpp -mtune=generic -march=x86-64 -g -O0 -fpre-include=/usr/include/finclude/math-vector-fortran.h
REM seed -113377172 82128151 -1741655192 760335333 -625238767 1052586578 1827355661 -668615530 -1298729533 1911048507 1675158431 -465939986 -219002282 1059430716 2097588691 -675033771 1836981976 -1031256401 -732076274 1708112783 -1087188346 248694399 -792318653 2138025220 -1258773394 -1792332453 602942016 -1223308395 -1670732451 1529742756 571459209 -603187659 2021484615
REM
CELL 1.54180   50.00000   50.00000   50.00000   90.00000   90.00000   90.00000
LATT -1
SFAC C  
C      1  0.5138950000000  0.6015190000000  0.4650270000000 1.0
C      1  0.4078250000000  0.4624820000000  0.4650670000000 1.0
C      1  0.5793800000000  0.4362140000000  0.4690440000000 1.0
C      1  0.4611800000000  0.5566940000000  0.5011150000000 1.0
C      1  0.4734010000000  0.4383270000000  0.5060250000000 1.0
C      1  0.5630580000000  0.5089670000000  0.5096510000000 1.0
C      1  0.4135750000000  0.4914600000000  0.4668710000000 1.0
C      1  0.5514300000000  0.4269470000000  0.4699510000000 1.0
C      1  0.5361230000000  0.5814020000000  0.4655080000000 1.0
C      1  0.4620310000000  0.6000970000000  0.5064970000000 1.0
C      1  0.4340550000000  0.4165850000000  0.5059150000000 1.0
C      1  0.6016920000000  0.4845840000000  0.5096720000000 1.0
C      1  0.5036580000000  0.4380870000000  0.5020840000000 1.0
C      1  0.5509960000000  0.5353290000000  0.4995330000000 1.0
C      1  0.4475290000000  0.5293120000000  0.4975780000000 1.0
C      1  0.4413110000000  0.4498510000000  0.5525610000000 1.0
C      1  0.5698780000000  0.4717680000000  0.5532170000000 1.0
C      1  0.4936730000000  0.5633720000000  0.5449960000000 1.0
C      1  0.5272640000000  0.5050320000000  0.4648620000000 1.0
C      1  0.4818230000000  0.5255830000000  0.4588060000000 1.0
C      1  0.4906240000000  0.4743490000000  0.4616750000000 1.0
C      1  0.4955780000000  0.4377180000000  0.4298380000000 1.0
C      1  0.5559090000000  0.5223520000000  0.4289420000000 1.0
C      1  0.4501300000000  0.5420550000000  0.4277300000000 1.0
C      1  0.4197530000000  0.4933990000000  0.5680180000000 1.0
C      1  0.5438710000000  0.4343740000000  0.5730750000000 1.0
C      1  0.5385820000000  0.5697590000000  0.5657610000000 1.0
C      1  0.5970630000000  0.5082660000000  0.4923840000000 1.0
C      1  0.4419570000000  0.5873830000000  0.4885150000000 1.0
C      1  0.4617460000000  0.4125360000000  0.4933970000000 1.0
C      1  0.4170420000000  0.4381100000000  0.4939570000000 1.0
C      1  0.5939840000000  0.4575460000000  0.4981500000000 1.0
C      1  0.4894990000000  0.6059070000000  0.4949390000000 1.0
C      1  0.4507370000000  0.4248710000000  0.5347720000000 1.0
C      1  0.5902930000000  0.4901810000000  0.5375200000000 1.0
C      1  0.4632570000000  0.5714640000000  0.5287590000000 1.0
C      1  0.5003850000000  0.5018740000000  0.4192630000000 1.0
C      1  0.5115130000000  0.5279840000000  0.4115370000000 1.0
C      1  0.4713690000000  0.4971530000000  0.4134440000000 1.0
C      1  0.5665030000000  0.4424560000000  0.5579620000000 1.0
C      1  0.5170560000000  0.5825760000000  0.5527280000000 1.0
C      1  0.4176380000000  0.4685300000000  0.5545120000000 1.0
C      1  0.5227300000000  0.4520210000000  0.4315600000000 1.0
C      1  0.5338770000000  0.5435020000000  0.4267210000000 1.0
C      1  0.4492160000000  0.5130960000000  0.4242140000000 1.0
C      1  0.5000200000000  0.5363260000000  0.4793360000000 1.0
C      1  0.4711410000000  0.4860890000000  0.4811060000000 1.0
C      1  0.5283060000000  0.4817550000000  0.4837210000000 1.0
C      1  0.4146250000000  0.5446810000000  0.5265060000000 1.0
C      1  0.4982610000000  0.3977150000000  0.5220760000000 1.0
C      1  0.5855630000000  0.5527550000000  0.5238480000000 1.0
C      1  0.5721850000000  0.5570580000000  0.4976200000000 1.0
C      1  0.4179740000000  0.5319730000000  0.5001950000000 1.0
C      1  0.5128150000000  0.4096410000000  0.5003580000000 1.0
C      1  0.4887750000000  0.5480700000000  0.5705260000000 1.0
C      1  0.4619140000000  0.4583600000000  0.5710140000000 1.0
C      1  0.5498420000000  0.4872230000000  0.5680780000000 1.0
C      1  0.5293670000000  0.5975970000000  0.5321750000000 1.0
C      1  0.4010670000000  0.4731240000000  0.5323490000000 1.0
C      1  0.5713690000000  0.4249030000000  0.5364170000000 1.0
C      1  0.5691400000000  0.4849650000000  0.4623070000000 1.0
C      1  0.4763370000000  0.5729060000000  0.4572050000000 1.0
C      1  0.4543030000000  0.4449770000000  0.4597310000000 1.0
C      1  0.5010470000000  0.5802870000000  0.5011330000000 1.0
C      1  0.4329210000000  0.4607440000000  0.5012490000000 1.0
C      1  0.5659160000000  0.4591690000000  0.5041430000000 1.0
C      1  0.5530290000000  0.5813390000000  0.4907840000000 1.0
C      1  0.4064860000000  0.5038250000000  0.4935530000000 1.0
C      1  0.5432870000000  0.4140010000000  0.4961270000000 1.0
C      1  0.4638970000000  0.4167810000000  0.4636470000000 1.0
C      1  0.5884960000000  0.5070840000000  0.4646050000000 1.0
C      1  0.4472580000000  0.5774190000000  0.4617220000000 1.0
C      1  0.5269880000000  0.4771190000000  0.5819580000000 1.0
C      1  0.5115810000000  0.5320150000000  0.5767250000000 1.0
C      1  0.4616430000000  0.4851710000000  0.5790930000000 1.0
C      1  0.5276280000000  0.5531270000000  0.4572960000000 1.0
C      1  0.4417140000000  0.4978930000000  0.4583510000000 1.0
C      1  0.5325310000000  0.4498510000000  0.4617950000000 1.0
C      1  0.4198470000000  0.4846120000000  0.5130470000000 1.0
C      1  0.5527820000000  0.4352750000000  0.5161480000000 1.0
C      1  0.5293550000000  0.5786070000000  0.5102340000000 1.0
C      1  0.4750860000000  0.4584470000000  0.4398830000000 1.0
C      1  0.5440610000000  0.4962070000000  0.4405340000000 1.0
C      1  0.4777560000000  0.5482740000000  0.4383910000000 1.0
C      1  0.4779750000000  0.4988690000000  0.5589510000000 1.0
C      1  0.5072060000000  0.4770980000000  0.5603930000000 1.0
C      1  0.5163190000000  0.5194270000000  0.5515540000000 1.0
C      1  0.5625080000000  0.5291880000000  0.5538690000000 1.0
C      1  0.4423320000000  0.5370940000000  0.5604970000000 1.0
C      1  0.4966130000000  0.4257610000000  0.5597450000000 1.0
C      1  0.4948850000000  0.5244830000000  0.5063610000000 1.0
C      1  0.4859430000000  0.4963180000000  0.5072800000000 1.0
C      1  0.5111870000000  0.4814520000000  0.5084740000000 1.0
C      1  0.4919310000000  0.5958260000000  0.4488890000000 1.0
C      1  0.4266790000000  0.4471610000000  0.4514590000000 1.0
C      1  0.5820670000000  0.4601630000000  0.4552930000000 1.0
C      1  0.5267760000000  0.4445630000000  0.5283840000000 1.0
C      1  0.5340110000000  0.5508520000000  0.5210500000000 1.0
C      1  0.4408650000000  0.5034530000000  0.5251080000000 1.0
C      1  0.4353860000000  0.5519680000000  0.4517910000000 1.0
C      1  0.4925700000000  0.4205270000000  0.4550800000000 1.0
C      1  0.5710240000000  0.5291030000000  0.4543230000000 1.0
C      1  0.4698600000000  0.5286760000000  0.5616660000000 1.0
C      1  0.4885980000000  0.4531410000000  0.5622510000000 1.0
C      1  0.5434280000000  0.5074550000000  0.5474160000000 1.0
C      1  0.5243390000000  0.4749800000000  0.5341060000000 1.0
C      1  0.5081020000000  0.5384140000000  0.5299830000000 1.0
C      1  0.4677890000000  0.4920790000000  0.5311000000000 1.0
C      1  0.4584560000000  0.4586090000000  0.4878810000000 1.0
C      1  0.5566660000000  0.4837500000000  0.4910520000000 1.0
C      1  0.4857860000000  0.5620030000000  0.4842970000000 1.0
C      1  0.5857540000000  0.5241280000000  0.5374440000000 1.0
C      1  0.4364780000000  0.5591550000000  0.5417970000000 1.0
C      1  0.4801580000000  0.4111150000000  0.5401950000000 1.0
C      1  0.5232860000000  0.4814400000000  0.4224920000000 1.0
C      1  0.4969030000000  0.5513500000000  0.4167150000000 1.0
C      1  0.4635570000000  0.4710020000000  0.4167740000000 1.0
C      1  0.5045160000000  0.4460850000000  0.4724190000000 1.0
C      1  0.5432510000000  0.5307080000000  0.4707120000000 1.0
C      1  0.4524490000000  0.5242060000000  0.4681050000000 1.0
C      1  0.4259640000000  0.5151930000000  0.5491740000000 1.0
C      1  0.5249510000000  0.4273330000000  0.5529630000000 1.0
C      1  0.5530290000000  0.5554300000000  0.5446190000000 1.0
END
