TITL C-3577090-796-258 1.88144758386794e-06 125000 -842.728346701503 0 0 137 (C1) n - 1
REM
REM in /home/bkarasulu/work/CARBON/AIRSS/Generating-Clusters/EDIP-Nigel-Params/with-SteepDescent/Higher-Symm/SD-CG/HFTN-CG
REM
REM
REM
REM
REM
REM ./C.cell (12c818d87b63d06a65506943cc24bca4)
REM
REM compiler GCC version 9.2.1 20190827 (Red Hat 9.2.1-1)
REM options -cpp -mtune=generic -march=x86-64 -g -O0 -fpre-include=/usr/include/finclude/math-vector-fortran.h
REM seed -1522125677 2041293448 -908714039 291323243 1625487616 354683999 725236790 659709945 2122774157 977339443 -1189317581 -865226122 -656542487 -793449055 2079189197 -718685736 -1771748003 560244191 -410498910 -1552605895 2081052086 -1697124071 814240115 -1578443466 -31522295 582004021 -784216259 -976398454 -226384005 1604813843 2004858601 1968855318 286042534
REM
CELL 1.54180   50.00000   50.00000   50.00000   90.00000   90.00000   90.00000
LATT -1
SFAC C  
C      1  0.4468610000000  0.4574230000000  0.4333780000000 1.0
C      1  0.4514650000000  0.5266830000000  0.4272970000000 1.0
C      1  0.4490980000000  0.5744850000000  0.4790180000000 1.0
C      1  0.4570640000000  0.5605150000000  0.5436080000000 1.0
C      1  0.4514230000000  0.5056300000000  0.5786670000000 1.0
C      1  0.4502040000000  0.4456700000000  0.5628630000000 1.0
C      1  0.4407560000000  0.4164800000000  0.4927120000000 1.0
C      1  0.4305760000000  0.4899330000000  0.5625850000000 1.0
C      1  0.4466620000000  0.4441350000000  0.5318500000000 1.0
C      1  0.4279640000000  0.4375690000000  0.4760960000000 1.0
C      1  0.4310970000000  0.4817150000000  0.4409550000000 1.0
C      1  0.4336050000000  0.5364860000000  0.4491590000000 1.0
C      1  0.4322750000000  0.5619710000000  0.5003110000000 1.0
C      1  0.4374080000000  0.5385690000000  0.5472760000000 1.0
C      1  0.5611020000000  0.4376370000000  0.4834080000000 1.0
C      1  0.5635200000000  0.4767710000000  0.4288890000000 1.0
C      1  0.5675590000000  0.5374280000000  0.4336640000000 1.0
C      1  0.5652830000000  0.5915810000000  0.4841260000000 1.0
C      1  0.5597700000000  0.5615960000000  0.5410150000000 1.0
C      1  0.5562300000000  0.4890730000000  0.5711170000000 1.0
C      1  0.5595790000000  0.4319870000000  0.5461910000000 1.0
C      1  0.4611730000000  0.5548520000000  0.5818060000000 1.0
C      1  0.4457580000000  0.4758080000000  0.6015000000000 1.0
C      1  0.4577750000000  0.3996970000000  0.5316830000000 1.0
C      1  0.4606270000000  0.4146990000000  0.4479730000000 1.0
C      1  0.4630380000000  0.4818410000000  0.4072320000000 1.0
C      1  0.4644830000000  0.5634190000000  0.4309250000000 1.0
C      1  0.4605030000000  0.5969170000000  0.5091190000000 1.0
C      1  0.4899230000000  0.5534160000000  0.5843670000000 1.0
C      1  0.4724120000000  0.4659030000000  0.6017800000000 1.0
C      1  0.4865210000000  0.4001190000000  0.5336290000000 1.0
C      1  0.4885480000000  0.4130690000000  0.4538620000000 1.0
C      1  0.4915880000000  0.4779710000000  0.4119410000000 1.0
C      1  0.4940090000000  0.5672700000000  0.4297230000000 1.0
C      1  0.4894470000000  0.5975050000000  0.5078950000000 1.0
C      1  0.4358620000000  0.4160980000000  0.5225270000000 1.0
C      1  0.4389540000000  0.4329910000000  0.4485790000000 1.0
C      1  0.4420400000000  0.4988630000000  0.4188180000000 1.0
C      1  0.4425510000000  0.5641410000000  0.4507480000000 1.0
C      1  0.4438640000000  0.5776300000000  0.5226380000000 1.0
C      1  0.4421690000000  0.5338590000000  0.5757970000000 1.0
C      1  0.4320040000000  0.4647290000000  0.5772180000000 1.0
C      1  0.5398190000000  0.4476130000000  0.4655720000000 1.0
C      1  0.5376600000000  0.4901190000000  0.4311210000000 1.0
C      1  0.5479130000000  0.5540430000000  0.4482050000000 1.0
C      1  0.5390380000000  0.5947790000000  0.4955600000000 1.0
C      1  0.5339380000000  0.5489880000000  0.5493220000000 1.0
C      1  0.5309570000000  0.4780280000000  0.5815200000000 1.0
C      1  0.5385450000000  0.4297140000000  0.5265900000000 1.0
C      1  0.5082060000000  0.5918800000000  0.5335160000000 1.0
C      1  0.5075450000000  0.5259700000000  0.5836940000000 1.0
C      1  0.5010300000000  0.4357220000000  0.5742040000000 1.0
C      1  0.5036460000000  0.4036430000000  0.5081130000000 1.0
C      1  0.5078580000000  0.4333720000000  0.4380530000000 1.0
C      1  0.5031240000000  0.5208580000000  0.4134960000000 1.0
C      1  0.5129150000000  0.5865240000000  0.4441910000000 1.0
C      1  0.5331790000000  0.4064860000000  0.5109000000000 1.0
C      1  0.5385190000000  0.4365960000000  0.4398780000000 1.0
C      1  0.5312380000000  0.5088280000000  0.4106780000000 1.0
C      1  0.5432210000000  0.5817890000000  0.4415260000000 1.0
C      1  0.5363090000000  0.5954960000000  0.5245680000000 1.0
C      1  0.5344470000000  0.5334920000000  0.5733260000000 1.0
C      1  0.5275920000000  0.4488690000000  0.5824760000000 1.0
C      1  0.5061080000000  0.5500610000000  0.4104010000000 1.0
C      1  0.4958620000000  0.5864600000000  0.4793200000000 1.0
C      1  0.5001280000000  0.5758620000000  0.5690170000000 1.0
C      1  0.4913890000000  0.4845600000000  0.6090080000000 1.0
C      1  0.4975170000000  0.4082960000000  0.5599190000000 1.0
C      1  0.4951420000000  0.3982810000000  0.4797210000000 1.0
C      1  0.4956610000000  0.4488370000000  0.4152560000000 1.0
C      1  0.5178410000000  0.4325290000000  0.4788010000000 1.0
C      1  0.5148010000000  0.4741740000000  0.4409170000000 1.0
C      1  0.5242100000000  0.5377300000000  0.4421290000000 1.0
C      1  0.5238220000000  0.5745540000000  0.4793300000000 1.0
C      1  0.5075170000000  0.5636700000000  0.5447260000000 1.0
C      1  0.5115340000000  0.4967760000000  0.5944500000000 1.0
C      1  0.5127970000000  0.4352810000000  0.5372350000000 1.0
C      1  0.4384500000000  0.4897530000000  0.4689190000000 1.0
C      1  0.4264310000000  0.5186020000000  0.4724650000000 1.0
C      1  0.4279110000000  0.5321630000000  0.5012240000000 1.0
C      1  0.4423550000000  0.5176560000000  0.5260240000000 1.0
C      1  0.4264120000000  0.4921800000000  0.5334300000000 1.0
C      1  0.4347070000000  0.4680870000000  0.5174820000000 1.0
C      1  0.4249160000000  0.4666740000000  0.4883100000000 1.0
C      1  0.5843210000000  0.4890910000000  0.4463810000000 1.0
C      1  0.5819060000000  0.5179150000000  0.4511560000000 1.0
C      1  0.5742560000000  0.5646490000000  0.4917290000000 1.0
C      1  0.5643360000000  0.5478950000000  0.5143160000000 1.0
C      1  0.5753280000000  0.4799630000000  0.5498170000000 1.0
C      1  0.5744260000000  0.4545280000000  0.5347700000000 1.0
C      1  0.5711760000000  0.4602830000000  0.5040350000000 1.0
C      1  0.3863490000000  0.4915550000000  0.4720040000000 1.0
C      1  0.3968040000000  0.5174570000000  0.4728450000000 1.0
C      1  0.3893980000000  0.5327330000000  0.4961490000000 1.0
C      1  0.3906120000000  0.5214390000000  0.5209700000000 1.0
C      1  0.3973000000000  0.4960700000000  0.5295530000000 1.0
C      1  0.3854840000000  0.4750820000000  0.5153870000000 1.0
C      1  0.3952450000000  0.4718020000000  0.4893940000000 1.0
C      1  0.5499780000000  0.4362970000000  0.5721110000000 1.0
C      1  0.5487590000000  0.4106400000000  0.4878340000000 1.0
C      1  0.5587310000000  0.4491490000000  0.4252370000000 1.0
C      1  0.5527420000000  0.5270090000000  0.4115960000000 1.0
C      1  0.5617510000000  0.5974000000000  0.4564560000000 1.0
C      1  0.5585020000000  0.5897510000000  0.5406560000000 1.0
C      1  0.5559270000000  0.5161900000000  0.5764470000000 1.0
C      1  0.4796710000000  0.5060700000000  0.5651400000000 1.0
C      1  0.4770620000000  0.4554540000000  0.5741080000000 1.0
C      1  0.4698800000000  0.4252480000000  0.4917590000000 1.0
C      1  0.4741620000000  0.4604470000000  0.4469260000000 1.0
C      1  0.4780360000000  0.5168420000000  0.4381070000000 1.0
C      1  0.4770890000000  0.5623120000000  0.4788860000000 1.0
C      1  0.4835710000000  0.5479750000000  0.5323170000000 1.0
C      1  0.5866120000000  0.5274680000000  0.5125880000000 1.0
C      1  0.5933940000000  0.4980260000000  0.5356620000000 1.0
C      1  0.6078870000000  0.4887210000000  0.5119320000000 1.0
C      1  0.5991280000000  0.4669070000000  0.4940570000000 1.0
C      1  0.5976950000000  0.4746030000000  0.4667000000000 1.0
C      1  0.6002390000000  0.5280950000000  0.4706990000000 1.0
C      1  0.5980220000000  0.5531680000000  0.4824040000000 1.0
C      1  0.4801180000000  0.5175080000000  0.5357310000000 1.0
C      1  0.4840210000000  0.4786880000000  0.5570990000000 1.0
C      1  0.4731790000000  0.4393570000000  0.5184070000000 1.0
C      1  0.4772900000000  0.4499490000000  0.4755460000000 1.0
C      1  0.4757480000000  0.4907160000000  0.4563330000000 1.0
C      1  0.4842720000000  0.5368750000000  0.4603010000000 1.0
C      1  0.4888350000000  0.5481130000000  0.5031050000000 1.0
C      1  0.5172520000000  0.5454290000000  0.4910550000000 1.0
C      1  0.5381670000000  0.5338520000000  0.5078640000000 1.0
C      1  0.4989860000000  0.4773480000000  0.5335480000000 1.0
C      1  0.4983620000000  0.4535200000000  0.5189160000000 1.0
C      1  0.5031160000000  0.4581620000000  0.4880760000000 1.0
C      1  0.5044840000000  0.4882310000000  0.4679730000000 1.0
C      1  0.5111760000000  0.5261670000000  0.4674570000000 1.0
C      1  0.5331490000000  0.5058980000000  0.5134970000000 1.0
C      1  0.5544000000000  0.4883210000000  0.5010000000000 1.0
C      1  0.5790740000000  0.5048830000000  0.4928570000000 1.0
C      1  0.5039180000000  0.5018180000000  0.5201080000000 1.0
END
