TITL C-3577084-3642-713 -2.68885531205973e-06 125000 -485.554817017801 0 0 79 (C1) n - 1
REM
REM in /home/bkarasulu/work/CARBON/AIRSS/Generating-Clusters/EDIP-Nigel-Params/with-SteepDescent/Higher-Symm/SD-CG/HFTN-CG
REM
REM
REM
REM
REM
REM ./C.cell (12c818d87b63d06a65506943cc24bca4)
REM
REM compiler GCC version 9.2.1 20190827 (Red Hat 9.2.1-1)
REM options -cpp -mtune=generic -march=x86-64 -g -O0 -fpre-include=/usr/include/finclude/math-vector-fortran.h
REM seed -1996915060 1792460639 -1196218452 -507593207 -813159654 -1431814074 1235252502 -1101462277 -306204226 -93860978 -657986160 -1887233837 1649867815 638387638 1336460711 2070886571 -2046313053 -1490688199 -1464863118 -558945918 -1473175442 1720907808 -1209643948 -1905232938 1192605860 -1253076698 10882981 208655246 1421121280 300422376 1180894359 -964505219 -232369042
REM
CELL 1.54180   50.00000   50.00000   50.00000   90.00000   90.00000   90.00000
LATT -1
SFAC C  
C      1  0.4742090000000  0.4658160000000  0.4334800000000 1.0
C      1  0.4603800000000  0.5150220000000  0.4350960000000 1.0
C      1  0.5007030000000  0.5495140000000  0.4279330000000 1.0
C      1  0.5404780000000  0.5139540000000  0.4307540000000 1.0
C      1  0.5240160000000  0.4658560000000  0.4339870000000 1.0
C      1  0.4745410000000  0.5364060000000  0.5636060000000 1.0
C      1  0.4566290000000  0.4881410000000  0.5702010000000 1.0
C      1  0.4975200000000  0.4573780000000  0.5760630000000 1.0
C      1  0.5395620000000  0.4877900000000  0.5751710000000 1.0
C      1  0.5252530000000  0.5367830000000  0.5726250000000 1.0
C      1  0.4725040000000  0.5065880000000  0.4836770000000 1.0
C      1  0.4898980000000  0.5261290000000  0.4950680000000 1.0
C      1  0.5174540000000  0.5177660000000  0.4868860000000 1.0
C      1  0.5137490000000  0.4911430000000  0.4685880000000 1.0
C      1  0.4870950000000  0.4816900000000  0.4796620000000 1.0
C      1  0.4795210000000  0.4889960000000  0.5281410000000 1.0
C      1  0.4949790000000  0.4731970000000  0.5069550000000 1.0
C      1  0.5234380000000  0.4887200000000  0.5058980000000 1.0
C      1  0.5160600000000  0.5147320000000  0.5306220000000 1.0
C      1  0.4865990000000  0.5220910000000  0.5235570000000 1.0
C      1  0.5506430000000  0.5142070000000  0.4584960000000 1.0
C      1  0.5315780000000  0.4527120000000  0.4595020000000 1.0
C      1  0.4710250000000  0.4612720000000  0.4635190000000 1.0
C      1  0.4517680000000  0.5164600000000  0.4649040000000 1.0
C      1  0.5021230000000  0.5484120000000  0.4588380000000 1.0
C      1  0.5473920000000  0.4875990000000  0.5466970000000 1.0
C      1  0.5297770000000  0.5393680000000  0.5423120000000 1.0
C      1  0.4670030000000  0.5521820000000  0.5393950000000 1.0
C      1  0.4523960000000  0.4811850000000  0.5409120000000 1.0
C      1  0.4995910000000  0.4534080000000  0.5460410000000 1.0
C      1  0.4283740000000  0.5240520000000  0.5362860000000 1.0
C      1  0.5166710000000  0.5648060000000  0.5310430000000 1.0
C      1  0.5670040000000  0.5075020000000  0.5368930000000 1.0
C      1  0.5263780000000  0.4422390000000  0.5380770000000 1.0
C      1  0.4496300000000  0.4518240000000  0.5358270000000 1.0
C      1  0.4414610000000  0.4655670000000  0.4705560000000 1.0
C      1  0.5135730000000  0.4315380000000  0.4710080000000 1.0
C      1  0.5653720000000  0.4909710000000  0.4689830000000 1.0
C      1  0.5294410000000  0.5572400000000  0.4704170000000 1.0
C      1  0.4505570000000  0.5462090000000  0.4741770000000 1.0
C      1  0.5305190000000  0.5793190000000  0.4873460000000 1.0
C      1  0.5832660000000  0.4979560000000  0.4892830000000 1.0
C      1  0.5245910000000  0.4179490000000  0.4929260000000 1.0
C      1  0.4302820000000  0.4481460000000  0.4892830000000 1.0
C      1  0.4384980000000  0.5511550000000  0.4991260000000 1.0
C      1  0.5260620000000  0.4213890000000  0.5195260000000 1.0
C      1  0.5835590000000  0.4985490000000  0.5162050000000 1.0
C      1  0.5320370000000  0.5808130000000  0.5141920000000 1.0
C      1  0.4406660000000  0.5469660000000  0.5266430000000 1.0
C      1  0.4315380000000  0.4444280000000  0.5159020000000 1.0
C      1  0.5469170000000  0.4621420000000  0.5317510000000 1.0
C      1  0.4761550000000  0.4408270000000  0.5305150000000 1.0
C      1  0.4300340000000  0.4976030000000  0.5281680000000 1.0
C      1  0.4882450000000  0.5662300000000  0.5235640000000 1.0
C      1  0.5571720000000  0.5343320000000  0.5300950000000 1.0
C      1  0.5524340000000  0.5392980000000  0.4746150000000 1.0
C      1  0.4766870000000  0.5614840000000  0.4725040000000 1.0
C      1  0.4314060000000  0.4935560000000  0.4741400000000 1.0
C      1  0.4840900000000  0.4360900000000  0.4753990000000 1.0
C      1  0.5498030000000  0.4676280000000  0.4777960000000 1.0
C      1  0.4977350000000  0.5414070000000  0.5794330000000 1.0
C      1  0.5339370000000  0.5131900000000  0.5870290000000 1.0
C      1  0.5223920000000  0.4674650000000  0.5842630000000 1.0
C      1  0.4752010000000  0.4727380000000  0.5863400000000 1.0
C      1  0.4587620000000  0.5159060000000  0.5746500000000 1.0
C      1  0.4993120000000  0.4606970000000  0.4212530000000 1.0
C      1  0.5363870000000  0.4878840000000  0.4199030000000 1.0
C      1  0.5237810000000  0.5346060000000  0.4204110000000 1.0
C      1  0.4766050000000  0.5350750000000  0.4224680000000 1.0
C      1  0.4622130000000  0.4894270000000  0.4220860000000 1.0
C      1  0.4789180000000  0.4323820000000  0.5032820000000 1.0
C      1  0.4819300000000  0.5745580000000  0.4972530000000 1.0
C      1  0.4231720000000  0.4947740000000  0.5011420000000 1.0
C      1  0.5613470000000  0.5394400000000  0.5020900000000 1.0
C      1  0.5552590000000  0.4603600000000  0.5046430000000 1.0
C      1  0.5038290000000  0.4923080000000  0.5498130000000 1.0
C      1  0.5013290000000  0.5126670000000  0.4508640000000 1.0
C      1  0.4978160000000  0.5025760000000  0.5779920000000 1.0
C      1  0.4994170000000  0.4999340000000  0.4216600000000 1.0
END
