TITL C-3577090-796-199 -1.33224894018364e-06 125000 -485.640158560561 0 0 78 (C1) n - 1
REM
REM in /home/bkarasulu/work/CARBON/AIRSS/Generating-Clusters/EDIP-Nigel-Params/with-SteepDescent/Higher-Symm/SD-CG/HFTN-CG
REM
REM
REM
REM
REM
REM ./C.cell (12c818d87b63d06a65506943cc24bca4)
REM
REM compiler GCC version 9.2.1 20190827 (Red Hat 9.2.1-1)
REM options -cpp -mtune=generic -march=x86-64 -g -O0 -fpre-include=/usr/include/finclude/math-vector-fortran.h
REM seed 1632253547 27038944 516969646 1104501534 536556930 -960258502 2098721897 -1591929215 -843268096 38831598 -1642484980 -765900770 -1964184453 1485237650 -478187380 -1469151330 1227332263 2013812891 565436307 1910335950 1153975704 -1187081643 -1240281387 -954834668 -2017277589 1617850460 -1747283817 -492554456 -1186728450 -1672252821 2096839192 1597980849 89261933
REM
CELL 1.54180   50.00000   50.00000   50.00000   90.00000   90.00000   90.00000
LATT -1
SFAC C  
C      1  0.4874310000000  0.4914710000000  0.4415150000000 1.0
C      1  0.4874000000000  0.5093360000000  0.5584020000000 1.0
C      1  0.5119510000000  0.4644070000000  0.4728650000000 1.0
C      1  0.5135650000000  0.5346630000000  0.5283010000000 1.0
C      1  0.4795950000000  0.4152510000000  0.4814490000000 1.0
C      1  0.4795210000000  0.5830730000000  0.5148800000000 1.0
C      1  0.4844970000000  0.4800390000000  0.5663110000000 1.0
C      1  0.4845230000000  0.5212120000000  0.4353390000000 1.0
C      1  0.4815730000000  0.5655530000000  0.4676200000000 1.0
C      1  0.4899580000000  0.4449010000000  0.5194680000000 1.0
C      1  0.4365090000000  0.4531050000000  0.5276140000000 1.0
C      1  0.4337280000000  0.5456160000000  0.4720270000000 1.0
C      1  0.5600030000000  0.5346580000000  0.4654770000000 1.0
C      1  0.5601200000000  0.4647470000000  0.5348050000000 1.0
C      1  0.4447480000000  0.5005520000000  0.4511010000000 1.0
C      1  0.4440130000000  0.5004850000000  0.5501910000000 1.0
C      1  0.4201360000000  0.5230440000000  0.4847830000000 1.0
C      1  0.4226730000000  0.4757210000000  0.5155920000000 1.0
C      1  0.4674570000000  0.5764560000000  0.4904390000000 1.0
C      1  0.4722610000000  0.4242380000000  0.5072170000000 1.0
C      1  0.5101630000000  0.5225830000000  0.5725040000000 1.0
C      1  0.5105840000000  0.4786200000000  0.4276400000000 1.0
C      1  0.5307690000000  0.4825050000000  0.5465860000000 1.0
C      1  0.5307150000000  0.5177520000000  0.4543290000000 1.0
C      1  0.5641290000000  0.4525200000000  0.4755400000000 1.0
C      1  0.5662640000000  0.5456890000000  0.5250730000000 1.0
C      1  0.5097060000000  0.4644180000000  0.5612260000000 1.0
C      1  0.5101860000000  0.5357090000000  0.4394760000000 1.0
C      1  0.4360820000000  0.5506540000000  0.5202340000000 1.0
C      1  0.4378760000000  0.4487540000000  0.4795770000000 1.0
C      1  0.5446220000000  0.4891330000000  0.4909550000000 1.0
C      1  0.5455040000000  0.5097150000000  0.5098540000000 1.0
C      1  0.4932860000000  0.4881720000000  0.4719020000000 1.0
C      1  0.4948570000000  0.5105470000000  0.5284470000000 1.0
C      1  0.5082760000000  0.5507560000000  0.5734790000000 1.0
C      1  0.5089590000000  0.4505880000000  0.4254880000000 1.0
C      1  0.5054140000000  0.4395920000000  0.5442650000000 1.0
C      1  0.5065340000000  0.5618950000000  0.4533170000000 1.0
C      1  0.5508470000000  0.4392940000000  0.5241310000000 1.0
C      1  0.5518570000000  0.5602560000000  0.4771540000000 1.0
C      1  0.5721790000000  0.4783360000000  0.4889770000000 1.0
C      1  0.5733920000000  0.5199700000000  0.5107950000000 1.0
C      1  0.4795300000000  0.4328320000000  0.4594790000000 1.0
C      1  0.4791370000000  0.5674520000000  0.5381900000000 1.0
C      1  0.4409710000000  0.5639910000000  0.4935070000000 1.0
C      1  0.4442570000000  0.4352940000000  0.5059490000000 1.0
C      1  0.5478110000000  0.5353730000000  0.5462050000000 1.0
C      1  0.5456480000000  0.4625390000000  0.4543690000000 1.0
C      1  0.5056650000000  0.5583410000000  0.5463620000000 1.0
C      1  0.5062780000000  0.4418180000000  0.4522510000000 1.0
C      1  0.4602120000000  0.5452310000000  0.5366290000000 1.0
C      1  0.4615480000000  0.4555830000000  0.4634110000000 1.0
C      1  0.5290090000000  0.5326610000000  0.5026320000000 1.0
C      1  0.5276560000000  0.4667210000000  0.4986560000000 1.0
C      1  0.5501350000000  0.4359750000000  0.4954530000000 1.0
C      1  0.5523740000000  0.5629490000000  0.5058660000000 1.0
C      1  0.4599780000000  0.4740880000000  0.5491580000000 1.0
C      1  0.4617530000000  0.5270810000000  0.4553990000000 1.0
C      1  0.4684090000000  0.4871120000000  0.4936010000000 1.0
C      1  0.4709550000000  0.5139860000000  0.5076280000000 1.0
C      1  0.4208190000000  0.4721990000000  0.4862260000000 1.0
C      1  0.4206290000000  0.5259990000000  0.5141510000000 1.0
C      1  0.5343100000000  0.5119430000000  0.5587330000000 1.0
C      1  0.5337690000000  0.4877090000000  0.4433500000000 1.0
C      1  0.5302080000000  0.5718670000000  0.4641340000000 1.0
C      1  0.5302150000000  0.4275970000000  0.5390150000000 1.0
C      1  0.5120920000000  0.5176320000000  0.4799110000000 1.0
C      1  0.5117230000000  0.4833560000000  0.5216030000000 1.0
C      1  0.5902920000000  0.5020240000000  0.5267060000000 1.0
C      1  0.5887410000000  0.4957600000000  0.4721520000000 1.0
C      1  0.4342540000000  0.4973550000000  0.4778640000000 1.0
C      1  0.4363720000000  0.5020360000000  0.5220610000000 1.0
C      1  0.4812290000000  0.5294250000000  0.4821840000000 1.0
C      1  0.4756720000000  0.4709650000000  0.5209790000000 1.0
C      1  0.5813460000000  0.5214190000000  0.4813170000000 1.0
C      1  0.5813370000000  0.4767080000000  0.5180870000000 1.0
C      1  0.4607870000000  0.5237860000000  0.5573150000000 1.0
C      1  0.4610180000000  0.4772050000000  0.4431240000000 1.0
END
