TITL C-3578195-8548-457 -2.05183093306366e-06 125000 -1212.8250225748 0 0 193 (C1) n - 1
REM
REM in /home/bkarasulu/work/CARBON/AIRSS/Generating-Clusters/EDIP-Nigel-Params/with-SteepDescent/Higher-Symm/SD-CG/HFTN-CG
REM
REM
REM
REM
REM
REM ./C.cell (12c818d87b63d06a65506943cc24bca4)
REM
REM compiler GCC version 9.2.1 20190827 (Red Hat 9.2.1-1)
REM options -cpp -mtune=generic -march=x86-64 -g -O0 -fpre-include=/usr/include/finclude/math-vector-fortran.h
REM seed 1507183522 1889140833 819338982 156581419 -1130756257 -1159855470 1906558845 -1112623926 -586564595 -664066247 -2073833291 -878389221 1210320108 306620479 161350960 2108947554 62224984 -2126880845 2076772761 -38869508 -612511376 -456933553 1686022737 1753684854 589635325 -2131599829 -829739442 333676361 -657913293 -1966283309 1856868326 -209423982 -1104670768
REM
CELL 1.54180   50.00000   50.00000   50.00000   90.00000   90.00000   90.00000
LATT -1
SFAC C  
C      1  0.4174910000000  0.4381210000000  0.4495270000000 1.0
C      1  0.5102910000000  0.3990020000000  0.5515390000000 1.0
C      1  0.5920620000000  0.4549500000000  0.4491370000000 1.0
C      1  0.5853700000000  0.5542150000000  0.5544730000000 1.0
C      1  0.4809160000000  0.5954700000000  0.4478090000000 1.0
C      1  0.4063420000000  0.5380680000000  0.5493760000000 1.0
C      1  0.5727290000000  0.4337590000000  0.4485680000000 1.0
C      1  0.5874770000000  0.5266760000000  0.5438550000000 1.0
C      1  0.5068160000000  0.5827490000000  0.4512440000000 1.0
C      1  0.4283680000000  0.5569290000000  0.5450670000000 1.0
C      1  0.4089170000000  0.4664140000000  0.4530930000000 1.0
C      1  0.4816150000000  0.3991550000000  0.5551390000000 1.0
C      1  0.4681420000000  0.6039310000000  0.5152900000000 1.0
C      1  0.3856580000000  0.5255550000000  0.4859750000000 1.0
C      1  0.4198590000000  0.4182930000000  0.5174650000000 1.0
C      1  0.5272360000000  0.3949270000000  0.4835160000000 1.0
C      1  0.6086520000000  0.4669420000000  0.5179250000000 1.0
C      1  0.5950960000000  0.5722040000000  0.4906280000000 1.0
C      1  0.5345310000000  0.5674320000000  0.4207820000000 1.0
C      1  0.4642430000000  0.5540500000000  0.5721070000000 1.0
C      1  0.4314920000000  0.4979360000000  0.4312270000000 1.0
C      1  0.4671710000000  0.4378620000000  0.5712240000000 1.0
C      1  0.5339900000000  0.4494720000000  0.4333040000000 1.0
C      1  0.5757650000000  0.4995850000000  0.5819030000000 1.0
C      1  0.5628550000000  0.5079910000000  0.4731260000000 1.0
C      1  0.5215110000000  0.5647830000000  0.5135700000000 1.0
C      1  0.4800340000000  0.5443010000000  0.4522080000000 1.0
C      1  0.4464390000000  0.4926580000000  0.5284330000000 1.0
C      1  0.4697920000000  0.4511950000000  0.4762650000000 1.0
C      1  0.5303700000000  0.4561400000000  0.5337240000000 1.0
C      1  0.5144370000000  0.3856360000000  0.5274880000000 1.0
C      1  0.6080280000000  0.4515060000000  0.4718380000000 1.0
C      1  0.6032220000000  0.5693050000000  0.5385530000000 1.0
C      1  0.4790580000000  0.6109050000000  0.4708970000000 1.0
C      1  0.3866770000000  0.5424320000000  0.5301650000000 1.0
C      1  0.4070450000000  0.4254230000000  0.4723310000000 1.0
C      1  0.5706560000000  0.4502370000000  0.5504200000000 1.0
C      1  0.5883160000000  0.5361480000000  0.4505760000000 1.0
C      1  0.5127360000000  0.5810330000000  0.5402800000000 1.0
C      1  0.4198550000000  0.5488490000000  0.4482700000000 1.0
C      1  0.4139910000000  0.4583890000000  0.5537490000000 1.0
C      1  0.4927100000000  0.4144220000000  0.4507980000000 1.0
C      1  0.4725810000000  0.5091100000000  0.3870020000000 1.0
C      1  0.4789530000000  0.4813420000000  0.6047360000000 1.0
C      1  0.5085370000000  0.4755700000000  0.3834880000000 1.0
C      1  0.5293400000000  0.4929150000000  0.6049570000000 1.0
C      1  0.5214000000000  0.5256170000000  0.3913180000000 1.0
C      1  0.4931310000000  0.5272650000000  0.6060490000000 1.0
C      1  0.4449200000000  0.4503490000000  0.5891150000000 1.0
C      1  0.5092420000000  0.4457220000000  0.4162670000000 1.0
C      1  0.5697540000000  0.4742930000000  0.5947020000000 1.0
C      1  0.5576090000000  0.5507830000000  0.4091340000000 1.0
C      1  0.4887330000000  0.5680730000000  0.5827680000000 1.0
C      1  0.4373990000000  0.5216420000000  0.4139960000000 1.0
C      1  0.5430060000000  0.5354290000000  0.5953870000000 1.0
C      1  0.4870140000000  0.5559640000000  0.4011210000000 1.0
C      1  0.4441560000000  0.5166800000000  0.6028250000000 1.0
C      1  0.4637050000000  0.4647100000000  0.4098300000000 1.0
C      1  0.5129490000000  0.4498740000000  0.5902440000000 1.0
C      1  0.5477580000000  0.4896480000000  0.4117100000000 1.0
C      1  0.5735590000000  0.5020680000000  0.4196500000000 1.0
C      1  0.5387930000000  0.5571120000000  0.5752820000000 1.0
C      1  0.4568620000000  0.5667520000000  0.4150400000000 1.0
C      1  0.4299090000000  0.4979270000000  0.5782930000000 1.0
C      1  0.4616280000000  0.4350680000000  0.4185110000000 1.0
C      1  0.5379880000000  0.4341840000000  0.5835480000000 1.0
C      1  0.4740500000000  0.5816730000000  0.5345060000000 1.0
C      1  0.4058370000000  0.5196470000000  0.4636100000000 1.0
C      1  0.4351870000000  0.4329240000000  0.5392930000000 1.0
C      1  0.5222720000000  0.4177880000000  0.4646570000000 1.0
C      1  0.5849480000000  0.4753880000000  0.5368330000000 1.0
C      1  0.5782960000000  0.5572620000000  0.4709150000000 1.0
C      1  0.5022560000000  0.5266420000000  0.5045760000000 1.0
C      1  0.4749880000000  0.5174200000000  0.4957460000000 1.0
C      1  0.4740990000000  0.4897310000000  0.5096050000000 1.0
C      1  0.4867590000000  0.4718390000000  0.4866830000000 1.0
C      1  0.5377150000000  0.4919230000000  0.5211660000000 1.0
C      1  0.5403910000000  0.5240380000000  0.4822460000000 1.0
C      1  0.5030870000000  0.5582210000000  0.4673290000000 1.0
C      1  0.4427920000000  0.5236870000000  0.5302210000000 1.0
C      1  0.4438430000000  0.4655460000000  0.4705030000000 1.0
C      1  0.5039460000000  0.4384250000000  0.5324890000000 1.0
C      1  0.5599050000000  0.4764570000000  0.4689110000000 1.0
C      1  0.5488920000000  0.5418470000000  0.5284000000000 1.0
C      1  0.4225780000000  0.4676310000000  0.5804570000000 1.0
C      1  0.4895140000000  0.4251850000000  0.4233760000000 1.0
C      1  0.5590180000000  0.4537640000000  0.5768000000000 1.0
C      1  0.5700640000000  0.5299320000000  0.4274340000000 1.0
C      1  0.5124580000000  0.5650710000000  0.5658640000000 1.0
C      1  0.4322370000000  0.5488720000000  0.4208290000000 1.0
C      1  0.5179390000000  0.4479750000000  0.3883080000000 1.0
C      1  0.5551530000000  0.4843820000000  0.6183010000000 1.0
C      1  0.5423800000000  0.5452650000000  0.3831500000000 1.0
C      1  0.4875710000000  0.5565080000000  0.6099900000000 1.0
C      1  0.4428340000000  0.5133760000000  0.3865050000000 1.0
C      1  0.4603090000000  0.4587780000000  0.6124440000000 1.0
C      1  0.4916360000000  0.5363620000000  0.4248500000000 1.0
C      1  0.4520270000000  0.4936490000000  0.5604800000000 1.0
C      1  0.4821670000000  0.4729680000000  0.4377370000000 1.0
C      1  0.5193500000000  0.4690460000000  0.5633970000000 1.0
C      1  0.5246150000000  0.5009970000000  0.4312920000000 1.0
C      1  0.5166420000000  0.5214110000000  0.5626710000000 1.0
C      1  0.5458570000000  0.4243280000000  0.4444260000000 1.0
C      1  0.5855950000000  0.5003930000000  0.5549240000000 1.0
C      1  0.5427810000000  0.5856320000000  0.4438740000000 1.0
C      1  0.4509410000000  0.5730730000000  0.5538890000000 1.0
C      1  0.4038660000000  0.4946410000000  0.4439970000000 1.0
C      1  0.4563770000000  0.4132380000000  0.5578660000000 1.0
C      1  0.5336440000000  0.4190420000000  0.5579460000000 1.0
C      1  0.5872930000000  0.4868850000000  0.4432540000000 1.0
C      1  0.5561960000000  0.5620550000000  0.5508830000000 1.0
C      1  0.4622010000000  0.5715130000000  0.4446280000000 1.0
C      1  0.4108480000000  0.5091950000000  0.5570170000000 1.0
C      1  0.4468910000000  0.4306970000000  0.4444340000000 1.0
C      1  0.4586870000000  0.4063830000000  0.4899680000000 1.0
C      1  0.5586270000000  0.4196960000000  0.5117890000000 1.0
C      1  0.6079430000000  0.5072680000000  0.4883780000000 1.0
C      1  0.5560160000000  0.5966470000000  0.5120960000000 1.0
C      1  0.4342900000000  0.5770460000000  0.4872820000000 1.0
C      1  0.3942090000000  0.4847940000000  0.5153420000000 1.0
C      1  0.4887000000000  0.4321490000000  0.5915090000000 1.0
C      1  0.5522560000000  0.4605770000000  0.4130450000000 1.0
C      1  0.5697390000000  0.5222730000000  0.6006010000000 1.0
C      1  0.5128180000000  0.5738530000000  0.3995430000000 1.0
C      1  0.4467320000000  0.5460510000000  0.5968960000000 1.0
C      1  0.4362890000000  0.4766080000000  0.4104360000000 1.0
C      1  0.4944910000000  0.4920090000000  0.5303910000000 1.0
C      1  0.4905940000000  0.4881300000000  0.4626600000000 1.0
C      1  0.4925940000000  0.4766390000000  0.5540090000000 1.0
C      1  0.5194720000000  0.4925290000000  0.4600730000000 1.0
C      1  0.4980360000000  0.5209060000000  0.5341760000000 1.0
C      1  0.4730950000000  0.5130830000000  0.4667970000000 1.0
C      1  0.5330260000000  0.4945900000000  0.5731440000000 1.0
C      1  0.5212580000000  0.5310870000000  0.4249960000000 1.0
C      1  0.4904750000000  0.5191570000000  0.5778220000000 1.0
C      1  0.4803260000000  0.5109870000000  0.4157180000000 1.0
C      1  0.4777980000000  0.4921900000000  0.5744520000000 1.0
C      1  0.4997980000000  0.4889950000000  0.4186930000000 1.0
C      1  0.5757930000000  0.5377960000000  0.5104350000000 1.0
C      1  0.4963300000000  0.5697710000000  0.4959900000000 1.0
C      1  0.4303500000000  0.5328460000000  0.5035080000000 1.0
C      1  0.4318070000000  0.4598730000000  0.4978090000000 1.0
C      1  0.4994470000000  0.4273750000000  0.5052980000000 1.0
C      1  0.5668830000000  0.4635630000000  0.4952280000000 1.0
C      1  0.5079500000000  0.4728310000000  0.6098670000000 1.0
C      1  0.5309670000000  0.4972010000000  0.3865190000000 1.0
C      1  0.5220070000000  0.5213290000000  0.6124450000000 1.0
C      1  0.4920710000000  0.5325710000000  0.3793120000000 1.0
C      1  0.4707270000000  0.5082880000000  0.6162870000000 1.0
C      1  0.4779280000000  0.4786130000000  0.3827010000000 1.0
C      1  0.6043370000000  0.5099250000000  0.4582260000000 1.0
C      1  0.5466960000000  0.5897660000000  0.5397900000000 1.0
C      1  0.4340420000000  0.5733550000000  0.4579210000000 1.0
C      1  0.3992280000000  0.4838180000000  0.5444630000000 1.0
C      1  0.4633570000000  0.4101880000000  0.4601180000000 1.0
C      1  0.5588440000000  0.4237770000000  0.5413960000000 1.0
C      1  0.4303650000000  0.4878570000000  0.3850180000000 1.0
C      1  0.4766760000000  0.4359110000000  0.6171270000000 1.0
C      1  0.5463170000000  0.4479720000000  0.3883550000000 1.0
C      1  0.5681190000000  0.5086870000000  0.6261880000000 1.0
C      1  0.5278030000000  0.5686460000000  0.3758510000000 1.0
C      1  0.4605520000000  0.5586050000000  0.6187660000000 1.0
C      1  0.5308010000000  0.5454440000000  0.4649400000000 1.0
C      1  0.4706470000000  0.5370430000000  0.5377200000000 1.0
C      1  0.4463100000000  0.4972670000000  0.4624170000000 1.0
C      1  0.4793350000000  0.4513890000000  0.5453820000000 1.0
C      1  0.5324370000000  0.4661380000000  0.4606600000000 1.0
C      1  0.5453920000000  0.5132700000000  0.5422500000000 1.0
C      1  0.4450670000000  0.6001340000000  0.4995020000000 1.0
C      1  0.3780050000000  0.5041220000000  0.5027170000000 1.0
C      1  0.4339150000000  0.3997690000000  0.5016410000000 1.0
C      1  0.5504940000000  0.3959590000000  0.4991000000000 1.0
C      1  0.6214030000000  0.4866150000000  0.5020610000000 1.0
C      1  0.5826100000000  0.5943500000000  0.5031510000000 1.0
C      1  0.4109370000000  0.4377420000000  0.4974740000000 1.0
C      1  0.5062280000000  0.3975360000000  0.5035060000000 1.0
C      1  0.5947450000000  0.4515460000000  0.4966240000000 1.0
C      1  0.6017050000000  0.5555390000000  0.5134770000000 1.0
C      1  0.4891530000000  0.6003040000000  0.4950570000000 1.0
C      1  0.4005060000000  0.5423060000000  0.5054610000000 1.0
C      1  0.5203900000000  0.4430600000000  0.4840700000000 1.0
C      1  0.5672270000000  0.4863180000000  0.5139520000000 1.0
C      1  0.5495240000000  0.5687400000000  0.4682330000000 1.0
C      1  0.4723200000000  0.5581380000000  0.5135750000000 1.0
C      1  0.4272180000000  0.5090000000000  0.4836310000000 1.0
C      1  0.4558520000000  0.4496040000000  0.5227850000000 1.0
C      1  0.5798490000000  0.5100810000000  0.4974670000000 1.0
C      1  0.5395620000000  0.5805940000000  0.4951300000000 1.0
C      1  0.4489530000000  0.5534460000000  0.4946470000000 1.0
C      1  0.4225130000000  0.4864160000000  0.5064710000000 1.0
C      1  0.4700940000000  0.4323580000000  0.4991300000000 1.0
C      1  0.5446090000000  0.4451900000000  0.5050360000000 1.0
C      1  0.5223610000000  0.5064210000000  0.4963270000000 1.0
END
