TITL C-3577087-600-118 -2.79784733659127e-07 125000 -462.937933008104 0 0 75 (C1) n - 1
REM
REM in /home/bkarasulu/work/CARBON/AIRSS/Generating-Clusters/EDIP-Nigel-Params/with-SteepDescent/Higher-Symm/SD-CG/HFTN-CG
REM
REM
REM
REM
REM
REM ./C.cell (12c818d87b63d06a65506943cc24bca4)
REM
REM compiler GCC version 9.2.1 20190827 (Red Hat 9.2.1-1)
REM options -cpp -mtune=generic -march=x86-64 -g -O0 -fpre-include=/usr/include/finclude/math-vector-fortran.h
REM seed -1891326452 1394030044 1764600045 -1728636245 -1044817621 734260866 -1292660318 1461752441 -118245881 1647203002 -1904971818 -1270943168 -31470809 -53370390 -1052181828 640937407 1525891608 -8655437 1658956981 -818733376 923451732 -112592870 -259001672 -1609843753 -1807016636 1344296329 -423905240 -1312663423 -919335047 -1889986030 -934780548 -2006190903 -644113441
REM
CELL 1.54180   50.00000   50.00000   50.00000   90.00000   90.00000   90.00000
LATT -1
SFAC C  
C      1  0.5118820000000  0.4786730000000  0.4099530000000 1.0
C      1  0.4437590000000  0.4735090000000  0.4349190000000 1.0
C      1  0.4196100000000  0.4837490000000  0.5077800000000 1.0
C      1  0.4505740000000  0.4740970000000  0.5764700000000 1.0
C      1  0.5281550000000  0.4779610000000  0.5866300000000 1.0
C      1  0.5764180000000  0.4832690000000  0.5302800000000 1.0
C      1  0.5679540000000  0.4840740000000  0.4569200000000 1.0
C      1  0.5355520000000  0.4662160000000  0.4900390000000 1.0
C      1  0.5236860000000  0.4442590000000  0.4455240000000 1.0
C      1  0.4747440000000  0.4351410000000  0.4361870000000 1.0
C      1  0.4419630000000  0.4423510000000  0.4899060000000 1.0
C      1  0.4555430000000  0.4439220000000  0.5397400000000 1.0
C      1  0.5053880000000  0.4381610000000  0.5690580000000 1.0
C      1  0.5488220000000  0.4429940000000  0.5346010000000 1.0
C      1  0.5260270000000  0.4321990000000  0.5226700000000 1.0
C      1  0.5168230000000  0.4447850000000  0.4954380000000 1.0
C      1  0.5114930000000  0.4318610000000  0.4676750000000 1.0
C      1  0.4824270000000  0.4301500000000  0.4627230000000 1.0
C      1  0.4688900000000  0.4462780000000  0.4825180000000 1.0
C      1  0.4804270000000  0.4406720000000  0.5279650000000 1.0
C      1  0.5034040000000  0.4308550000000  0.5417970000000 1.0
C      1  0.4835860000000  0.4741320000000  0.4072800000000 1.0
C      1  0.4358380000000  0.4810010000000  0.4618790000000 1.0
C      1  0.4243530000000  0.4827310000000  0.5360150000000 1.0
C      1  0.4779170000000  0.4773910000000  0.5877490000000 1.0
C      1  0.5534870000000  0.4750570000000  0.5719780000000 1.0
C      1  0.5808570000000  0.4804650000000  0.5022800000000 1.0
C      1  0.5531500000000  0.4808890000000  0.4328140000000 1.0
C      1  0.5518460000000  0.5185120000000  0.4346760000000 1.0
C      1  0.4840410000000  0.5118590000000  0.4089220000000 1.0
C      1  0.4274980000000  0.5085070000000  0.4567520000000 1.0
C      1  0.4317310000000  0.5197320000000  0.5303870000000 1.0
C      1  0.4785110000000  0.5070050000000  0.5861290000000 1.0
C      1  0.5510560000000  0.5136210000000  0.5728830000000 1.0
C      1  0.5754460000000  0.5185730000000  0.5040870000000 1.0
C      1  0.5033090000000  0.4648730000000  0.5775740000000 1.0
C      1  0.5575920000000  0.4673410000000  0.5447070000000 1.0
C      1  0.5619640000000  0.4721620000000  0.4823990000000 1.0
C      1  0.5278570000000  0.4680970000000  0.4314850000000 1.0
C      1  0.4686040000000  0.4612580000000  0.4279770000000 1.0
C      1  0.4299390000000  0.4673120000000  0.4864290000000 1.0
C      1  0.4440700000000  0.4669080000000  0.5497390000000 1.0
C      1  0.5023550000000  0.5158210000000  0.5725470000000 1.0
C      1  0.5506220000000  0.5277980000000  0.5481110000000 1.0
C      1  0.5574320000000  0.5263580000000  0.4832980000000 1.0
C      1  0.5254710000000  0.5302420000000  0.4325030000000 1.0
C      1  0.4683460000000  0.5208220000000  0.4310180000000 1.0
C      1  0.4359890000000  0.5277080000000  0.4782380000000 1.0
C      1  0.4558010000000  0.5242990000000  0.5457880000000 1.0
C      1  0.5164680000000  0.5849040000000  0.4803040000000 1.0
C      1  0.4971410000000  0.5658570000000  0.4673080000000 1.0
C      1  0.4761930000000  0.5580780000000  0.4884060000000 1.0
C      1  0.4885630000000  0.5571680000000  0.5159080000000 1.0
C      1  0.5034070000000  0.5829720000000  0.5224600000000 1.0
C      1  0.5298590000000  0.5699560000000  0.5254380000000 1.0
C      1  0.5353660000000  0.5674150000000  0.4954420000000 1.0
C      1  0.4771760000000  0.5440020000000  0.5411560000000 1.0
C      1  0.5020710000000  0.5399770000000  0.5566450000000 1.0
C      1  0.5258430000000  0.5418910000000  0.5374960000000 1.0
C      1  0.5304440000000  0.5388760000000  0.4865730000000 1.0
C      1  0.5097700000000  0.5382330000000  0.4582460000000 1.0
C      1  0.4818780000000  0.5254630000000  0.4563080000000 1.0
C      1  0.4652440000000  0.5327080000000  0.4790660000000 1.0
C      1  0.4541430000000  0.5121840000000  0.5717240000000 1.0
C      1  0.5264820000000  0.5073220000000  0.5861450000000 1.0
C      1  0.5734320000000  0.5210070000000  0.5323570000000 1.0
C      1  0.5682000000000  0.5225460000000  0.4574230000000 1.0
C      1  0.5122380000000  0.5167020000000  0.4104820000000 1.0
C      1  0.4411650000000  0.5119400000000  0.4308120000000 1.0
C      1  0.4220430000000  0.5214620000000  0.5031210000000 1.0
C      1  0.5062080000000  0.5024310000000  0.5113050000000 1.0
C      1  0.5036890000000  0.6009820000000  0.5002950000000 1.0
C      1  0.5151740000000  0.5291290000000  0.5110800000000 1.0
C      1  0.4883040000000  0.4543990000000  0.5031060000000 1.0
C      1  0.4893540000000  0.4824780000000  0.5066450000000 1.0
END
