TITL C-3577084-3642-286 5.34876163281821e-07 125000 -279.642012311967 0 0 47 (C1) n - 1
REM
REM in /home/bkarasulu/work/CARBON/AIRSS/Generating-Clusters/EDIP-Nigel-Params/with-SteepDescent/Higher-Symm/SD-CG/HFTN-CG
REM
REM
REM
REM
REM
REM ./C.cell (12c818d87b63d06a65506943cc24bca4)
REM
REM compiler GCC version 9.2.1 20190827 (Red Hat 9.2.1-1)
REM options -cpp -mtune=generic -march=x86-64 -g -O0 -fpre-include=/usr/include/finclude/math-vector-fortran.h
REM seed 1621080781 -461235081 953512466 -2063392076 -1602602812 -1059808331 -520846784 -1598133978 564537174 1359400447 512454181 -510225748 -1105635838 434223060 -293420149 857751068 -1689245650 -1662527678 216726107 -791332308 -628400708 210163654 688231614 1528453133 1455478260 1629353467 -1682045623 483428387 -511663883 1720441751 403348816 -1391864108 -1595596731
REM
CELL 1.54180   50.00000   50.00000   50.00000   90.00000   90.00000   90.00000
LATT -1
SFAC C  
C      1  0.4738740000000  0.4513060000000  0.4740820000000 1.0
C      1  0.4741710000000  0.4510670000000  0.5236230000000 1.0
C      1  0.5218340000000  0.4512140000000  0.5241400000000 1.0
C      1  0.5233930000000  0.4514830000000  0.4746840000000 1.0
C      1  0.4743500000000  0.5455660000000  0.5246590000000 1.0
C      1  0.4741080000000  0.5451380000000  0.4763460000000 1.0
C      1  0.5234400000000  0.5449930000000  0.4746880000000 1.0
C      1  0.5238620000000  0.5447770000000  0.5244750000000 1.0
C      1  0.4488650000000  0.4943170000000  0.5148100000000 1.0
C      1  0.5132270000000  0.4943410000000  0.5498090000000 1.0
C      1  0.5479310000000  0.4942470000000  0.4852550000000 1.0
C      1  0.4839420000000  0.4938200000000  0.4499680000000 1.0
C      1  0.4488870000000  0.5021390000000  0.4854120000000 1.0
C      1  0.5127600000000  0.5027290000000  0.4499770000000 1.0
C      1  0.5488200000000  0.5025350000000  0.5144620000000 1.0
C      1  0.4840640000000  0.5028560000000  0.5500700000000 1.0
C      1  0.5267820000000  0.5156180000000  0.5650890000000 1.0
C      1  0.5635350000000  0.5153760000000  0.4717590000000 1.0
C      1  0.4693760000000  0.5156400000000  0.4361750000000 1.0
C      1  0.4332180000000  0.5155970000000  0.5280350000000 1.0
C      1  0.5271760000000  0.4812170000000  0.4357350000000 1.0
C      1  0.5626710000000  0.4802280000000  0.5283070000000 1.0
C      1  0.4694750000000  0.4810860000000  0.5638520000000 1.0
C      1  0.4334230000000  0.4809030000000  0.4720400000000 1.0
C      1  0.5141850000000  0.4582550000000  0.4475490000000 1.0
C      1  0.4463380000000  0.4577100000000  0.4839290000000 1.0
C      1  0.4827630000000  0.4583950000000  0.5518750000000 1.0
C      1  0.5499290000000  0.4580660000000  0.5147240000000 1.0
C      1  0.5145410000000  0.5387800000000  0.5523860000000 1.0
C      1  0.4456910000000  0.5386850000000  0.5154510000000 1.0
C      1  0.4829620000000  0.5382820000000  0.4481040000000 1.0
C      1  0.5511470000000  0.5386230000000  0.4842440000000 1.0
C      1  0.4844990000000  0.4628140000000  0.4487360000000 1.0
C      1  0.4477770000000  0.4624360000000  0.5138540000000 1.0
C      1  0.5127120000000  0.4626580000000  0.5508370000000 1.0
C      1  0.5484720000000  0.4629060000000  0.4851260000000 1.0
C      1  0.4845060000000  0.5340430000000  0.5513110000000 1.0
C      1  0.4474570000000  0.5338530000000  0.4854690000000 1.0
C      1  0.5128130000000  0.5338010000000  0.4489930000000 1.0
C      1  0.5495940000000  0.5336670000000  0.5140690000000 1.0
C      1  0.5204000000000  0.5011050000000  0.4780430000000 1.0
C      1  0.4764200000000  0.5014620000000  0.5220320000000 1.0
C      1  0.5207550000000  0.5008300000000  0.5223510000000 1.0
C      1  0.4764360000000  0.4951330000000  0.4781040000000 1.0
C      1  0.4981460000000  0.4532810000000  0.5027550000000 1.0
C      1  0.4962880000000  0.5417400000000  0.4997820000000 1.0
C      1  0.4986050000000  0.4973810000000  0.5001270000000 1.0
END
