TITL C-3578206-1180-458 -3.51151744273751e-07 125000 -551.011355893764 0 0 89 (C1) n - 1
REM
REM in /home/bkarasulu/work/CARBON/AIRSS/Generating-Clusters/EDIP-Nigel-Params/with-SteepDescent/Higher-Symm/SD-CG/HFTN-CG
REM
REM
REM
REM
REM
REM ./C.cell (12c818d87b63d06a65506943cc24bca4)
REM
REM compiler GCC version 9.2.1 20190827 (Red Hat 9.2.1-1)
REM options -cpp -mtune=generic -march=x86-64 -g -O0 -fpre-include=/usr/include/finclude/math-vector-fortran.h
REM seed -563419818 133745192 716594655 514035951 328861725 -1934415372 523243955 227199346 -2092921299 705889453 841280546 -2054045087 628193966 -1227767888 448840102 256950167 -1183999436 -1328713595 353317646 569042673 -2000116606 2133981524 1003125745 -2028085734 1501380511 -1390456353 1576276399 1843563555 -473596174 526883778 591077142 -1318870547 380314295
REM
CELL 1.54180   50.00000   50.00000   50.00000   90.00000   90.00000   90.00000
LATT -1
SFAC C  
C      1  0.5283150000000  0.4728790000000  0.5704260000000 1.0
C      1  0.5224180000000  0.5588300000000  0.5580850000000 1.0
C      1  0.5248390000000  0.5747880000000  0.4640930000000 1.0
C      1  0.5212950000000  0.4861840000000  0.4232140000000 1.0
C      1  0.5285540000000  0.4128140000000  0.4889100000000 1.0
C      1  0.5662790000000  0.5774780000000  0.4936000000000 1.0
C      1  0.5606260000000  0.5051850000000  0.4430300000000 1.0
C      1  0.5609960000000  0.4325570000000  0.4568170000000 1.0
C      1  0.5628480000000  0.4451690000000  0.5511570000000 1.0
C      1  0.5552720000000  0.5247860000000  0.5695880000000 1.0
C      1  0.4766870000000  0.5419630000000  0.4925010000000 1.0
C      1  0.4536030000000  0.5064030000000  0.4693610000000 1.0
C      1  0.4555400000000  0.4597810000000  0.4754780000000 1.0
C      1  0.4592800000000  0.4750130000000  0.5197970000000 1.0
C      1  0.4375390000000  0.5176150000000  0.5334900000000 1.0
C      1  0.4461510000000  0.5527620000000  0.4584670000000 1.0
C      1  0.4476760000000  0.4592420000000  0.4293230000000 1.0
C      1  0.4456390000000  0.4273210000000  0.5250250000000 1.0
C      1  0.4440070000000  0.4842790000000  0.5649680000000 1.0
C      1  0.4498780000000  0.5667320000000  0.5332650000000 1.0
C      1  0.4598110000000  0.4972830000000  0.5430810000000 1.0
C      1  0.4787330000000  0.5717340000000  0.5325500000000 1.0
C      1  0.4680130000000  0.5328110000000  0.4647540000000 1.0
C      1  0.4681930000000  0.4571080000000  0.4490110000000 1.0
C      1  0.4670430000000  0.4462690000000  0.5275050000000 1.0
C      1  0.4873000000000  0.5282340000000  0.4423700000000 1.0
C      1  0.4868700000000  0.4346150000000  0.4509600000000 1.0
C      1  0.4882700000000  0.4411970000000  0.5469730000000 1.0
C      1  0.4835280000000  0.5138750000000  0.5545690000000 1.0
C      1  0.4929340000000  0.5846530000000  0.5107930000000 1.0
C      1  0.4214570000000  0.5395690000000  0.4627110000000 1.0
C      1  0.4267010000000  0.4738280000000  0.4433360000000 1.0
C      1  0.4256400000000  0.4422690000000  0.5116940000000 1.0
C      1  0.4172220000000  0.4816050000000  0.5571570000000 1.0
C      1  0.4391150000000  0.5597080000000  0.5068370000000 1.0
C      1  0.5097550000000  0.4527440000000  0.4875840000000 1.0
C      1  0.5115720000000  0.4766960000000  0.5247240000000 1.0
C      1  0.5179450000000  0.5301210000000  0.5210050000000 1.0
C      1  0.5069360000000  0.5455080000000  0.4966330000000 1.0
C      1  0.5123840000000  0.4955740000000  0.4699910000000 1.0
C      1  0.4532010000000  0.5711230000000  0.4822680000000 1.0
C      1  0.4505790000000  0.4963830000000  0.4401640000000 1.0
C      1  0.4545930000000  0.4319270000000  0.4879110000000 1.0
C      1  0.4568540000000  0.4635290000000  0.5779230000000 1.0
C      1  0.4454290000000  0.5433220000000  0.5519040000000 1.0
C      1  0.5525090000000  0.5386560000000  0.4774930000000 1.0
C      1  0.5551230000000  0.4797310000000  0.4589590000000 1.0
C      1  0.5574210000000  0.4571790000000  0.5044050000000 1.0
C      1  0.5583540000000  0.4930250000000  0.5362990000000 1.0
C      1  0.5586860000000  0.5361230000000  0.5061350000000 1.0
C      1  0.5157430000000  0.4480320000000  0.5351110000000 1.0
C      1  0.5132500000000  0.5165090000000  0.5480570000000 1.0
C      1  0.5222750000000  0.5785130000000  0.5109820000000 1.0
C      1  0.5144930000000  0.5212870000000  0.4526460000000 1.0
C      1  0.5142450000000  0.4449270000000  0.4595700000000 1.0
C      1  0.5334240000000  0.5551600000000  0.5292000000000 1.0
C      1  0.5245020000000  0.5449520000000  0.4710200000000 1.0
C      1  0.5252130000000  0.4750860000000  0.4519520000000 1.0
C      1  0.5305700000000  0.4400880000000  0.5052030000000 1.0
C      1  0.5279700000000  0.4903600000000  0.5451190000000 1.0
C      1  0.5006830000000  0.4067280000000  0.4879780000000 1.0
C      1  0.5042510000000  0.4693630000000  0.5838810000000 1.0
C      1  0.4915590000000  0.5630860000000  0.5575790000000 1.0
C      1  0.4988470000000  0.5853210000000  0.4629780000000 1.0
C      1  0.4949560000000  0.4904040000000  0.4150150000000 1.0
C      1  0.5397810000000  0.5863160000000  0.4878200000000 1.0
C      1  0.5346900000000  0.5124920000000  0.4299060000000 1.0
C      1  0.5353140000000  0.4230310000000  0.4614640000000 1.0
C      1  0.5359750000000  0.4474060000000  0.5579670000000 1.0
C      1  0.5283670000000  0.5321070000000  0.5693320000000 1.0
C      1  0.5674360000000  0.4643540000000  0.5314850000000 1.0
C      1  0.5719670000000  0.5075320000000  0.5572880000000 1.0
C      1  0.5788180000000  0.5573540000000  0.5080000000000 1.0
C      1  0.5690680000000  0.5259190000000  0.4591050000000 1.0
C      1  0.5702550000000  0.4568870000000  0.4502110000000 1.0
C      1  0.4282780000000  0.5186600000000  0.4806260000000 1.0
C      1  0.4273140000000  0.4691470000000  0.4722400000000 1.0
C      1  0.4297410000000  0.4722330000000  0.5108080000000 1.0
C      1  0.4166230000000  0.4921420000000  0.5310480000000 1.0
C      1  0.4420190000000  0.5298550000000  0.5052860000000 1.0
C      1  0.4829290000000  0.4552760000000  0.5726850000000 1.0
C      1  0.4729490000000  0.5393940000000  0.5648450000000 1.0
C      1  0.4806090000000  0.5849120000000  0.4843560000000 1.0
C      1  0.4753750000000  0.5075830000000  0.4251940000000 1.0
C      1  0.4779870000000  0.4172540000000  0.4741260000000 1.0
C      1  0.5630870000000  0.5055990000000  0.5095210000000 1.0
C      1  0.5578710000000  0.4830810000000  0.4897340000000 1.0
C      1  0.4704960000000  0.4818190000000  0.4926190000000 1.0
C      1  0.5013730000000  0.4802030000000  0.4942600000000 1.0
END
