TITL C-3578209-2550-678 -5.51167368193417e-08 125000 -312.728277497973 0 0 53 (C1) n - 1
REM
REM in /home/bkarasulu/work/CARBON/AIRSS/Generating-Clusters/EDIP-Nigel-Params/with-SteepDescent/Higher-Symm/SD-CG/HFTN-CG
REM
REM
REM
REM
REM
REM ./C.cell (12c818d87b63d06a65506943cc24bca4)
REM
REM compiler GCC version 9.2.1 20190827 (Red Hat 9.2.1-1)
REM options -cpp -mtune=generic -march=x86-64 -g -O0 -fpre-include=/usr/include/finclude/math-vector-fortran.h
REM seed -1527872649 -1561785990 -1739538541 1575590596 -1844906869 -1592994545 -1392845779 -986244811 -2136464780 822198907 1378747321 -182563995 -420596802 -1513026041 -523476509 1636603623 1558020163 -2129539942 930094588 1833483238 -253060129 1473459421 1594785632 1690452307 -1252134553 -438330192 2038918388 1947594718 1364502168 330294339 1935900854 -400415824 -556795012
REM
CELL 1.54180   50.00000   50.00000   50.00000   90.00000   90.00000   90.00000
LATT -1
SFAC C  
C      1  0.5237070000000  0.4578730000000  0.5632450000000 1.0
C      1  0.4736340000000  0.4570530000000  0.5616610000000 1.0
C      1  0.5486770000000  0.5326300000000  0.5141590000000 1.0
C      1  0.4517850000000  0.5333700000000  0.5125470000000 1.0
C      1  0.4881990000000  0.5402880000000  0.4817350000000 1.0
C      1  0.5064270000000  0.5179730000000  0.4929130000000 1.0
C      1  0.5218630000000  0.4729580000000  0.4371700000000 1.0
C      1  0.4763130000000  0.4628870000000  0.4349540000000 1.0
C      1  0.4869360000000  0.4165500000000  0.4933870000000 1.0
C      1  0.5162720000000  0.4160050000000  0.4960000000000 1.0
C      1  0.5206360000000  0.5207470000000  0.5201430000000 1.0
C      1  0.4763260000000  0.5220160000000  0.5248230000000 1.0
C      1  0.5261110000000  0.4921290000000  0.5310350000000 1.0
C      1  0.4712750000000  0.4930800000000  0.5313750000000 1.0
C      1  0.4312830000000  0.5113540000000  0.5154200000000 1.0
C      1  0.5693320000000  0.5106080000000  0.5207640000000 1.0
C      1  0.4420750000000  0.4909800000000  0.5317310000000 1.0
C      1  0.5550500000000  0.4894380000000  0.5322240000000 1.0
C      1  0.4706530000000  0.4701820000000  0.4815910000000 1.0
C      1  0.5285880000000  0.4733780000000  0.4839850000000 1.0
C      1  0.5524480000000  0.5185330000000  0.4725500000000 1.0
C      1  0.4443600000000  0.5134140000000  0.4719690000000 1.0
C      1  0.4920640000000  0.5677000000000  0.4985890000000 1.0
C      1  0.5204950000000  0.5762310000000  0.5034290000000 1.0
C      1  0.4960230000000  0.5415950000000  0.4528880000000 1.0
C      1  0.5224630000000  0.5510900000000  0.4528710000000 1.0
C      1  0.4871810000000  0.5439000000000  0.5408620000000 1.0
C      1  0.5161690000000  0.5436380000000  0.5412070000000 1.0
C      1  0.4244360000000  0.5032590000000  0.4893840000000 1.0
C      1  0.5730860000000  0.5116630000000  0.4920480000000 1.0
C      1  0.4861170000000  0.4547790000000  0.4606140000000 1.0
C      1  0.5155390000000  0.4584270000000  0.4608990000000 1.0
C      1  0.5149540000000  0.4275760000000  0.5242050000000 1.0
C      1  0.4838400000000  0.4285230000000  0.5216040000000 1.0
C      1  0.4579350000000  0.5360120000000  0.4840920000000 1.0
C      1  0.5457460000000  0.5475140000000  0.4684760000000 1.0
C      1  0.5148860000000  0.4699910000000  0.5115940000000 1.0
C      1  0.4835870000000  0.4713390000000  0.5105300000000 1.0
C      1  0.5302630000000  0.4473590000000  0.5380950000000 1.0
C      1  0.4678700000000  0.4476250000000  0.5359170000000 1.0
C      1  0.4766050000000  0.5677690000000  0.5258000000000 1.0
C      1  0.5279090000000  0.5683080000000  0.5302430000000 1.0
C      1  0.4484830000000  0.5609900000000  0.5229270000000 1.0
C      1  0.5462610000000  0.5588120000000  0.4967880000000 1.0
C      1  0.5184950000000  0.4998180000000  0.4457570000000 1.0
C      1  0.4693890000000  0.4902800000000  0.4367570000000 1.0
C      1  0.4686350000000  0.4974520000000  0.4661500000000 1.0
C      1  0.5263860000000  0.5030620000000  0.4743490000000 1.0
C      1  0.4458330000000  0.4591840000000  0.4837480000000 1.0
C      1  0.5547200000000  0.4660830000000  0.4858070000000 1.0
C      1  0.4835800000000  0.4832120000000  0.5570900000000 1.0
C      1  0.5133460000000  0.4835990000000  0.5571870000000 1.0
C      1  0.4928780000000  0.5130980000000  0.4408930000000 1.0
END
