TITL C-3577079-311-414 -0.114000487456876 125000 -1120.01960162909 0 0 180 (C1) n - 1
REM
REM in /home/bkarasulu/work/CARBON/AIRSS/Generating-Clusters/EDIP-Nigel-Params/with-SteepDescent/Higher-Symm/SD-CG/HFTN-CG
REM
REM
REM
REM
REM
REM ./C.cell (12c818d87b63d06a65506943cc24bca4)
REM
REM compiler GCC version 9.2.1 20190827 (Red Hat 9.2.1-1)
REM options -cpp -mtune=generic -march=x86-64 -g -O0 -fpre-include=/usr/include/finclude/math-vector-fortran.h
REM seed 478397894 -1110105053 -788181984 -1882006291 -425016048 -28461974 -1604882904 -260988504 -1441849874 1239839739 1277453995 -330832916 -1389125238 -1021844381 2004119831 1716612285 -668354875 -671909839 -1919699855 1944203557 676909014 -2143615268 -1433904927 888947603 -486887311 611491425 1594695226 -1659837356 -2009276892 751955187 416724572 -707159353 -174383695
REM
CELL 1.54180   50.00000   50.00000   50.00000   90.00000   90.00000   90.00000
LATT -1
SFAC C  
C      1  0.4227060000000  0.4769950000000  0.4443670000000 1.0
C      1  0.5828610000000  0.4808210000000  0.5577990000000 1.0
C      1  0.4226620000000  0.4746310000000  0.5606230000000 1.0
C      1  0.5858760000000  0.4813390000000  0.4419380000000 1.0
C      1  0.4320250000000  0.4786690000000  0.5135230000000 1.0
C      1  0.5753900000000  0.4756900000000  0.4894910000000 1.0
C      1  0.4539390000000  0.4842970000000  0.4922590000000 1.0
C      1  0.5703380000000  0.4953670000000  0.5127190000000 1.0
C      1  0.5537410000000  0.4168820000000  0.5534810000000 1.0
C      1  0.4397130000000  0.4191470000000  0.4435010000000 1.0
C      1  0.5529380000000  0.4145560000000  0.4433780000000 1.0
C      1  0.4458040000000  0.4113130000000  0.5614670000000 1.0
C      1  0.5152810000000  0.4113310000000  0.4459750000000 1.0
C      1  0.4702180000000  0.4079730000000  0.5421330000000 1.0
C      1  0.5231860000000  0.4129660000000  0.5445850000000 1.0
C      1  0.4667550000000  0.4096250000000  0.4529030000000 1.0
C      1  0.5415790000000  0.5010430000000  0.5975190000000 1.0
C      1  0.4585890000000  0.5045120000000  0.4000850000000 1.0
C      1  0.5447070000000  0.5027710000000  0.4063270000000 1.0
C      1  0.4572070000000  0.5004390000000  0.5954630000000 1.0
C      1  0.4314580000000  0.4065500000000  0.5357980000000 1.0
C      1  0.5681330000000  0.4106090000000  0.4684380000000 1.0
C      1  0.4227930000000  0.4186670000000  0.4661430000000 1.0
C      1  0.5721580000000  0.4164630000000  0.5296260000000 1.0
C      1  0.4580140000000  0.5063750000000  0.5453860000000 1.0
C      1  0.5468910000000  0.5072510000000  0.4542790000000 1.0
C      1  0.4622480000000  0.5090170000000  0.4496030000000 1.0
C      1  0.5384460000000  0.5033470000000  0.5496460000000 1.0
C      1  0.4723430000000  0.5544970000000  0.4769790000000 1.0
C      1  0.5207990000000  0.5445400000000  0.5249100000000 1.0
C      1  0.4702620000000  0.5517610000000  0.5170470000000 1.0
C      1  0.5273160000000  0.5467170000000  0.4770200000000 1.0
C      1  0.5630990000000  0.4817480000000  0.4609170000000 1.0
C      1  0.4457670000000  0.4772970000000  0.5401970000000 1.0
C      1  0.5586390000000  0.4822380000000  0.5385110000000 1.0
C      1  0.4504110000000  0.4818800000000  0.4609180000000 1.0
C      1  0.5451330000000  0.5969610000000  0.4791950000000 1.0
C      1  0.4462280000000  0.5875830000000  0.5248910000000 1.0
C      1  0.5444610000000  0.5912030000000  0.5231460000000 1.0
C      1  0.4476400000000  0.5906450000000  0.4738330000000 1.0
C      1  0.4027210000000  0.4576160000000  0.4881350000000 1.0
C      1  0.6043460000000  0.4583260000000  0.5178660000000 1.0
C      1  0.4010230000000  0.4470040000000  0.5333810000000 1.0
C      1  0.6128160000000  0.4476350000000  0.4721890000000 1.0
C      1  0.5512690000000  0.5285090000000  0.4765450000000 1.0
C      1  0.4506370000000  0.5259470000000  0.5201390000000 1.0
C      1  0.5418960000000  0.5263150000000  0.5291050000000 1.0
C      1  0.4533860000000  0.5293810000000  0.4726540000000 1.0
C      1  0.5248870000000  0.4786760000000  0.4097440000000 1.0
C      1  0.4734710000000  0.4753170000000  0.5942510000000 1.0
C      1  0.5257100000000  0.4762560000000  0.5931120000000 1.0
C      1  0.4726370000000  0.4786280000000  0.4027820000000 1.0
C      1  0.4159560000000  0.5024660000000  0.5679760000000 1.0
C      1  0.5888370000000  0.5093340000000  0.4336000000000 1.0
C      1  0.4193500000000  0.5035590000000  0.4295570000000 1.0
C      1  0.5820650000000  0.5086360000000  0.5689830000000 1.0
C      1  0.5673940000000  0.5714140000000  0.5248370000000 1.0
C      1  0.4303040000000  0.5672110000000  0.4719680000000 1.0
C      1  0.5667160000000  0.5771400000000  0.4753070000000 1.0
C      1  0.4285930000000  0.5642140000000  0.5234500000000 1.0
C      1  0.4769450000000  0.4260000000000  0.6015790000000 1.0
C      1  0.5166000000000  0.4307470000000  0.4014610000000 1.0
C      1  0.4684970000000  0.4295210000000  0.3934870000000 1.0
C      1  0.5224470000000  0.4275720000000  0.5958910000000 1.0
C      1  0.4710760000000  0.5831910000000  0.5398350000000 1.0
C      1  0.5197160000000  0.5892880000000  0.4665790000000 1.0
C      1  0.4725300000000  0.5883060000000  0.4599470000000 1.0
C      1  0.5182150000000  0.5871760000000  0.5367990000000 1.0
C      1  0.4248280000000  0.5503250000000  0.4471580000000 1.0
C      1  0.5682850000000  0.5489830000000  0.5461100000000 1.0
C      1  0.4232000000000  0.5460930000000  0.5474450000000 1.0
C      1  0.5688980000000  0.5596240000000  0.4509690000000 1.0
C      1  0.5130600000000  0.5602110000000  0.5492310000000 1.0
C      1  0.4914590000000  0.5473130000000  0.4513400000000 1.0
C      1  0.5196940000000  0.5623950000000  0.4527150000000 1.0
C      1  0.4831030000000  0.5465100000000  0.5473400000000 1.0
C      1  0.5473130000000  0.5450660000000  0.5711270000000 1.0
C      1  0.4473010000000  0.5464930000000  0.4260210000000 1.0
C      1  0.5521780000000  0.5468910000000  0.4292920000000 1.0
C      1  0.4458170000000  0.5447380000000  0.5705050000000 1.0
C      1  0.4084820000000  0.5185300000000  0.5446020000000 1.0
C      1  0.5855890000000  0.5367450000000  0.4595340000000 1.0
C      1  0.4090850000000  0.5230850000000  0.4488710000000 1.0
C      1  0.5903240000000  0.5278100000000  0.5474440000000 1.0
C      1  0.4772980000000  0.5259340000000  0.3932490000000 1.0
C      1  0.5236100000000  0.5223110000000  0.6068560000000 1.0
C      1  0.4739950000000  0.5219860000000  0.6047520000000 1.0
C      1  0.5270490000000  0.5241350000000  0.3967060000000 1.0
C      1  0.6055270000000  0.4800030000000  0.5382840000000 1.0
C      1  0.4017270000000  0.4759040000000  0.4653900000000 1.0
C      1  0.6055490000000  0.4624210000000  0.4490360000000 1.0
C      1  0.4021210000000  0.4551530000000  0.5600090000000 1.0
C      1  0.5233320000000  0.5464010000000  0.5894730000000 1.0
C      1  0.4753220000000  0.5502180000000  0.4108470000000 1.0
C      1  0.5281080000000  0.5501250000000  0.4112680000000 1.0
C      1  0.4718810000000  0.5478270000000  0.5897030000000 1.0
C      1  0.5350990000000  0.4499000000000  0.4103430000000 1.0
C      1  0.4616950000000  0.4480100000000  0.5937270000000 1.0
C      1  0.5381340000000  0.4493770000000  0.5891000000000 1.0
C      1  0.4573380000000  0.4525090000000  0.4049750000000 1.0
C      1  0.5486640000000  0.4540630000000  0.5311910000000 1.0
C      1  0.4643310000000  0.4577250000000  0.4514990000000 1.0
C      1  0.5444390000000  0.4590160000000  0.4559840000000 1.0
C      1  0.4654830000000  0.4529720000000  0.5442120000000 1.0
C      1  0.5062560000000  0.4362980000000  0.4586110000000 1.0
C      1  0.4654430000000  0.4317770000000  0.5225120000000 1.0
C      1  0.5188580000000  0.4413650000000  0.5333180000000 1.0
C      1  0.4778180000000  0.4349520000000  0.4659570000000 1.0
C      1  0.5597100000000  0.5172810000000  0.4287610000000 1.0
C      1  0.4436180000000  0.5138420000000  0.5718680000000 1.0
C      1  0.5531460000000  0.5146870000000  0.5736870000000 1.0
C      1  0.4459040000000  0.5157790000000  0.4242920000000 1.0
C      1  0.5973360000000  0.4255880000000  0.4848920000000 1.0
C      1  0.4159760000000  0.4256250000000  0.5197710000000 1.0
C      1  0.5938780000000  0.4303270000000  0.5142430000000 1.0
C      1  0.4141310000000  0.4308730000000  0.4899470000000 1.0
C      1  0.5558780000000  0.4423970000000  0.5673260000000 1.0
C      1  0.4438060000000  0.4481310000000  0.4323580000000 1.0
C      1  0.5525860000000  0.4419660000000  0.4333660000000 1.0
C      1  0.4499770000000  0.4405750000000  0.5677560000000 1.0
C      1  0.5965910000000  0.5077650000000  0.5250550000000 1.0
C      1  0.3965180000000  0.5049180000000  0.4697040000000 1.0
C      1  0.6094600000000  0.4932500000000  0.4837310000000 1.0
C      1  0.4046950000000  0.4978210000000  0.5194620000000 1.0
C      1  0.5228430000000  0.4814580000000  0.5071970000000 1.0
C      1  0.4960950000000  0.4800660000000  0.4723260000000 1.0
C      1  0.5281030000000  0.4565920000000  0.4914800000000 1.0
C      1  0.4963260000000  0.4809300000000  0.5219750000000 1.0
C      1  0.5187580000000  0.5000930000000  0.4419070000000 1.0
C      1  0.5085150000000  0.4943830000000  0.5567070000000 1.0
C      1  0.4996460000000  0.4798040000000  0.6077310000000 1.0
C      1  0.5003170000000  0.4826390000000  0.3920790000000 1.0
C      1  0.5143410000000  0.4648640000000  0.4504320000000 1.0
C      1  0.4972240000000  0.4613550000000  0.5464540000000 1.0
C      1  0.6084290000000  0.5174130000000  0.4996990000000 1.0
C      1  0.3983250000000  0.5149820000000  0.4966350000000 1.0
C      1  0.4906730000000  0.4231600000000  0.4088230000000 1.0
C      1  0.4988260000000  0.4157050000000  0.5880850000000 1.0
C      1  0.5554170000000  0.4180030000000  0.4953020000000 1.0
C      1  0.4815400000000  0.4391330000000  0.4980140000000 1.0
C      1  0.5020230000000  0.5642940000000  0.4178770000000 1.0
C      1  0.4981860000000  0.5611990000000  0.5847430000000 1.0
C      1  0.3931860000000  0.4677120000000  0.5139970000000 1.0
C      1  0.6178010000000  0.4672660000000  0.4932710000000 1.0
C      1  0.4632510000000  0.5130820000000  0.4958290000000 1.0
C      1  0.5509560000000  0.5151210000000  0.5036850000000 1.0
C      1  0.5916750000000  0.5391700000000  0.4883730000000 1.0
C      1  0.4220100000000  0.5309370000000  0.4952560000000 1.0
C      1  0.4969170000000  0.4104010000000  0.5595330000000 1.0
C      1  0.4893260000000  0.4050450000000  0.4321320000000 1.0
C      1  0.4925890000000  0.5166920000000  0.4476460000000 1.0
C      1  0.4868100000000  0.5144520000000  0.5489600000000 1.0
C      1  0.5811980000000  0.5658350000000  0.4988120000000 1.0
C      1  0.4162290000000  0.5594510000000  0.4969680000000 1.0
C      1  0.5563810000000  0.4497740000000  0.5003990000000 1.0
C      1  0.4804850000000  0.4696750000000  0.4973570000000 1.0
C      1  0.4537440000000  0.6027030000000  0.5003430000000 1.0
C      1  0.5455220000000  0.6113390000000  0.5034380000000 1.0
C      1  0.4986560000000  0.5091810000000  0.6141700000000 1.0
C      1  0.5022670000000  0.5121040000000  0.3871900000000 1.0
C      1  0.4940160000000  0.6006840000000  0.4743130000000 1.0
C      1  0.4928950000000  0.5987080000000  0.5278240000000 1.0
C      1  0.4409370000000  0.2896260000000  0.5166180000000 1.0
C      1  0.5132850000000  0.4997760000000  0.4857850000000 1.0
C      1  0.4832880000000  0.6115180000000  0.5013380000000 1.0
C      1  0.5059830000000  0.5448500000000  0.4989410000000 1.0
C      1  0.4853500000000  0.6397980000000  0.5024550000000 1.0
C      1  0.4889180000000  0.6659860000000  0.5034700000000 1.0
C      1  0.5264870000000  0.4089810000000  0.4980800000000 1.0
C      1  0.4922900000000  0.6921350000000  0.5044850000000 1.0
C      1  0.4564340000000  0.3099410000000  0.5176330000000 1.0
C      1  0.4991630000000  0.7444170000000  0.5065130000000 1.0
C      1  0.5031650000000  0.3738080000000  0.5207490000000 1.0
C      1  0.4881690000000  0.3520460000000  0.5197220000000 1.0
C      1  0.5118930000000  0.4347540000000  0.5043720000000 1.0
C      1  0.5228770000000  0.3930950000000  0.5218770000000 1.0
C      1  0.4937590000000  0.5179120000000  0.4978020000000 1.0
C      1  0.4720450000000  0.3311870000000  0.5186720000000 1.0
C      1  0.5025040000000  0.7697490000000  0.5074950000000 1.0
C      1  0.4957470000000  0.7182730000000  0.5054980000000 1.0
END
