TITL C-3577078-809-725 1.42425429707019e-06 125000 -817.090700687899 0 0 130 (C1) n - 1
REM
REM in /home/bkarasulu/work/CARBON/AIRSS/Generating-Clusters/EDIP-Nigel-Params/with-SteepDescent/Higher-Symm/SD-CG/HFTN-CG
REM
REM
REM
REM
REM
REM ./C.cell (12c818d87b63d06a65506943cc24bca4)
REM
REM compiler GCC version 9.2.1 20190827 (Red Hat 9.2.1-1)
REM options -cpp -mtune=generic -march=x86-64 -g -O0 -fpre-include=/usr/include/finclude/math-vector-fortran.h
REM seed -1383606482 158422507 2111426589 -1507805437 1380872416 -23363139 -466179491 2132502310 -1302924152 -1538724864 1373123715 1160086942 -409004897 -580899766 1908180940 -674700468 -1080155577 1482972361 -1701426453 1651691988 -1274303946 912593195 -988396576 -1007718634 -320337159 -367837929 1991321656 -985967837 2083757981 -1625709786 588360707 10847300 893663621
REM
CELL 1.54180   50.00000   50.00000   50.00000   90.00000   90.00000   90.00000
LATT -1
SFAC C  
C      1  0.5182200000000  0.4709380000000  0.5341400000000 1.0
C      1  0.5183600000000  0.5289010000000  0.5348500000000 1.0
C      1  0.4864280000000  0.4842570000000  0.4467750000000 1.0
C      1  0.4861830000000  0.5151520000000  0.4466440000000 1.0
C      1  0.4244520000000  0.5573210000000  0.5222980000000 1.0
C      1  0.4241220000000  0.4421510000000  0.5227580000000 1.0
C      1  0.4951430000000  0.4712950000000  0.5871720000000 1.0
C      1  0.4947270000000  0.5287530000000  0.5874360000000 1.0
C      1  0.4840540000000  0.4430950000000  0.5854390000000 1.0
C      1  0.4836040000000  0.5572340000000  0.5850930000000 1.0
C      1  0.5501010000000  0.4041100000000  0.4920740000000 1.0
C      1  0.5500830000000  0.5957630000000  0.4918930000000 1.0
C      1  0.5321160000000  0.5580210000000  0.5759490000000 1.0
C      1  0.5324960000000  0.4419050000000  0.5761460000000 1.0
C      1  0.4981100000000  0.4198390000000  0.5447240000000 1.0
C      1  0.4978490000000  0.5806200000000  0.5446210000000 1.0
C      1  0.4198010000000  0.4846890000000  0.4465950000000 1.0
C      1  0.4193310000000  0.5147020000000  0.4459950000000 1.0
C      1  0.5479640000000  0.4823060000000  0.5027720000000 1.0
C      1  0.5481960000000  0.5176350000000  0.5023810000000 1.0
C      1  0.5079920000000  0.5281160000000  0.4632280000000 1.0
C      1  0.5077950000000  0.4718840000000  0.4638050000000 1.0
C      1  0.4612930000000  0.4452850000000  0.5665870000000 1.0
C      1  0.4603140000000  0.5554020000000  0.5664160000000 1.0
C      1  0.5391320000000  0.4749430000000  0.4736530000000 1.0
C      1  0.5396480000000  0.5251220000000  0.4732900000000 1.0
C      1  0.5344830000000  0.5162720000000  0.4302850000000 1.0
C      1  0.5338580000000  0.4859570000000  0.4312340000000 1.0
C      1  0.4142180000000  0.5140400000000  0.5003480000000 1.0
C      1  0.4145600000000  0.4853820000000  0.5003260000000 1.0
C      1  0.4323590000000  0.5141060000000  0.5481550000000 1.0
C      1  0.4305590000000  0.4853870000000  0.5485990000000 1.0
C      1  0.5767430000000  0.4612120000000  0.5642540000000 1.0
C      1  0.5768540000000  0.5391140000000  0.5637440000000 1.0
C      1  0.5633560000000  0.4848420000000  0.5570010000000 1.0
C      1  0.5633100000000  0.5149920000000  0.5590440000000 1.0
C      1  0.4246340000000  0.5280360000000  0.5240470000000 1.0
C      1  0.4239700000000  0.4714520000000  0.5243980000000 1.0
C      1  0.5573600000000  0.5587510000000  0.5575020000000 1.0
C      1  0.5577320000000  0.4410560000000  0.5578900000000 1.0
C      1  0.4512960000000  0.5253030000000  0.5686350000000 1.0
C      1  0.4455400000000  0.4724290000000  0.5705580000000 1.0
C      1  0.4886580000000  0.4868090000000  0.6106540000000 1.0
C      1  0.4883340000000  0.5139070000000  0.6114270000000 1.0
C      1  0.5674970000000  0.5760010000000  0.4782700000000 1.0
C      1  0.5673700000000  0.4240410000000  0.4784130000000 1.0
C      1  0.4587460000000  0.4845460000000  0.4651360000000 1.0
C      1  0.4573800000000  0.5175290000000  0.4666950000000 1.0
C      1  0.4898280000000  0.5867080000000  0.4505240000000 1.0
C      1  0.4892960000000  0.4142490000000  0.4516820000000 1.0
C      1  0.4861930000000  0.4748370000000  0.4159540000000 1.0
C      1  0.4865850000000  0.5241740000000  0.4157770000000 1.0
C      1  0.4771700000000  0.5559850000000  0.4951010000000 1.0
C      1  0.4761550000000  0.4453580000000  0.4951810000000 1.0
C      1  0.4230550000000  0.4722440000000  0.4748110000000 1.0
C      1  0.4203240000000  0.5270810000000  0.4739950000000 1.0
C      1  0.4566060000000  0.4223260000000  0.4877970000000 1.0
C      1  0.4564200000000  0.5778670000000  0.4876350000000 1.0
C      1  0.4889330000000  0.4442980000000  0.4133360000000 1.0
C      1  0.4896600000000  0.5543280000000  0.4141820000000 1.0
C      1  0.5175940000000  0.4108560000000  0.4531750000000 1.0
C      1  0.5182150000000  0.5894590000000  0.4525520000000 1.0
C      1  0.5271420000000  0.4405540000000  0.4859650000000 1.0
C      1  0.5271590000000  0.5593020000000  0.4851410000000 1.0
C      1  0.5662910000000  0.4704700000000  0.4576380000000 1.0
C      1  0.5669390000000  0.5298640000000  0.4575940000000 1.0
C      1  0.4572070000000  0.4846750000000  0.4103820000000 1.0
C      1  0.4575390000000  0.5149410000000  0.4106180000000 1.0
C      1  0.4886670000000  0.5292750000000  0.5363260000000 1.0
C      1  0.4884480000000  0.4703470000000  0.5357720000000 1.0
C      1  0.5815600000000  0.4476150000000  0.5129860000000 1.0
C      1  0.5814100000000  0.5523350000000  0.5129040000000 1.0
C      1  0.4804270000000  0.5151320000000  0.5629730000000 1.0
C      1  0.4817750000000  0.4844130000000  0.5625830000000 1.0
C      1  0.4076720000000  0.4343060000000  0.5014050000000 1.0
C      1  0.4074770000000  0.5651380000000  0.5013350000000 1.0
C      1  0.4748430000000  0.5602350000000  0.5392090000000 1.0
C      1  0.4750390000000  0.4402010000000  0.5392250000000 1.0
C      1  0.5910230000000  0.4313340000000  0.4920450000000 1.0
C      1  0.5910200000000  0.5686560000000  0.4920670000000 1.0
C      1  0.5319850000000  0.5660010000000  0.4418480000000 1.0
C      1  0.5313600000000  0.4341630000000  0.4425190000000 1.0
C      1  0.5874310000000  0.4844350000000  0.4772400000000 1.0
C      1  0.5877300000000  0.5155120000000  0.4773060000000 1.0
C      1  0.5056240000000  0.5735130000000  0.5722250000000 1.0
C      1  0.5059190000000  0.4265170000000  0.5724700000000 1.0
C      1  0.5776520000000  0.5239260000000  0.5043130000000 1.0
C      1  0.5775130000000  0.4760070000000  0.5043350000000 1.0
C      1  0.5346340000000  0.4566960000000  0.5142740000000 1.0
C      1  0.5344250000000  0.5427670000000  0.5142440000000 1.0
C      1  0.4762740000000  0.5661570000000  0.4362270000000 1.0
C      1  0.4744330000000  0.4315010000000  0.4343920000000 1.0
C      1  0.5193840000000  0.4440620000000  0.4158910000000 1.0
C      1  0.5196520000000  0.5554240000000  0.4154760000000 1.0
C      1  0.4379340000000  0.4309430000000  0.4651840000000 1.0
C      1  0.4377340000000  0.5688140000000  0.4652090000000 1.0
C      1  0.4779700000000  0.5139220000000  0.5136990000000 1.0
C      1  0.4771560000000  0.4859250000000  0.5132990000000 1.0
C      1  0.4639740000000  0.4721340000000  0.4921770000000 1.0
C      1  0.4669670000000  0.5288170000000  0.4928190000000 1.0
C      1  0.5241340000000  0.5302280000000  0.5836290000000 1.0
C      1  0.5245910000000  0.4697120000000  0.5832920000000 1.0
C      1  0.4392510000000  0.5299780000000  0.4293100000000 1.0
C      1  0.4390300000000  0.4695570000000  0.4291800000000 1.0
C      1  0.4984580000000  0.5562220000000  0.4729340000000 1.0
C      1  0.4987350000000  0.4444230000000  0.4741210000000 1.0
C      1  0.4427720000000  0.4873660000000  0.5951750000000 1.0
C      1  0.4436860000000  0.5147380000000  0.5946980000000 1.0
C      1  0.5216290000000  0.4733850000000  0.4087960000000 1.0
C      1  0.5238950000000  0.5276070000000  0.4066530000000 1.0
C      1  0.4143550000000  0.4438930000000  0.4758630000000 1.0
C      1  0.4138460000000  0.5559390000000  0.4755870000000 1.0
C      1  0.5555840000000  0.5616390000000  0.5271730000000 1.0
C      1  0.5559070000000  0.4381310000000  0.5274770000000 1.0
C      1  0.5247500000000  0.5975420000000  0.4791530000000 1.0
C      1  0.5245310000000  0.4024760000000  0.4796190000000 1.0
C      1  0.5325460000000  0.4829010000000  0.5579410000000 1.0
C      1  0.5325190000000  0.5168200000000  0.5586160000000 1.0
C      1  0.5586920000000  0.5601120000000  0.4548770000000 1.0
C      1  0.5581610000000  0.4400870000000  0.4552340000000 1.0
C      1  0.4509810000000  0.5715520000000  0.5194820000000 1.0
C      1  0.4509980000000  0.4285300000000  0.5197680000000 1.0
C      1  0.5655540000000  0.5162450000000  0.4311260000000 1.0
C      1  0.5645330000000  0.4843210000000  0.4313230000000 1.0
C      1  0.4513340000000  0.4462700000000  0.4437590000000 1.0
C      1  0.4509860000000  0.5540990000000  0.4433780000000 1.0
C      1  0.5186300000000  0.5915650000000  0.5288320000000 1.0
C      1  0.5187920000000  0.4085020000000  0.5290410000000 1.0
C      1  0.5458070000000  0.4104850000000  0.5209500000000 1.0
C      1  0.5455610000000  0.5892760000000  0.5206510000000 1.0
END
