TITL C-3578207-9274-447 -1.00671802102883e-06 125000 -999.801404564314 0 0 162 (C1) n - 1
REM
REM in /home/bkarasulu/work/CARBON/AIRSS/Generating-Clusters/EDIP-Nigel-Params/with-SteepDescent/Higher-Symm/SD-CG/HFTN-CG
REM
REM
REM
REM
REM
REM ./C.cell (12c818d87b63d06a65506943cc24bca4)
REM
REM compiler GCC version 9.2.1 20190827 (Red Hat 9.2.1-1)
REM options -cpp -mtune=generic -march=x86-64 -g -O0 -fpre-include=/usr/include/finclude/math-vector-fortran.h
REM seed 2136807564 -2128567523 1642069164 -641018055 424131736 767337840 1931608431 1761156954 1943293525 -1115352625 1770769555 -315336485 2089807829 755370994 2133240755 1121533478 138519521 -1593158039 -1348707071 -1731977091 160291324 919068507 -1458718882 -178215522 -1742274179 -397704464 1937845040 1913420467 107787107 1907629729 -1222279356 -694486265 1186181665
REM
CELL 1.54180   50.00000   50.00000   50.00000   90.00000   90.00000   90.00000
LATT -1
SFAC C  
C      1  0.5246570000000  0.5119240000000  0.5994110000000 1.0
C      1  0.5789580000000  0.4888810000000  0.5648730000000 1.0
C      1  0.5993450000000  0.5169080000000  0.5050270000000 1.0
C      1  0.5813340000000  0.4878150000000  0.4444020000000 1.0
C      1  0.5370760000000  0.5101740000000  0.4005850000000 1.0
C      1  0.4762410000000  0.4865410000000  0.4013560000000 1.0
C      1  0.4253650000000  0.5159430000000  0.4360950000000 1.0
C      1  0.3978930000000  0.4899380000000  0.4933980000000 1.0
C      1  0.4135830000000  0.5147630000000  0.5560990000000 1.0
C      1  0.4614550000000  0.4869910000000  0.5972820000000 1.0
C      1  0.5559300000000  0.5905830000000  0.5518290000000 1.0
C      1  0.5708120000000  0.4069150000000  0.4981160000000 1.0
C      1  0.5435230000000  0.5889710000000  0.4557400000000 1.0
C      1  0.5195630000000  0.4088800000000  0.4348740000000 1.0
C      1  0.4860520000000  0.5909150000000  0.4330370000000 1.0
C      1  0.4431770000000  0.4085560000000  0.4623280000000 1.0
C      1  0.4327970000000  0.5941040000000  0.5019500000000 1.0
C      1  0.4491480000000  0.4137990000000  0.5406510000000 1.0
C      1  0.4809690000000  0.5929740000000  0.5688630000000 1.0
C      1  0.5249640000000  0.4095480000000  0.5637990000000 1.0
C      1  0.5934970000000  0.4689890000000  0.4913560000000 1.0
C      1  0.5632930000000  0.5317200000000  0.4367690000000 1.0
C      1  0.5210760000000  0.4650440000000  0.4043940000000 1.0
C      1  0.4719200000000  0.5310920000000  0.4159710000000 1.0
C      1  0.4198850000000  0.4697810000000  0.4503250000000 1.0
C      1  0.4078070000000  0.5354700000000  0.5084800000000 1.0
C      1  0.4269170000000  0.4676940000000  0.5631310000000 1.0
C      1  0.4769140000000  0.5324450000000  0.5893850000000 1.0
C      1  0.5376390000000  0.4668920000000  0.5874070000000 1.0
C      1  0.5749710000000  0.5349580000000  0.5489400000000 1.0
C      1  0.5262960000000  0.5269110000000  0.5007620000000 1.0
C      1  0.5226950000000  0.4703400000000  0.4858340000000 1.0
C      1  0.5079790000000  0.5123120000000  0.4820770000000 1.0
C      1  0.4917520000000  0.4715230000000  0.4752590000000 1.0
C      1  0.4807560000000  0.5252690000000  0.4867240000000 1.0
C      1  0.4683850000000  0.4696120000000  0.5015490000000 1.0
C      1  0.4790300000000  0.5296500000000  0.5181810000000 1.0
C      1  0.4856770000000  0.4700180000000  0.5277750000000 1.0
C      1  0.5099050000000  0.5298340000000  0.5270770000000 1.0
C      1  0.5235950000000  0.4736130000000  0.5186510000000 1.0
C      1  0.4316480000000  0.5079740000000  0.4836190000000 1.0
C      1  0.4332380000000  0.4948130000000  0.5288660000000 1.0
C      1  0.4621880000000  0.5027450000000  0.5605270000000 1.0
C      1  0.5043960000000  0.4918990000000  0.5726270000000 1.0
C      1  0.5443450000000  0.5042820000000  0.5544480000000 1.0
C      1  0.5697750000000  0.4947270000000  0.5178960000000 1.0
C      1  0.5630360000000  0.5068040000000  0.4731730000000 1.0
C      1  0.5361920000000  0.4887830000000  0.4385900000000 1.0
C      1  0.5012600000000  0.5033940000000  0.4337160000000 1.0
C      1  0.4571720000000  0.4930900000000  0.4468220000000 1.0
C      1  0.5591290000000  0.4340600000000  0.4896530000000 1.0
C      1  0.5304500000000  0.5684140000000  0.4384280000000 1.0
C      1  0.5024980000000  0.4338660000000  0.4364460000000 1.0
C      1  0.4775250000000  0.5669460000000  0.4486050000000 1.0
C      1  0.4473260000000  0.4377760000000  0.4702670000000 1.0
C      1  0.4424630000000  0.5675680000000  0.5148800000000 1.0
C      1  0.4623990000000  0.4390340000000  0.5474720000000 1.0
C      1  0.4965390000000  0.5660210000000  0.5589970000000 1.0
C      1  0.5403880000000  0.4330000000000  0.5518640000000 1.0
C      1  0.5485840000000  0.5727640000000  0.5295350000000 1.0
C      1  0.4100830000000  0.4607600000000  0.4954710000000 1.0
C      1  0.4229100000000  0.5431570000000  0.5530020000000 1.0
C      1  0.4663290000000  0.4571330000000  0.5901860000000 1.0
C      1  0.5236800000000  0.5406820000000  0.5915070000000 1.0
C      1  0.5758150000000  0.4592830000000  0.5589070000000 1.0
C      1  0.5850280000000  0.5448380000000  0.5033090000000 1.0
C      1  0.5745870000000  0.4590970000000  0.4492810000000 1.0
C      1  0.5327230000000  0.5394090000000  0.4015740000000 1.0
C      1  0.4743160000000  0.4569640000000  0.4063300000000 1.0
C      1  0.4352390000000  0.5427950000000  0.4441200000000 1.0
C      1  0.4838630000000  0.5404900000000  0.3923330000000 1.0
C      1  0.4371270000000  0.4603830000000  0.4306030000000 1.0
C      1  0.4088470000000  0.5448110000000  0.4823700000000 1.0
C      1  0.4130420000000  0.4581730000000  0.5409900000000 1.0
C      1  0.4519910000000  0.5448670000000  0.5894190000000 1.0
C      1  0.5133830000000  0.4566410000000  0.5956810000000 1.0
C      1  0.5675320000000  0.5455150000000  0.5738730000000 1.0
C      1  0.5952050000000  0.4595330000000  0.5172630000000 1.0
C      1  0.5803650000000  0.5423420000000  0.4557540000000 1.0
C      1  0.5454670000000  0.4551670000000  0.4134110000000 1.0
C      1  0.4416100000000  0.5593510000000  0.5680080000000 1.0
C      1  0.4922870000000  0.4433730000000  0.5838070000000 1.0
C      1  0.5427770000000  0.5576660000000  0.5787980000000 1.0
C      1  0.5798550000000  0.4434820000000  0.5341310000000 1.0
C      1  0.5755750000000  0.5572830000000  0.4785610000000 1.0
C      1  0.5568810000000  0.4417460000000  0.4349280000000 1.0
C      1  0.5069320000000  0.5538750000000  0.4014350000000 1.0
C      1  0.4601550000000  0.4443340000000  0.4286250000000 1.0
C      1  0.4268700000000  0.5588940000000  0.4665190000000 1.0
C      1  0.4145880000000  0.4423280000000  0.5181660000000 1.0
C      1  0.5541000000000  0.4480840000000  0.5735210000000 1.0
C      1  0.5687070000000  0.5509580000000  0.5266350000000 1.0
C      1  0.5802200000000  0.4497020000000  0.4754070000000 1.0
C      1  0.5490980000000  0.5516470000000  0.4221880000000 1.0
C      1  0.5003350000000  0.4458430000000  0.4090380000000 1.0
C      1  0.4592650000000  0.5512370000000  0.4317230000000 1.0
C      1  0.4203990000000  0.4505320000000  0.4706630000000 1.0
C      1  0.4195740000000  0.5533560000000  0.5268380000000 1.0
C      1  0.4475240000000  0.4491400000000  0.5702470000000 1.0
C      1  0.4982190000000  0.5500240000000  0.5840640000000 1.0
C      1  0.5383110000000  0.3963520000000  0.5376310000000 1.0
C      1  0.5490960000000  0.5901210000000  0.5059520000000 1.0
C      1  0.5487940000000  0.3993200000000  0.4753880000000 1.0
C      1  0.5277310000000  0.6118590000000  0.4582460000000 1.0
C      1  0.4925480000000  0.3968190000000  0.4452570000000 1.0
C      1  0.4646210000000  0.5999020000000  0.4639290000000 1.0
C      1  0.4477750000000  0.3979180000000  0.4899090000000 1.0
C      1  0.4529980000000  0.6032910000000  0.5262780000000 1.0
C      1  0.4778520000000  0.4027780000000  0.5460510000000 1.0
C      1  0.5090580000000  0.6026290000000  0.5586140000000 1.0
C      1  0.4049340000000  0.5077820000000  0.5188420000000 1.0
C      1  0.4333610000000  0.4956610000000  0.5724650000000 1.0
C      1  0.4865600000000  0.5052620000000  0.5969440000000 1.0
C      1  0.5464440000000  0.4950450000000  0.5848190000000 1.0
C      1  0.5864070000000  0.5080970000000  0.5411770000000 1.0
C      1  0.5927580000000  0.4971310000000  0.4803730000000 1.0
C      1  0.5602530000000  0.5039900000000  0.4253450000000 1.0
C      1  0.5106660000000  0.4933660000000  0.4029890000000 1.0
C      1  0.4575330000000  0.5053740000000  0.4172120000000 1.0
C      1  0.4139570000000  0.4981840000000  0.4590200000000 1.0
C      1  0.5481000000000  0.4831530000000  0.5335940000000 1.0
C      1  0.5563670000000  0.5172640000000  0.5006800000000 1.0
C      1  0.5431410000000  0.4847380000000  0.4671710000000 1.0
C      1  0.5180530000000  0.5191540000000  0.4551770000000 1.0
C      1  0.4846040000000  0.4841200000000  0.4488600000000 1.0
C      1  0.4578260000000  0.5114880000000  0.4715010000000 1.0
C      1  0.4404510000000  0.4843990000000  0.5020490000000 1.0
C      1  0.4587300000000  0.5119040000000  0.5326700000000 1.0
C      1  0.4795780000000  0.4773630000000  0.5587410000000 1.0
C      1  0.5159990000000  0.5107890000000  0.5503580000000 1.0
C      1  0.4646950000000  0.4144440000000  0.4398180000000 1.0
C      1  0.4398250000000  0.5852180000000  0.4745780000000 1.0
C      1  0.4384320000000  0.4224010000000  0.5141750000000 1.0
C      1  0.4572620000000  0.5820810000000  0.5525560000000 1.0
C      1  0.4968360000000  0.4189260000000  0.5656740000000 1.0
C      1  0.5347890000000  0.5854710000000  0.5693930000000 1.0
C      1  0.5692550000000  0.4151000000000  0.5268480000000 1.0
C      1  0.5502150000000  0.5737180000000  0.4812560000000 1.0
C      1  0.5417070000000  0.4205380000000  0.4513700000000 1.0
C      1  0.5089880000000  0.5783760000000  0.4195430000000 1.0
C      1  0.4729050000000  0.5597010000000  0.5223860000000 1.0
C      1  0.4949890000000  0.4370750000000  0.5258160000000 1.0
C      1  0.5156930000000  0.5600380000000  0.5326320000000 1.0
C      1  0.5226030000000  0.4468710000000  0.5319480000000 1.0
C      1  0.5252610000000  0.5554240000000  0.4866940000000 1.0
C      1  0.5271200000000  0.4399330000000  0.4822590000000 1.0
C      1  0.5157490000000  0.5496400000000  0.4579420000000 1.0
C      1  0.4868150000000  0.4426190000000  0.4641520000000 1.0
C      1  0.4819650000000  0.5554950000000  0.4792180000000 1.0
C      1  0.4607240000000  0.4393400000000  0.4984060000000 1.0
C      1  0.4835230000000  0.6101050000000  0.4851410000000 1.0
C      1  0.4758220000000  0.3900460000000  0.4948870000000 1.0
C      1  0.4795480000000  0.6105880000000  0.5144750000000 1.0
C      1  0.4898660000000  0.3935910000000  0.5205110000000 1.0
C      1  0.5056710000000  0.6073880000000  0.5284320000000 1.0
C      1  0.5181260000000  0.3942250000000  0.5160390000000 1.0
C      1  0.5253110000000  0.6069280000000  0.5065130000000 1.0
C      1  0.5229270000000  0.3912500000000  0.4878860000000 1.0
C      1  0.5121870000000  0.6078610000000  0.4810850000000 1.0
C      1  0.4967960000000  0.3894140000000  0.4742000000000 1.0
C      1  0.4974950000000  0.5725220000000  0.5031340000000 1.0
C      1  0.4984510000000  0.4272740000000  0.4935820000000 1.0
END
