TITL C-3578196-9646-220 1.27730397661664e-06 125000 -941.442006440164 0 0 148 (C4) n - 1
REM
REM in /home/bkarasulu/work/CARBON/AIRSS/Generating-Clusters/EDIP-Nigel-Params/with-SteepDescent/Higher-Symm/SD-CG/HFTN-CG
REM
REM
REM
REM
REM
REM ./C.cell (12c818d87b63d06a65506943cc24bca4)
REM
REM compiler GCC version 9.2.1 20190827 (Red Hat 9.2.1-1)
REM options -cpp -mtune=generic -march=x86-64 -g -O0 -fpre-include=/usr/include/finclude/math-vector-fortran.h
REM seed -989997692 -1492222370 -144870344 -141833346 -1022334756 1827333882 1638530398 -671090110 24874608 501433509 1171370906 -997867746 -1278156716 -1239473462 1810637907 1500997008 -1026704042 282656352 1907527846 432522948 -1900511009 142195971 1331668099 -753921744 -1488582608 1975455006 -998389538 -1598254350 1761114587 -1368015483 -831722172 -1716460319 -325052699
REM
CELL 1.54180   50.00000   50.00000   50.00000   90.00000   90.00000   90.00000
LATT -1
SFAC C  
C      1  0.4940910000000  0.5874020000000  0.4470280000000 1.0
C      1  0.4126040000000  0.4941080000000  0.4470150000000 1.0
C      1  0.5058990000000  0.4126210000000  0.4469880000000 1.0
C      1  0.5873850000000  0.5059160000000  0.4470010000000 1.0
C      1  0.4929090000000  0.5900960000000  0.5540530000000 1.0
C      1  0.4098970000000  0.4928920000000  0.5540390000000 1.0
C      1  0.5071010000000  0.4098800000000  0.5540110000000 1.0
C      1  0.5901130000000  0.5070840000000  0.5540250000000 1.0
C      1  0.4683640000000  0.5866010000000  0.5670270000000 1.0
C      1  0.4133900000000  0.4683430000000  0.5670060000000 1.0
C      1  0.5316490000000  0.4133690000000  0.5669830000000 1.0
C      1  0.5866230000000  0.5316270000000  0.5670040000000 1.0
C      1  0.4715020000000  0.5877020000000  0.4308050000000 1.0
C      1  0.4123070000000  0.4715240000000  0.4307850000000 1.0
C      1  0.5284840000000  0.4123290000000  0.4307600000000 1.0
C      1  0.5876800000000  0.5285070000000  0.4307810000000 1.0
C      1  0.4580850000000  0.4631100000000  0.4199960000000 1.0
C      1  0.5369000000000  0.4581110000000  0.4199870000000 1.0
C      1  0.5418990000000  0.5369260000000  0.4200040000000 1.0
C      1  0.4630840000000  0.5419250000000  0.4200130000000 1.0
C      1  0.4596360000000  0.4620690000000  0.5775700000000 1.0
C      1  0.5379220000000  0.4596110000000  0.5775620000000 1.0
C      1  0.5403790000000  0.5378970000000  0.5775800000000 1.0
C      1  0.4620930000000  0.5403540000000  0.5775880000000 1.0
C      1  0.4200160000000  0.4452520000000  0.4800790000000 1.0
C      1  0.5547500000000  0.4200220000000  0.4800600000000 1.0
C      1  0.5799810000000  0.5547570000000  0.4800880000000 1.0
C      1  0.4452460000000  0.5799870000000  0.4801060000000 1.0
C      1  0.4208970000000  0.4573980000000  0.5255640000000 1.0
C      1  0.5425990000000  0.4208880000000  0.5255440000000 1.0
C      1  0.5791080000000  0.5425900000000  0.5255670000000 1.0
C      1  0.4574060000000  0.5791000000000  0.5255870000000 1.0
C      1  0.5492800000000  0.4763220000000  0.4840670000000 1.0
C      1  0.5236800000000  0.5492860000000  0.4840860000000 1.0
C      1  0.4507160000000  0.5236850000000  0.4840870000000 1.0
C      1  0.4763170000000  0.4507220000000  0.4840690000000 1.0
C      1  0.5506370000000  0.4633330000000  0.5117930000000 1.0
C      1  0.5366650000000  0.5506330000000  0.5118140000000 1.0
C      1  0.4493660000000  0.5366610000000  0.5118190000000 1.0
C      1  0.4633370000000  0.4493620000000  0.5117980000000 1.0
C      1  0.5967810000000  0.4787230000000  0.4857390000000 1.0
C      1  0.5212780000000  0.5967860000000  0.4857720000000 1.0
C      1  0.4032160000000  0.5212830000000  0.4857670000000 1.0
C      1  0.4787190000000  0.4032210000000  0.4857330000000 1.0
C      1  0.5979720000000  0.4765870000000  0.5152410000000 1.0
C      1  0.5234110000000  0.5979670000000  0.5152750000000 1.0
C      1  0.4020310000000  0.5234060000000  0.5152700000000 1.0
C      1  0.4765920000000  0.4020260000000  0.5152360000000 1.0
C      1  0.4774680000000  0.5342990000000  0.5250580000000 1.0
C      1  0.4656980000000  0.4774600000000  0.5250460000000 1.0
C      1  0.5225360000000  0.4656900000000  0.5250380000000 1.0
C      1  0.5343070000000  0.5225280000000  0.5250500000000 1.0
C      1  0.4783700000000  0.5323450000000  0.4736590000000 1.0
C      1  0.4676590000000  0.4783780000000  0.4736480000000 1.0
C      1  0.5216250000000  0.4676670000000  0.4736400000000 1.0
C      1  0.5323360000000  0.5216330000000  0.4736510000000 1.0
C      1  0.5072430000000  0.4126870000000  0.4763210000000 1.0
C      1  0.5873160000000  0.5072510000000  0.4763340000000 1.0
C      1  0.4927520000000  0.5873240000000  0.4763620000000 1.0
C      1  0.4126790000000  0.4927600000000  0.4763480000000 1.0
C      1  0.5049100000000  0.3992130000000  0.5265930000000 1.0
C      1  0.6007830000000  0.5049010000000  0.5266080000000 1.0
C      1  0.4950960000000  0.6007750000000  0.5266390000000 1.0
C      1  0.3992220000000  0.4950870000000  0.5266250000000 1.0
C      1  0.4381710000000  0.4299720000000  0.5471390000000 1.0
C      1  0.5700220000000  0.4381560000000  0.5471280000000 1.0
C      1  0.5618380000000  0.5700070000000  0.5471580000000 1.0
C      1  0.4299870000000  0.5618230000000  0.5471690000000 1.0
C      1  0.4368120000000  0.4379190000000  0.4570940000000 1.0
C      1  0.5620860000000  0.4368260000000  0.4570810000000 1.0
C      1  0.5631790000000  0.5621000000000  0.4571090000000 1.0
C      1  0.4379050000000  0.5631930000000  0.4571210000000 1.0
C      1  0.5718180000000  0.4646220000000  0.4654230000000 1.0
C      1  0.5353820000000  0.5718290000000  0.4654500000000 1.0
C      1  0.4281750000000  0.5353930000000  0.4654520000000 1.0
C      1  0.4646110000000  0.4281860000000  0.4654250000000 1.0
C      1  0.5737920000000  0.4655560000000  0.5329980000000 1.0
C      1  0.5344400000000  0.5737820000000  0.5330260000000 1.0
C      1  0.4262140000000  0.5344300000000  0.5330270000000 1.0
C      1  0.4655660000000  0.4262030000000  0.5329990000000 1.0
C      1  0.5528120000000  0.4822850000000  0.4210280000000 1.0
C      1  0.5177250000000  0.5528370000000  0.4210480000000 1.0
C      1  0.4471730000000  0.5177500000000  0.4210470000000 1.0
C      1  0.4822600000000  0.4471980000000  0.4210270000000 1.0
C      1  0.5529750000000  0.4845210000000  0.5765080000000 1.0
C      1  0.5154700000000  0.5529510000000  0.5765270000000 1.0
C      1  0.4470400000000  0.5154450000000  0.5765250000000 1.0
C      1  0.4845450000000  0.4470150000000  0.5765060000000 1.0
C      1  0.4263910000000  0.5181950000000  0.4408410000000 1.0
C      1  0.4818130000000  0.4264100000000  0.4408150000000 1.0
C      1  0.5735980000000  0.4818320000000  0.4408190000000 1.0
C      1  0.5181760000000  0.5736170000000  0.4408450000000 1.0
C      1  0.4308040000000  0.5123180000000  0.5531190000000 1.0
C      1  0.4876750000000  0.4307870000000  0.5530950000000 1.0
C      1  0.5692060000000  0.4876580000000  0.5531000000000 1.0
C      1  0.5123350000000  0.5691890000000  0.5531230000000 1.0
C      1  0.4784630000000  0.4957300000000  0.3888500000000 1.0
C      1  0.5042840000000  0.4784980000000  0.3888430000000 1.0
C      1  0.5215160000000  0.5043200000000  0.3888470000000 1.0
C      1  0.4956940000000  0.5215510000000  0.3888540000000 1.0
C      1  0.4786410000000  0.4950840000000  0.6097570000000 1.0
C      1  0.5049020000000  0.4786060000000  0.6097510000000 1.0
C      1  0.5213810000000  0.5048670000000  0.6097550000000 1.0
C      1  0.4951190000000  0.5213450000000  0.6097610000000 1.0
C      1  0.4538030000000  0.5662760000000  0.4326920000000 1.0
C      1  0.4337320000000  0.4538240000000  0.4326690000000 1.0
C      1  0.5461840000000  0.4337540000000  0.4326530000000 1.0
C      1  0.5662550000000  0.5462060000000  0.4326760000000 1.0
C      1  0.4509750000000  0.5647240000000  0.5667070000000 1.0
C      1  0.4352670000000  0.4509540000000  0.5666830000000 1.0
C      1  0.5490380000000  0.4352460000000  0.5666690000000 1.0
C      1  0.5647460000000  0.5490160000000  0.5666930000000 1.0
C      1  0.4922830000000  0.5377920000000  0.4136090000000 1.0
C      1  0.4622190000000  0.4923110000000  0.4136020000000 1.0
C      1  0.5077000000000  0.4622460000000  0.4135910000000 1.0
C      1  0.5377650000000  0.5077280000000  0.4135980000000 1.0
C      1  0.4913770000000  0.5364440000000  0.5843330000000 1.0
C      1  0.4635450000000  0.4913500000000  0.5843250000000 1.0
C      1  0.5086390000000  0.4635180000000  0.5843150000000 1.0
C      1  0.5364710000000  0.5086120000000  0.5843220000000 1.0
C      1  0.5565110000000  0.5068890000000  0.4878100000000 1.0
C      1  0.4931130000000  0.5565150000000  0.4878270000000 1.0
C      1  0.4434860000000  0.4931170000000  0.4878180000000 1.0
C      1  0.5068850000000  0.4434900000000  0.4878010000000 1.0
C      1  0.5626400000000  0.5144310000000  0.5201690000000 1.0
C      1  0.4855660000000  0.5626330000000  0.5201870000000 1.0
C      1  0.4373640000000  0.4855590000000  0.5201750000000 1.0
C      1  0.5144380000000  0.4373580000000  0.5201570000000 1.0
C      1  0.5119740000000  0.4809210000000  0.5494720000000 1.0
C      1  0.5190730000000  0.5119580000000  0.5494780000000 1.0
C      1  0.4880360000000  0.5190570000000  0.5494820000000 1.0
C      1  0.4809370000000  0.4880200000000  0.5494760000000 1.0
C      1  0.5114050000000  0.4806060000000  0.4478400000000 1.0
C      1  0.5194000000000  0.5114220000000  0.4478460000000 1.0
C      1  0.4885850000000  0.5194170000000  0.4478510000000 1.0
C      1  0.4805890000000  0.4886020000000  0.4478450000000 1.0
C      1  0.5332870000000  0.3987240000000  0.4843320000000 1.0
C      1  0.6012780000000  0.5332920000000  0.4843560000000 1.0
C      1  0.4667100000000  0.6012830000000  0.4843840000000 1.0
C      1  0.3987190000000  0.4667150000000  0.4843600000000 1.0
C      1  0.5327900000000  0.3936470000000  0.5134830000000 1.0
C      1  0.6063510000000  0.5327850000000  0.5135070000000 1.0
C      1  0.4672130000000  0.6063470000000  0.5135370000000 1.0
C      1  0.3936520000000  0.4672090000000  0.5135130000000 1.0
C      1  0.4418310000000  0.5658700000000  0.5049980000000 1.0
C      1  0.5581700000000  0.4341280000000  0.5049570000000 1.0
C      1  0.5658720000000  0.5581690000000  0.5049840000000 1.0
C      1  0.4341290000000  0.4418290000000  0.5049710000000 1.0
END
