TITL C-3577087-600-500 -2.1665420079424e-06 125000 -700.201497380149 0 0 114 (C1) n - 1
REM
REM in /home/bkarasulu/work/CARBON/AIRSS/Generating-Clusters/EDIP-Nigel-Params/with-SteepDescent/Higher-Symm/SD-CG/HFTN-CG
REM
REM
REM
REM
REM
REM ./C.cell (12c818d87b63d06a65506943cc24bca4)
REM
REM compiler GCC version 9.2.1 20190827 (Red Hat 9.2.1-1)
REM options -cpp -mtune=generic -march=x86-64 -g -O0 -fpre-include=/usr/include/finclude/math-vector-fortran.h
REM seed -1885865098 -475619893 -1948705575 1511533568 1806709645 16315857 -831922633 424904054 -1693905794 392549570 1407725279 1484754617 375717583 -270541975 1498248732 936586488 -429061223 1297414903 2042154709 1132645106 2048327896 2037586582 -1625825038 1533669262 1074285180 217604202 -170429273 1749174852 -1195000535 848314355 -761870916 -974091969 -1066513873
REM
CELL 1.54180   50.00000   50.00000   50.00000   90.00000   90.00000   90.00000
LATT -1
SFAC C  
C      1  0.4742420000000  0.5836730000000  0.5445970000000 1.0
C      1  0.5376250000000  0.4687260000000  0.5838200000000 1.0
C      1  0.5814130000000  0.5404930000000  0.4746940000000 1.0
C      1  0.5232740000000  0.4144270000000  0.5429210000000 1.0
C      1  0.5199920000000  0.5824300000000  0.4587800000000 1.0
C      1  0.4784850000000  0.4265950000000  0.4591740000000 1.0
C      1  0.4628550000000  0.5251770000000  0.5890150000000 1.0
C      1  0.4586160000000  0.4719640000000  0.4134920000000 1.0
C      1  0.5373140000000  0.5204830000000  0.4206730000000 1.0
C      1  0.4132530000000  0.4627110000000  0.4731580000000 1.0
C      1  0.4214160000000  0.5384010000000  0.5266860000000 1.0
C      1  0.5851490000000  0.4593700000000  0.5280860000000 1.0
C      1  0.4719160000000  0.5803260000000  0.4571140000000 1.0
C      1  0.5393710000000  0.4725990000000  0.4204560000000 1.0
C      1  0.5827570000000  0.5424880000000  0.5224440000000 1.0
C      1  0.5235980000000  0.4113640000000  0.4577170000000 1.0
C      1  0.5222370000000  0.5844830000000  0.5389230000000 1.0
C      1  0.4747850000000  0.4153330000000  0.5339950000000 1.0
C      1  0.4565350000000  0.5208450000000  0.4131720000000 1.0
C      1  0.4607170000000  0.4692620000000  0.5838530000000 1.0
C      1  0.5437540000000  0.5243380000000  0.5800550000000 1.0
C      1  0.4181770000000  0.4598730000000  0.5317750000000 1.0
C      1  0.4211790000000  0.5378190000000  0.4779500000000 1.0
C      1  0.5818640000000  0.4579930000000  0.4798700000000 1.0
C      1  0.4712290000000  0.5434180000000  0.4870390000000 1.0
C      1  0.4803070000000  0.4705390000000  0.5271160000000 1.0
C      1  0.5401070000000  0.4832930000000  0.4777090000000 1.0
C      1  0.5117650000000  0.4443290000000  0.4932780000000 1.0
C      1  0.5045070000000  0.5514850000000  0.5158450000000 1.0
C      1  0.4810690000000  0.4530490000000  0.5018470000000 1.0
C      1  0.5172390000000  0.5285710000000  0.5312680000000 1.0
C      1  0.5191920000000  0.4645660000000  0.4677130000000 1.0
C      1  0.4906640000000  0.5092900000000  0.4559930000000 1.0
C      1  0.4637190000000  0.5172900000000  0.4692740000000 1.0
C      1  0.4566040000000  0.4911150000000  0.5267430000000 1.0
C      1  0.5387220000000  0.5133820000000  0.5148870000000 1.0
C      1  0.4714480000000  0.5438530000000  0.5182120000000 1.0
C      1  0.4927270000000  0.4774930000000  0.4580710000000 1.0
C      1  0.5415550000000  0.4836720000000  0.5217770000000 1.0
C      1  0.5269430000000  0.4549590000000  0.5193150000000 1.0
C      1  0.5034880000000  0.5503720000000  0.4839330000000 1.0
C      1  0.4705870000000  0.4667660000000  0.4762700000000 1.0
C      1  0.5135590000000  0.5254380000000  0.4692670000000 1.0
C      1  0.5090820000000  0.4729680000000  0.5396090000000 1.0
C      1  0.4954300000000  0.5139510000000  0.5475620000000 1.0
C      1  0.4674350000000  0.5181680000000  0.5357440000000 1.0
C      1  0.4516970000000  0.4903060000000  0.4778550000000 1.0
C      1  0.5371970000000  0.5120710000000  0.4833680000000 1.0
C      1  0.5331710000000  0.4519160000000  0.4421130000000 1.0
C      1  0.4399030000000  0.5318090000000  0.4548670000000 1.0
C      1  0.4610320000000  0.4329690000000  0.5139680000000 1.0
C      1  0.4767520000000  0.5339800000000  0.4301340000000 1.0
C      1  0.4705700000000  0.4545790000000  0.5608090000000 1.0
C      1  0.5306730000000  0.5443930000000  0.5634820000000 1.0
C      1  0.5659100000000  0.4777820000000  0.4653310000000 1.0
C      1  0.5670470000000  0.5245830000000  0.5385380000000 1.0
C      1  0.4368960000000  0.4789550000000  0.5456270000000 1.0
C      1  0.5390720000000  0.5681270000000  0.5222710000000 1.0
C      1  0.5414160000000  0.4251440000000  0.4768490000000 1.0
C      1  0.4550470000000  0.5666270000000  0.4771450000000 1.0
C      1  0.5142910000000  0.4575360000000  0.5679310000000 1.0
C      1  0.4358010000000  0.5339210000000  0.5515710000000 1.0
C      1  0.4513380000000  0.4346330000000  0.4651270000000 1.0
C      1  0.4797780000000  0.5407350000000  0.5714470000000 1.0
C      1  0.4829520000000  0.4615180000000  0.4255180000000 1.0
C      1  0.5277590000000  0.5415700000000  0.4375730000000 1.0
C      1  0.5654870000000  0.4803580000000  0.5395170000000 1.0
C      1  0.5658190000000  0.5212590000000  0.4596960000000 1.0
C      1  0.4325300000000  0.4801830000000  0.4578590000000 1.0
C      1  0.5376350000000  0.5668750000000  0.4754550000000 1.0
C      1  0.5431610000000  0.4354400000000  0.5353580000000 1.0
C      1  0.4554060000000  0.5665890000000  0.5293620000000 1.0
C      1  0.5612690000000  0.4862670000000  0.5696080000000 1.0
C      1  0.5656710000000  0.5647060000000  0.4833420000000 1.0
C      1  0.4873400000000  0.5684910000000  0.5677470000000 1.0
C      1  0.4381130000000  0.5182720000000  0.5760700000000 1.0
C      1  0.4370210000000  0.4894250000000  0.4283230000000 1.0
C      1  0.5638560000000  0.5130210000000  0.4314660000000 1.0
C      1  0.4264800000000  0.4372560000000  0.4803830000000 1.0
C      1  0.4202080000000  0.5661370000000  0.5170280000000 1.0
C      1  0.5692200000000  0.4335810000000  0.5204740000000 1.0
C      1  0.5089070000000  0.4266360000000  0.5671890000000 1.0
C      1  0.5130210000000  0.5663580000000  0.4348230000000 1.0
C      1  0.4883840000000  0.4340630000000  0.4330540000000 1.0
C      1  0.5654960000000  0.4839860000000  0.4280360000000 1.0
C      1  0.5666050000000  0.5659880000000  0.5127740000000 1.0
C      1  0.4834760000000  0.5624930000000  0.4344610000000 1.0
C      1  0.4310200000000  0.5197100000000  0.4290960000000 1.0
C      1  0.4386810000000  0.4874340000000  0.5746290000000 1.0
C      1  0.5676990000000  0.5159160000000  0.5662930000000 1.0
C      1  0.4306740000000  0.4375700000000  0.5110020000000 1.0
C      1  0.4196410000000  0.5659710000000  0.4876670000000 1.0
C      1  0.5650280000000  0.4359220000000  0.4908550000000 1.0
C      1  0.5179800000000  0.4277880000000  0.4329030000000 1.0
C      1  0.5170860000000  0.5704210000000  0.5645570000000 1.0
C      1  0.4791060000000  0.4269660000000  0.5611840000000 1.0
C      1  0.4966260000000  0.5932120000000  0.5270350000000 1.0
C      1  0.5278890000000  0.4983630000000  0.5862300000000 1.0
C      1  0.5942580000000  0.5282950000000  0.4988390000000 1.0
C      1  0.5014430000000  0.4133380000000  0.5231850000000 1.0
C      1  0.4952150000000  0.5919100000000  0.4717010000000 1.0
C      1  0.4980110000000  0.4082190000000  0.4712210000000 1.0
C      1  0.4736650000000  0.4963910000000  0.5899070000000 1.0
C      1  0.4691610000000  0.4959770000000  0.4011080000000 1.0
C      1  0.5210990000000  0.4960900000000  0.4188900000000 1.0
C      1  0.4157460000000  0.4729380000000  0.5036180000000 1.0
C      1  0.4274840000000  0.5228020000000  0.5027480000000 1.0
C      1  0.5963730000000  0.4714410000000  0.5023490000000 1.0
C      1  0.4976460000000  0.4962950000000  0.4032410000000 1.0
C      1  0.4374190000000  0.4945330000000  0.5030710000000 1.0
C      1  0.5030470000000  0.4024080000000  0.4978770000000 1.0
C      1  0.4996830000000  0.4988350000000  0.5735600000000 1.0
C      1  0.5977680000000  0.4999640000000  0.5004420000000 1.0
C      1  0.4941230000000  0.5984540000000  0.4992760000000 1.0
END
