TITL C-3577087-600-625 -3.30052283544154e-06 125000 -1140.04549030648 0 0 180 (C2h) n - 1
REM
REM in /home/bkarasulu/work/CARBON/AIRSS/Generating-Clusters/EDIP-Nigel-Params/with-SteepDescent/Higher-Symm/SD-CG/HFTN-CG
REM
REM
REM
REM
REM
REM ./C.cell (12c818d87b63d06a65506943cc24bca4)
REM
REM compiler GCC version 9.2.1 20190827 (Red Hat 9.2.1-1)
REM options -cpp -mtune=generic -march=x86-64 -g -O0 -fpre-include=/usr/include/finclude/math-vector-fortran.h
REM seed -1834602002 -1190437005 1390070666 683934428 -869591425 429543937 -1884978453 -686288434 -1952967984 2026243894 -1420919968 -1320958547 1053313293 1152247498 288630312 -1565798020 999071144 352193223 747827671 -136538559 -1426782022 -1492286466 -1202260273 -1632132929 1568944050 -2074085252 652210243 -245003472 -857059111 2088513009 -1581837688 233518076 -1850457395
REM
CELL 1.54180   50.00000   50.00000   50.00000   90.00000   90.00000   90.00000
LATT -1
SFAC C  
C      1  0.5224800000000  0.4799900000000  0.3891920000000 1.0
C      1  0.4935170000000  0.4703780000000  0.3889350000000 1.0
C      1  0.4709750000000  0.4905320000000  0.3894760000000 1.0
C      1  0.4775160000000  0.5200110000000  0.3891930000000 1.0
C      1  0.5064790000000  0.5296230000000  0.3889350000000 1.0
C      1  0.5290220000000  0.5094700000000  0.3894750000000 1.0
C      1  0.5224840000000  0.4799890000000  0.6108070000000 1.0
C      1  0.4935210000000  0.4703770000000  0.6110650000000 1.0
C      1  0.4709780000000  0.4905300000000  0.6105250000000 1.0
C      1  0.4775200000000  0.5200100000000  0.6108080000000 1.0
C      1  0.5064830000000  0.5296220000000  0.6110650000000 1.0
C      1  0.5290250000000  0.5094680000000  0.6105240000000 1.0
C      1  0.4349360000000  0.4437510000000  0.4338070000000 1.0
C      1  0.4201420000000  0.5295490000000  0.4343170000000 1.0
C      1  0.4840340000000  0.5876190000000  0.4324440000000 1.0
C      1  0.5650620000000  0.5562500000000  0.4338060000000 1.0
C      1  0.5798560000000  0.4704520000000  0.4343140000000 1.0
C      1  0.5159640000000  0.4123820000000  0.4324430000000 1.0
C      1  0.4349380000000  0.4437500000000  0.5661940000000 1.0
C      1  0.4201440000000  0.5295480000000  0.5656860000000 1.0
C      1  0.4840360000000  0.5876180000000  0.5675570000000 1.0
C      1  0.5650640000000  0.5562490000000  0.5661930000000 1.0
C      1  0.5798580000000  0.4704510000000  0.5656830000000 1.0
C      1  0.5159660000000  0.4123810000000  0.5675560000000 1.0
C      1  0.5199070000000  0.5216640000000  0.4358320000000 1.0
C      1  0.5280900000000  0.4932250000000  0.4377510000000 1.0
C      1  0.5089250000000  0.4712220000000  0.4302010000000 1.0
C      1  0.4800910000000  0.4783370000000  0.4358320000000 1.0
C      1  0.4719080000000  0.5067760000000  0.4377520000000 1.0
C      1  0.4910730000000  0.5287790000000  0.4302010000000 1.0
C      1  0.5199090000000  0.5216630000000  0.5641680000000 1.0
C      1  0.5280920000000  0.4932240000000  0.5622480000000 1.0
C      1  0.5089270000000  0.4712210000000  0.5697990000000 1.0
C      1  0.4800930000000  0.4783360000000  0.5641680000000 1.0
C      1  0.4719100000000  0.5067750000000  0.5622490000000 1.0
C      1  0.4910750000000  0.5287780000000  0.5697990000000 1.0
C      1  0.5619910000000  0.5238870000000  0.5157670000000 1.0
C      1  0.5490510000000  0.4555610000000  0.5157150000000 1.0
C      1  0.4930990000000  0.4349540000000  0.5156260000000 1.0
C      1  0.4380100000000  0.4761130000000  0.5157680000000 1.0
C      1  0.4509500000000  0.5444390000000  0.5157170000000 1.0
C      1  0.5069020000000  0.5650460000000  0.5156270000000 1.0
C      1  0.5619900000000  0.5238870000000  0.4842320000000 1.0
C      1  0.5490500000000  0.4555610000000  0.4842830000000 1.0
C      1  0.4930980000000  0.4349540000000  0.4843730000000 1.0
C      1  0.4380090000000  0.4761130000000  0.4842330000000 1.0
C      1  0.4509490000000  0.5444390000000  0.4842850000000 1.0
C      1  0.5069010000000  0.5650460000000  0.4843740000000 1.0
C      1  0.4584010000000  0.5377900000000  0.5984380000000 1.0
C      1  0.5118150000000  0.5551860000000  0.5983570000000 1.0
C      1  0.5537240000000  0.5172630000000  0.5976990000000 1.0
C      1  0.5416020000000  0.4622090000000  0.5984370000000 1.0
C      1  0.4881880000000  0.4448130000000  0.5983570000000 1.0
C      1  0.4462790000000  0.4827360000000  0.5977010000000 1.0
C      1  0.4583980000000  0.5377910000000  0.4015630000000 1.0
C      1  0.5118120000000  0.5551870000000  0.4016430000000 1.0
C      1  0.5537210000000  0.5172640000000  0.4022990000000 1.0
C      1  0.5415990000000  0.4622100000000  0.4015620000000 1.0
C      1  0.4881850000000  0.4448140000000  0.4016430000000 1.0
C      1  0.4462760000000  0.4827370000000  0.4023010000000 1.0
C      1  0.4550120000000  0.5550860000000  0.5756010000000 1.0
C      1  0.5220330000000  0.5654930000000  0.5732410000000 1.0
C      1  0.5691870000000  0.5127420000000  0.5736350000000 1.0
C      1  0.5449900000000  0.4449140000000  0.5755980000000 1.0
C      1  0.4779690000000  0.4345060000000  0.5732410000000 1.0
C      1  0.4308160000000  0.4872580000000  0.5736370000000 1.0
C      1  0.4550100000000  0.5550860000000  0.4244020000000 1.0
C      1  0.5220310000000  0.5654940000000  0.4267590000000 1.0
C      1  0.5691840000000  0.5127420000000  0.4263630000000 1.0
C      1  0.5449880000000  0.4449140000000  0.4243990000000 1.0
C      1  0.4779670000000  0.4345070000000  0.4267590000000 1.0
C      1  0.4308130000000  0.4872580000000  0.4263650000000 1.0
C      1  0.5709330000000  0.5814540000000  0.5552740000000 1.0
C      1  0.6050990000000  0.4771400000000  0.5551530000000 1.0
C      1  0.5341810000000  0.3953400000000  0.5550580000000 1.0
C      1  0.4290680000000  0.4185450000000  0.5552750000000 1.0
C      1  0.3949030000000  0.5228600000000  0.5551570000000 1.0
C      1  0.4658210000000  0.6046590000000  0.5550600000000 1.0
C      1  0.5709320000000  0.5814550000000  0.4447250000000 1.0
C      1  0.6050970000000  0.4771400000000  0.4448430000000 1.0
C      1  0.5341790000000  0.3953410000000  0.4449400000000 1.0
C      1  0.4290670000000  0.4185460000000  0.4447260000000 1.0
C      1  0.3949010000000  0.5228600000000  0.4448470000000 1.0
C      1  0.4658190000000  0.6046600000000  0.4449420000000 1.0
C      1  0.5204380000000  0.4473000000000  0.4711850000000 1.0
C      1  0.4637430000000  0.4541690000000  0.4727860000000 1.0
C      1  0.4421890000000  0.5078050000000  0.4742830000000 1.0
C      1  0.4795610000000  0.5527000000000  0.4711860000000 1.0
C      1  0.5362570000000  0.5458310000000  0.4727850000000 1.0
C      1  0.5578100000000  0.4921950000000  0.4742810000000 1.0
C      1  0.5204390000000  0.4473000000000  0.5288140000000 1.0
C      1  0.4637430000000  0.4541690000000  0.5272150000000 1.0
C      1  0.4421900000000  0.5078050000000  0.5257190000000 1.0
C      1  0.4795620000000  0.5527000000000  0.5288150000000 1.0
C      1  0.5362570000000  0.5458310000000  0.5272140000000 1.0
C      1  0.5578110000000  0.4921950000000  0.5257170000000 1.0
C      1  0.4140210000000  0.4387010000000  0.4854880000000 1.0
C      1  0.4065580000000  0.5449830000000  0.4855660000000 1.0
C      1  0.4903620000000  0.6063890000000  0.4855810000000 1.0
C      1  0.5859780000000  0.5612990000000  0.4854850000000 1.0
C      1  0.5934420000000  0.4550170000000  0.4855630000000 1.0
C      1  0.5096370000000  0.3936110000000  0.4855790000000 1.0
C      1  0.4140220000000  0.4387010000000  0.5145150000000 1.0
C      1  0.4065580000000  0.5449830000000  0.5144370000000 1.0
C      1  0.4903630000000  0.6063890000000  0.5144210000000 1.0
C      1  0.5859790000000  0.5612990000000  0.5145120000000 1.0
C      1  0.5934420000000  0.4550170000000  0.5144340000000 1.0
C      1  0.5096380000000  0.3936110000000  0.5144190000000 1.0
C      1  0.4290650000000  0.5615670000000  0.4720700000000 1.0
C      1  0.5143570000000  0.5922080000000  0.4724830000000 1.0
C      1  0.5887230000000  0.5331010000000  0.4722580000000 1.0
C      1  0.5709340000000  0.4384340000000  0.4720670000000 1.0
C      1  0.4856420000000  0.4077930000000  0.4724830000000 1.0
C      1  0.4112760000000  0.4668990000000  0.4722610000000 1.0
C      1  0.4290660000000  0.5615660000000  0.5279330000000 1.0
C      1  0.5143580000000  0.5922070000000  0.5275170000000 1.0
C      1  0.5887240000000  0.5331010000000  0.5277390000000 1.0
C      1  0.5709350000000  0.4384330000000  0.5279300000000 1.0
C      1  0.4856430000000  0.4077920000000  0.5275170000000 1.0
C      1  0.4112770000000  0.4668990000000  0.5277420000000 1.0
C      1  0.5115350000000  0.5891540000000  0.5585700000000 1.0
C      1  0.5831920000000  0.5345570000000  0.5588740000000 1.0
C      1  0.5699680000000  0.4438560000000  0.5592680000000 1.0
C      1  0.4884670000000  0.4108460000000  0.5585700000000 1.0
C      1  0.4168100000000  0.4654420000000  0.5588770000000 1.0
C      1  0.4300340000000  0.5561430000000  0.5592710000000 1.0
C      1  0.5115330000000  0.5891540000000  0.4414300000000 1.0
C      1  0.5831900000000  0.5345580000000  0.4411230000000 1.0
C      1  0.5699660000000  0.4438570000000  0.4407290000000 1.0
C      1  0.4884650000000  0.4108460000000  0.4414300000000 1.0
C      1  0.4168080000000  0.4654430000000  0.4411260000000 1.0
C      1  0.4300320000000  0.5561440000000  0.4407320000000 1.0
C      1  0.4800690000000  0.5576610000000  0.4396380000000 1.0
C      1  0.5377060000000  0.5460460000000  0.4419110000000 1.0
C      1  0.5582910000000  0.4904440000000  0.4429470000000 1.0
C      1  0.5199290000000  0.4423400000000  0.4396360000000 1.0
C      1  0.4622920000000  0.4539550000000  0.4419120000000 1.0
C      1  0.4417070000000  0.5095570000000  0.4429490000000 1.0
C      1  0.4800710000000  0.5576600000000  0.5603640000000 1.0
C      1  0.5377080000000  0.5460450000000  0.5580880000000 1.0
C      1  0.5582930000000  0.4904430000000  0.5570510000000 1.0
C      1  0.5199310000000  0.4423390000000  0.5603620000000 1.0
C      1  0.4622940000000  0.4539540000000  0.5580890000000 1.0
C      1  0.4417090000000  0.5095560000000  0.5570530000000 1.0
C      1  0.5658700000000  0.5786700000000  0.4721390000000 1.0
C      1  0.6004140000000  0.4806480000000  0.4722690000000 1.0
C      1  0.5362040000000  0.3970540000000  0.4726740000000 1.0
C      1  0.4341300000000  0.4213300000000  0.4721410000000 1.0
C      1  0.3995850000000  0.5193520000000  0.4722720000000 1.0
C      1  0.4637950000000  0.6029460000000  0.4726760000000 1.0
C      1  0.5658700000000  0.5786700000000  0.5278590000000 1.0
C      1  0.6004150000000  0.4806480000000  0.5277280000000 1.0
C      1  0.5362050000000  0.3970540000000  0.5273240000000 1.0
C      1  0.4341300000000  0.4213300000000  0.5278610000000 1.0
C      1  0.3995860000000  0.5193520000000  0.5277310000000 1.0
C      1  0.4637960000000  0.6029460000000  0.5273260000000 1.0
C      1  0.4410170000000  0.5878300000000  0.5147000000000 1.0
C      1  0.5433410000000  0.5935830000000  0.5147340000000 1.0
C      1  0.6037550000000  0.5076650000000  0.5147580000000 1.0
C      1  0.5589840000000  0.4121700000000  0.5146980000000 1.0
C      1  0.4566600000000  0.4064170000000  0.5147350000000 1.0
C      1  0.3962460000000  0.4923350000000  0.5147610000000 1.0
C      1  0.4410160000000  0.5878300000000  0.4853020000000 1.0
C      1  0.5433400000000  0.5935830000000  0.4852650000000 1.0
C      1  0.6037540000000  0.5076650000000  0.4852390000000 1.0
C      1  0.5589830000000  0.4121700000000  0.4853000000000 1.0
C      1  0.4566590000000  0.4064170000000  0.4852660000000 1.0
C      1  0.3962450000000  0.4923350000000  0.4852420000000 1.0
C      1  0.4895600000000  0.5252450000000  0.5260390000000 1.0
C      1  0.5175760000000  0.5223580000000  0.5197540000000 1.0
C      1  0.5282310000000  0.4947580000000  0.5149580000000 1.0
C      1  0.5104410000000  0.4747550000000  0.5260380000000 1.0
C      1  0.4824250000000  0.4776420000000  0.5197540000000 1.0
C      1  0.4717690000000  0.5052420000000  0.5149590000000 1.0
C      1  0.4895590000000  0.5252450000000  0.4739620000000 1.0
C      1  0.5175750000000  0.5223580000000  0.4802460000000 1.0
C      1  0.5282310000000  0.4947580000000  0.4850410000000 1.0
C      1  0.5104400000000  0.4747550000000  0.4739610000000 1.0
C      1  0.4824240000000  0.4776420000000  0.4802460000000 1.0
C      1  0.4717690000000  0.5052420000000  0.4850420000000 1.0
END
