TITL C-3578194-7807-96 8.98466527893878e-07 125000 -887.517842004299 0 0 142 (C1) n - 1
REM
REM in /home/bkarasulu/work/CARBON/AIRSS/Generating-Clusters/EDIP-Nigel-Params/with-SteepDescent/Higher-Symm/SD-CG/HFTN-CG
REM
REM
REM
REM
REM
REM ./C.cell (12c818d87b63d06a65506943cc24bca4)
REM
REM compiler GCC version 9.2.1 20190827 (Red Hat 9.2.1-1)
REM options -cpp -mtune=generic -march=x86-64 -g -O0 -fpre-include=/usr/include/finclude/math-vector-fortran.h
REM seed 1883004035 -1740556884 -1151013680 1922057778 -1235889948 1996448397 -1406031616 872946408 -348557155 1857862157 482653635 1219373001 982893841 2113739385 -1870328153 383833233 -234420000 452951361 173592571 655351912 1864949722 -1186243445 1362684426 -1161640391 -2070000208 639972162 -999279339 636889669 1461431251 -1142697738 542963885 1314285879 1216929769
REM
CELL 1.54180   50.00000   50.00000   50.00000   90.00000   90.00000   90.00000
LATT -1
SFAC C  
C      1  0.5342640000000  0.5843530000000  0.4872060000000 1.0
C      1  0.5556490000000  0.4324360000000  0.4849200000000 1.0
C      1  0.4027790000000  0.4852960000000  0.4841260000000 1.0
C      1  0.5503010000000  0.4615080000000  0.4432030000000 1.0
C      1  0.4388130000000  0.4759260000000  0.4468580000000 1.0
C      1  0.5110770000000  0.5607380000000  0.4477000000000 1.0
C      1  0.4536480000000  0.4499920000000  0.4069980000000 1.0
C      1  0.4816650000000  0.5662600000000  0.4080260000000 1.0
C      1  0.5617090000000  0.4775390000000  0.3974480000000 1.0
C      1  0.4630850000000  0.5769460000000  0.4651880000000 1.0
C      1  0.5936790000000  0.4958230000000  0.4633530000000 1.0
C      1  0.4471830000000  0.4257180000000  0.4649510000000 1.0
C      1  0.5277850000000  0.5627050000000  0.5829360000000 1.0
C      1  0.5392070000000  0.4467740000000  0.5794460000000 1.0
C      1  0.4332630000000  0.4960930000000  0.5785350000000 1.0
C      1  0.4566780000000  0.4985560000000  0.4051220000000 1.0
C      1  0.5260040000000  0.5464120000000  0.4029260000000 1.0
C      1  0.5170980000000  0.4604920000000  0.4074880000000 1.0
C      1  0.4740580000000  0.5560300000000  0.5407950000000 1.0
C      1  0.5624990000000  0.5030220000000  0.5440440000000 1.0
C      1  0.4607670000000  0.4462920000000  0.5403390000000 1.0
C      1  0.4849770000000  0.5551280000000  0.4336060000000 1.0
C      1  0.5592950000000  0.4850820000000  0.4243730000000 1.0
C      1  0.4571300000000  0.4554920000000  0.4343340000000 1.0
C      1  0.4475620000000  0.5134330000000  0.4778050000000 1.0
C      1  0.5391560000000  0.5309490000000  0.4710840000000 1.0
C      1  0.5157700000000  0.4501340000000  0.4788040000000 1.0
C      1  0.5440690000000  0.5264480000000  0.5198180000000 1.0
C      1  0.5142900000000  0.4450460000000  0.5363790000000 1.0
C      1  0.4441440000000  0.5086340000000  0.5297520000000 1.0
C      1  0.4295580000000  0.5730160000000  0.5069390000000 1.0
C      1  0.6048870000000  0.5292800000000  0.5097020000000 1.0
C      1  0.4687330000000  0.4012410000000  0.5053130000000 1.0
C      1  0.4003640000000  0.5074500000000  0.5314360000000 1.0
C      1  0.5509460000000  0.5715190000000  0.5337490000000 1.0
C      1  0.5492040000000  0.4182620000000  0.5349060000000 1.0
C      1  0.4835210000000  0.4981140000000  0.5573400000000 1.0
C      1  0.5086680000000  0.5213840000000  0.5598710000000 1.0
C      1  0.5100210000000  0.4823570000000  0.5596790000000 1.0
C      1  0.4546360000000  0.4732280000000  0.3937050000000 1.0
C      1  0.5042070000000  0.5615580000000  0.3941870000000 1.0
C      1  0.5371610000000  0.4689130000000  0.3898980000000 1.0
C      1  0.4237290000000  0.5580100000000  0.4830510000000 1.0
C      1  0.5920640000000  0.5390090000000  0.4855190000000 1.0
C      1  0.4854830000000  0.4062680000000  0.4825900000000 1.0
C      1  0.4849080000000  0.4638410000000  0.4433750000000 1.0
C      1  0.4784930000000  0.5254240000000  0.4370090000000 1.0
C      1  0.5390180000000  0.5083330000000  0.4273870000000 1.0
C      1  0.4140760000000  0.4556190000000  0.5272870000000 1.0
C      1  0.5040410000000  0.5921590000000  0.5281670000000 1.0
C      1  0.5750690000000  0.4584770000000  0.5256740000000 1.0
C      1  0.5596390000000  0.5777020000000  0.4760160000000 1.0
C      1  0.5372520000000  0.4123060000000  0.4754930000000 1.0
C      1  0.4004670000000  0.5122790000000  0.4741960000000 1.0
C      1  0.5307810000000  0.5856970000000  0.5167250000000 1.0
C      1  0.5640450000000  0.4335250000000  0.5141520000000 1.0
C      1  0.4026340000000  0.4813900000000  0.5142180000000 1.0
C      1  0.5497880000000  0.5328180000000  0.4425840000000 1.0
C      1  0.5038330000000  0.4405070000000  0.4484280000000 1.0
C      1  0.4488200000000  0.5230430000000  0.4461680000000 1.0
C      1  0.5197750000000  0.4793160000000  0.5890160000000 1.0
C      1  0.4711360000000  0.4939750000000  0.5858110000000 1.0
C      1  0.5083150000000  0.5294510000000  0.5896690000000 1.0
C      1  0.3997420000000  0.5355140000000  0.5156700000000 1.0
C      1  0.5774650000000  0.5683640000000  0.5210240000000 1.0
C      1  0.5155850000000  0.3986670000000  0.5142280000000 1.0
C      1  0.5777650000000  0.4777860000000  0.4796110000000 1.0
C      1  0.4326300000000  0.4447170000000  0.4820730000000 1.0
C      1  0.4860810000000  0.5779880000000  0.4831480000000 1.0
C      1  0.4236570000000  0.4330700000000  0.5080430000000 1.0
C      1  0.4805130000000  0.5931850000000  0.5085110000000 1.0
C      1  0.5898490000000  0.4761900000000  0.5071720000000 1.0
C      1  0.5261960000000  0.4726310000000  0.5359050000000 1.0
C      1  0.4698050000000  0.4947090000000  0.5296730000000 1.0
C      1  0.5199920000000  0.5400250000000  0.5360400000000 1.0
C      1  0.4274180000000  0.5136620000000  0.5552530000000 1.0
C      1  0.5483980000000  0.5618300000000  0.5623780000000 1.0
C      1  0.5297690000000  0.4284010000000  0.5579840000000 1.0
C      1  0.5659470000000  0.5393670000000  0.5720400000000 1.0
C      1  0.4951300000000  0.4246690000000  0.5649930000000 1.0
C      1  0.4381600000000  0.5397680000000  0.5664060000000 1.0
C      1  0.4880050000000  0.5104110000000  0.5138910000000 1.0
C      1  0.5081540000000  0.4942030000000  0.5024620000000 1.0
C      1  0.4985540000000  0.4663030000000  0.5010110000000 1.0
C      1  0.4502500000000  0.4657790000000  0.4931790000000 1.0
C      1  0.4950140000000  0.5505310000000  0.4909510000000 1.0
C      1  0.5505120000000  0.4900520000000  0.4829640000000 1.0
C      1  0.5013220000000  0.5714900000000  0.5777830000000 1.0
C      1  0.5586540000000  0.4664810000000  0.5734310000000 1.0
C      1  0.4370670000000  0.4681250000000  0.5750300000000 1.0
C      1  0.4362720000000  0.4608020000000  0.5468310000000 1.0
C      1  0.4996890000000  0.5704530000000  0.5481630000000 1.0
C      1  0.5561320000000  0.4735290000000  0.5444570000000 1.0
C      1  0.5515730000000  0.5443300000000  0.4942270000000 1.0
C      1  0.5207150000000  0.4301250000000  0.5115370000000 1.0
C      1  0.4299930000000  0.5137290000000  0.5037990000000 1.0
C      1  0.4148120000000  0.4642900000000  0.4660430000000 1.0
C      1  0.5112890000000  0.5852300000000  0.4681150000000 1.0
C      1  0.5696700000000  0.4508140000000  0.4658770000000 1.0
C      1  0.5827080000000  0.5680700000000  0.4912040000000 1.0
C      1  0.5142010000000  0.3968980000000  0.4837470000000 1.0
C      1  0.4001500000000  0.5389080000000  0.4850950000000 1.0
C      1  0.4442750000000  0.4123530000000  0.5185820000000 1.0
C      1  0.4526860000000  0.5873510000000  0.5193370000000 1.0
C      1  0.6000400000000  0.5017840000000  0.5201890000000 1.0
C      1  0.5784290000000  0.5344530000000  0.4406220000000 1.0
C      1  0.4889380000000  0.4171870000000  0.4389420000000 1.0
C      1  0.4350660000000  0.5475180000000  0.4390780000000 1.0
C      1  0.4880260000000  0.3926800000000  0.5251910000000 1.0
C      1  0.4140630000000  0.5598150000000  0.5272100000000 1.0
C      1  0.5975340000000  0.5489710000000  0.5311130000000 1.0
C      1  0.4653120000000  0.4636640000000  0.5849740000000 1.0
C      1  0.4845730000000  0.5482450000000  0.5871120000000 1.0
C      1  0.5488180000000  0.4909620000000  0.5882360000000 1.0
C      1  0.5213320000000  0.5177880000000  0.4044330000000 1.0
C      1  0.5005370000000  0.4808290000000  0.4236110000000 1.0
C      1  0.4854700000000  0.5075710000000  0.4119830000000 1.0
C      1  0.5279460000000  0.4443770000000  0.4298750000000 1.0
C      1  0.4387200000000  0.5008820000000  0.4290880000000 1.0
C      1  0.5353220000000  0.5556770000000  0.4295900000000 1.0
C      1  0.4380010000000  0.5655790000000  0.4597430000000 1.0
C      1  0.5941140000000  0.5237190000000  0.4606750000000 1.0
C      1  0.4712550000000  0.4120370000000  0.4594330000000 1.0
C      1  0.5106400000000  0.5379100000000  0.4688670000000 1.0
C      1  0.5324720000000  0.4753520000000  0.4642210000000 1.0
C      1  0.4547420000000  0.4851350000000  0.4721390000000 1.0
C      1  0.5921490000000  0.5052610000000  0.5481000000000 1.0
C      1  0.4504080000000  0.4105710000000  0.5470090000000 1.0
C      1  0.4495200000000  0.5841340000000  0.5478640000000 1.0
C      1  0.4698890000000  0.4655650000000  0.5159530000000 1.0
C      1  0.4933500000000  0.5387200000000  0.5180140000000 1.0
C      1  0.5368270000000  0.4981950000000  0.5084730000000 1.0
C      1  0.4797430000000  0.4505970000000  0.5627600000000 1.0
C      1  0.4680460000000  0.5389960000000  0.5643440000000 1.0
C      1  0.5501230000000  0.5136010000000  0.5690330000000 1.0
C      1  0.4964070000000  0.5130000000000  0.4584980000000 1.0
C      1  0.5182980000000  0.4953010000000  0.4444840000000 1.0
C      1  0.4833640000000  0.4819210000000  0.4683920000000 1.0
C      1  0.4786340000000  0.4028560000000  0.5518400000000 1.0
C      1  0.4280410000000  0.5645200000000  0.5530680000000 1.0
C      1  0.5922140000000  0.5341160000000  0.5564830000000 1.0
C      1  0.4991590000000  0.5008930000000  0.6005630000000 1.0
END
