TITL C-3578208-4450-755 1.42927774847976e-06 125000 -1115.63857156544 0 0 176 (C1) n - 1
REM
REM in /home/bkarasulu/work/CARBON/AIRSS/Generating-Clusters/EDIP-Nigel-Params/with-SteepDescent/Higher-Symm/SD-CG/HFTN-CG
REM
REM
REM
REM
REM
REM ./C.cell (12c818d87b63d06a65506943cc24bca4)
REM
REM compiler GCC version 9.2.1 20190827 (Red Hat 9.2.1-1)
REM options -cpp -mtune=generic -march=x86-64 -g -O0 -fpre-include=/usr/include/finclude/math-vector-fortran.h
REM seed -958593399 401934019 -1324612637 -1899842194 -1786108014 1722381054 -546335491 -777222826 739133435 -1230227287 120516855 1391743516 -1795563694 -733547648 -1755092995 -2063309326 -1439572131 258769697 2094431890 1490447930 -682295335 -1387606887 -1396704101 2003009563 -856275110 -351153533 -440244345 316102361 -1220323254 -660519590 1880549024 1348092171 1037378349
REM
CELL 1.54180   50.00000   50.00000   50.00000   90.00000   90.00000   90.00000
LATT -1
SFAC C  
C      1  0.4568620000000  0.5393560000000  0.4241570000000 1.0
C      1  0.5376400000000  0.4601110000000  0.5752370000000 1.0
C      1  0.6269290000000  0.5259360000000  0.5136830000000 1.0
C      1  0.3755770000000  0.4705610000000  0.4816800000000 1.0
C      1  0.4766810000000  0.4073020000000  0.5638800000000 1.0
C      1  0.5252770000000  0.5866880000000  0.4328340000000 1.0
C      1  0.5317750000000  0.3939860000000  0.4694620000000 1.0
C      1  0.4709640000000  0.6059340000000  0.5284640000000 1.0
C      1  0.5409430000000  0.4530430000000  0.4083260000000 1.0
C      1  0.4601150000000  0.5518730000000  0.5896970000000 1.0
C      1  0.5599840000000  0.5166970000000  0.5377670000000 1.0
C      1  0.4407530000000  0.4819310000000  0.4635790000000 1.0
C      1  0.3980580000000  0.5092840000000  0.4597770000000 1.0
C      1  0.6035610000000  0.4900300000000  0.5386180000000 1.0
C      1  0.5048780000000  0.4468200000000  0.5348780000000 1.0
C      1  0.4892470000000  0.5535890000000  0.4619750000000 1.0
C      1  0.4311000000000  0.5912610000000  0.4675800000000 1.0
C      1  0.5681300000000  0.4090480000000  0.5323520000000 1.0
C      1  0.5794310000000  0.5687460000000  0.5619760000000 1.0
C      1  0.4251650000000  0.4310370000000  0.4364670000000 1.0
C      1  0.5002600000000  0.5035790000000  0.5234600000000 1.0
C      1  0.4932470000000  0.5024750000000  0.4800160000000 1.0
C      1  0.6006770000000  0.5537730000000  0.5181110000000 1.0
C      1  0.4021020000000  0.4424310000000  0.4798990000000 1.0
C      1  0.5634370000000  0.5729350000000  0.4595490000000 1.0
C      1  0.4369560000000  0.4176350000000  0.5371940000000 1.0
C      1  0.5511550000000  0.5948270000000  0.5014410000000 1.0
C      1  0.4505900000000  0.4003030000000  0.4942610000000 1.0
C      1  0.5354930000000  0.5671320000000  0.5842020000000 1.0
C      1  0.4695960000000  0.4352660000000  0.4156830000000 1.0
C      1  0.5560360000000  0.5514550000000  0.5694630000000 1.0
C      1  0.4478580000000  0.4495480000000  0.4298880000000 1.0
C      1  0.5322060000000  0.4991490000000  0.3997870000000 1.0
C      1  0.4720390000000  0.5064020000000  0.6063790000000 1.0
C      1  0.4703710000000  0.5260090000000  0.5480320000000 1.0
C      1  0.5319040000000  0.5026430000000  0.4500710000000 1.0
C      1  0.4281620000000  0.4385190000000  0.4941370000000 1.0
C      1  0.5743000000000  0.5568120000000  0.5043930000000 1.0
C      1  0.5542490000000  0.4824710000000  0.5816500000000 1.0
C      1  0.4421070000000  0.5161300000000  0.4193200000000 1.0
C      1  0.5274300000000  0.5315700000000  0.4396120000000 1.0
C      1  0.4627050000000  0.4722940000000  0.5727050000000 1.0
C      1  0.6178130000000  0.4988030000000  0.5147160000000 1.0
C      1  0.3860580000000  0.4971610000000  0.4830170000000 1.0
C      1  0.5486940000000  0.4693550000000  0.5220810000000 1.0
C      1  0.4492910000000  0.5289050000000  0.4808280000000 1.0
C      1  0.4890230000000  0.5779690000000  0.4064150000000 1.0
C      1  0.5111720000000  0.4216440000000  0.5898220000000 1.0
C      1  0.5762830000000  0.5246880000000  0.4651200000000 1.0
C      1  0.4204400000000  0.4686520000000  0.5359500000000 1.0
C      1  0.5029300000000  0.3866180000000  0.4717900000000 1.0
C      1  0.4992690000000  0.6140790000000  0.5234140000000 1.0
C      1  0.4231200000000  0.5165990000000  0.5711450000000 1.0
C      1  0.5744110000000  0.4852490000000  0.4297540000000 1.0
C      1  0.4282620000000  0.5622260000000  0.5503670000000 1.0
C      1  0.5601180000000  0.4403450000000  0.4510620000000 1.0
C      1  0.5082520000000  0.5302900000000  0.5123460000000 1.0
C      1  0.4877240000000  0.4747020000000  0.4927880000000 1.0
C      1  0.6049980000000  0.5179070000000  0.4731830000000 1.0
C      1  0.3922360000000  0.4749410000000  0.5249560000000 1.0
C      1  0.4496810000000  0.5795190000000  0.4504270000000 1.0
C      1  0.5480350000000  0.4211700000000  0.5474330000000 1.0
C      1  0.5226610000000  0.4565200000000  0.5131150000000 1.0
C      1  0.4757910000000  0.5425920000000  0.4859120000000 1.0
C      1  0.6195470000000  0.5374660000000  0.4887340000000 1.0
C      1  0.3787710000000  0.4572980000000  0.5065530000000 1.0
C      1  0.4646030000000  0.4789220000000  0.5424230000000 1.0
C      1  0.5201340000000  0.5506230000000  0.4638800000000 1.0
C      1  0.4690200000000  0.4093870000000  0.4346840000000 1.0
C      1  0.5364670000000  0.5929840000000  0.5663420000000 1.0
C      1  0.5044220000000  0.5059390000000  0.4048860000000 1.0
C      1  0.4980930000000  0.4961210000000  0.5988720000000 1.0
C      1  0.4905770000000  0.4401490000000  0.5963990000000 1.0
C      1  0.5087320000000  0.5578500000000  0.4031670000000 1.0
C      1  0.5727280000000  0.5798720000000  0.4874240000000 1.0
C      1  0.4283620000000  0.4136670000000  0.5089100000000 1.0
C      1  0.4913160000000  0.4682620000000  0.5832520000000 1.0
C      1  0.5047510000000  0.5323600000000  0.4194700000000 1.0
C      1  0.5196770000000  0.3992950000000  0.5163520000000 1.0
C      1  0.4801300000000  0.5984490000000  0.4816030000000 1.0
C      1  0.5640160000000  0.5916590000000  0.5492580000000 1.0
C      1  0.4405860000000  0.4090290000000  0.4493860000000 1.0
C      1  0.4204980000000  0.5162930000000  0.5216130000000 1.0
C      1  0.5610700000000  0.4770370000000  0.4752650000000 1.0
C      1  0.4737840000000  0.4589620000000  0.5208150000000 1.0
C      1  0.5294860000000  0.5330840000000  0.4880420000000 1.0
C      1  0.4593320000000  0.4600600000000  0.4558040000000 1.0
C      1  0.5446910000000  0.5420450000000  0.5431690000000 1.0
C      1  0.5152360000000  0.4948010000000  0.5474180000000 1.0
C      1  0.4802340000000  0.5075070000000  0.4536220000000 1.0
C      1  0.5057370000000  0.4069080000000  0.5660850000000 1.0
C      1  0.4958210000000  0.5900730000000  0.4309000000000 1.0
C      1  0.5681390000000  0.5269780000000  0.5822290000000 1.0
C      1  0.4339070000000  0.4726730000000  0.4171230000000 1.0
C      1  0.4604790000000  0.5950850000000  0.5033880000000 1.0
C      1  0.5405800000000  0.4025640000000  0.4957400000000 1.0
C      1  0.4879840000000  0.4607140000000  0.4657990000000 1.0
C      1  0.5156660000000  0.5438120000000  0.5377280000000 1.0
C      1  0.5100550000000  0.6048610000000  0.5572920000000 1.0
C      1  0.4962560000000  0.3990930000000  0.4434610000000 1.0
C      1  0.4056040000000  0.4494330000000  0.4510360000000 1.0
C      1  0.5972510000000  0.5480360000000  0.5474860000000 1.0
C      1  0.4508160000000  0.5089720000000  0.4560700000000 1.0
C      1  0.5451170000000  0.4910650000000  0.5452980000000 1.0
C      1  0.4971140000000  0.5333240000000  0.5598430000000 1.0
C      1  0.5159740000000  0.4693510000000  0.4478870000000 1.0
C      1  0.4180870000000  0.5641230000000  0.5002660000000 1.0
C      1  0.5818300000000  0.4339930000000  0.4980850000000 1.0
C      1  0.4539610000000  0.4921950000000  0.4090950000000 1.0
C      1  0.5469720000000  0.5086100000000  0.5900980000000 1.0
C      1  0.6076660000000  0.4938780000000  0.4885050000000 1.0
C      1  0.3954460000000  0.5013400000000  0.5108720000000 1.0
C      1  0.4964360000000  0.4321320000000  0.4729500000000 1.0
C      1  0.5061670000000  0.5711060000000  0.5293450000000 1.0
C      1  0.4707480000000  0.5043000000000  0.5287890000000 1.0
C      1  0.5223160000000  0.5063000000000  0.4776880000000 1.0
C      1  0.5152280000000  0.4220470000000  0.4486340000000 1.0
C      1  0.4893190000000  0.5834230000000  0.5530650000000 1.0
C      1  0.4715140000000  0.3946820000000  0.5134150000000 1.0
C      1  0.5290190000000  0.5973650000000  0.4830590000000 1.0
C      1  0.5858470000000  0.5195720000000  0.5550440000000 1.0
C      1  0.4156840000000  0.4783370000000  0.4451950000000 1.0
C      1  0.4450670000000  0.5094870000000  0.5050660000000 1.0
C      1  0.5548660000000  0.4876140000000  0.5010870000000 1.0
C      1  0.5125020000000  0.5498800000000  0.5932420000000 1.0
C      1  0.4910850000000  0.4551330000000  0.4100900000000 1.0
C      1  0.4965420000000  0.3973460000000  0.4994640000000 1.0
C      1  0.5040920000000  0.6010420000000  0.4970080000000 1.0
C      1  0.4518150000000  0.4913070000000  0.5932580000000 1.0
C      1  0.5549360000000  0.5171170000000  0.4056180000000 1.0
C      1  0.4471530000000  0.4470760000000  0.5752490000000 1.0
C      1  0.5508050000000  0.5419070000000  0.4239300000000 1.0
C      1  0.4257570000000  0.5012010000000  0.5943700000000 1.0
C      1  0.5786390000000  0.5024510000000  0.4076340000000 1.0
C      1  0.5662670000000  0.5117790000000  0.5097690000000 1.0
C      1  0.4377470000000  0.4839620000000  0.4928840000000 1.0
C      1  0.4791590000000  0.5819890000000  0.4559010000000 1.0
C      1  0.5190100000000  0.4173630000000  0.5410780000000 1.0
C      1  0.5569770000000  0.4412450000000  0.5653300000000 1.0
C      1  0.4389950000000  0.5596460000000  0.4330460000000 1.0
C      1  0.4661580000000  0.5334580000000  0.6099370000000 1.0
C      1  0.5381930000000  0.4738150000000  0.3896810000000 1.0
C      1  0.4833740000000  0.4846270000000  0.4095630000000 1.0
C      1  0.5185740000000  0.5178950000000  0.5925560000000 1.0
C      1  0.5384020000000  0.4568660000000  0.4659250000000 1.0
C      1  0.4594930000000  0.5484320000000  0.5331540000000 1.0
C      1  0.4391940000000  0.4612490000000  0.5108760000000 1.0
C      1  0.5616830000000  0.5330220000000  0.4913110000000 1.0
C      1  0.5718780000000  0.5476950000000  0.4456240000000 1.0
C      1  0.4278980000000  0.4419990000000  0.5528130000000 1.0
C      1  0.4665490000000  0.4263710000000  0.5847170000000 1.0
C      1  0.5355740000000  0.5670320000000  0.4120020000000 1.0
C      1  0.4824030000000  0.5346770000000  0.4388780000000 1.0
C      1  0.5112230000000  0.4664410000000  0.5598720000000 1.0
C      1  0.4371380000000  0.5438640000000  0.5711250000000 1.0
C      1  0.5650850000000  0.4557330000000  0.4255040000000 1.0
C      1  0.4646160000000  0.4093290000000  0.5377930000000 1.0
C      1  0.5340550000000  0.5780190000000  0.4599740000000 1.0
C      1  0.4798310000000  0.5570820000000  0.5122310000000 1.0
C      1  0.5231830000000  0.4421430000000  0.4874750000000 1.0
C      1  0.4120580000000  0.5509320000000  0.4362730000000 1.0
C      1  0.5839950000000  0.4508900000000  0.5644710000000 1.0
C      1  0.5684680000000  0.4079510000000  0.5041300000000 1.0
C      1  0.4319220000000  0.5903500000000  0.4959370000000 1.0
C      1  0.4269250000000  0.5507350000000  0.4745900000000 1.0
C      1  0.5731110000000  0.4492420000000  0.5249200000000 1.0
C      1  0.5962020000000  0.4619030000000  0.5410280000000 1.0
C      1  0.4032280000000  0.5377390000000  0.4597650000000 1.0
C      1  0.5427900000000  0.5837280000000  0.5286080000000 1.0
C      1  0.4602240000000  0.4187630000000  0.4713960000000 1.0
C      1  0.5814450000000  0.4441140000000  0.4707170000000 1.0
C      1  0.4211490000000  0.5481150000000  0.5251430000000 1.0
C      1  0.5621550000000  0.4981940000000  0.4540890000000 1.0
C      1  0.4261220000000  0.5004180000000  0.5464470000000 1.0
C      1  0.5162660000000  0.4483670000000  0.4251180000000 1.0
C      1  0.4868070000000  0.5592730000000  0.5762330000000 1.0
END
