TITL C-3577078-809-323 -1.90522745466061e-06 125000 -939.818974915392 0 0 149 (C1) n - 1
REM
REM in /home/bkarasulu/work/CARBON/AIRSS/Generating-Clusters/EDIP-Nigel-Params/with-SteepDescent/Higher-Symm/SD-CG/HFTN-CG
REM
REM
REM
REM
REM
REM ./C.cell (12c818d87b63d06a65506943cc24bca4)
REM
REM compiler GCC version 9.2.1 20190827 (Red Hat 9.2.1-1)
REM options -cpp -mtune=generic -march=x86-64 -g -O0 -fpre-include=/usr/include/finclude/math-vector-fortran.h
REM seed 580984929 -1043372004 956603780 -1382417568 -510401514 -148917473 -326132321 -1262406490 275278095 132756753 1156462036 -893433007 -1199786250 -341673299 1552550015 -847344705 -365842165 1889648324 212573378 1107850644 -1212739296 1526745962 -1930165320 213494500 1593898961 822102457 1976208622 -1334922280 -1853244984 1145079163 -1690576226 720258975 51307083
REM
CELL 1.54180   50.00000   50.00000   50.00000   90.00000   90.00000   90.00000
LATT -1
SFAC C  
C      1  0.4134930000000  0.4685170000000  0.5312080000000 1.0
C      1  0.4434090000000  0.4725500000000  0.4281020000000 1.0
C      1  0.5521360000000  0.4678330000000  0.4246150000000 1.0
C      1  0.5875790000000  0.4710820000000  0.5262610000000 1.0
C      1  0.5023780000000  0.4721580000000  0.5937890000000 1.0
C      1  0.5382630000000  0.5350820000000  0.5553850000000 1.0
C      1  0.4570150000000  0.5344110000000  0.5528360000000 1.0
C      1  0.4400040000000  0.5293960000000  0.4769480000000 1.0
C      1  0.5097290000000  0.5332800000000  0.4371650000000 1.0
C      1  0.5688600000000  0.5295980000000  0.4834740000000 1.0
C      1  0.4951130000000  0.5788720000000  0.4588920000000 1.0
C      1  0.5389850000000  0.5810760000000  0.4828170000000 1.0
C      1  0.5350330000000  0.5939990000000  0.5312800000000 1.0
C      1  0.4862600000000  0.5782830000000  0.5320280000000 1.0
C      1  0.4543030000000  0.5714170000000  0.4822140000000 1.0
C      1  0.4712090000000  0.5065690000000  0.4553980000000 1.0
C      1  0.5318900000000  0.5046150000000  0.4623990000000 1.0
C      1  0.5391730000000  0.5079520000000  0.5146100000000 1.0
C      1  0.4987740000000  0.5071770000000  0.5409670000000 1.0
C      1  0.4486140000000  0.5080940000000  0.5151110000000 1.0
C      1  0.5777850000000  0.5827330000000  0.5034430000000 1.0
C      1  0.5214780000000  0.5614660000000  0.5604200000000 1.0
C      1  0.4454880000000  0.5604180000000  0.5349690000000 1.0
C      1  0.4221150000000  0.5521940000000  0.4505180000000 1.0
C      1  0.5305210000000  0.5696000000000  0.4346140000000 1.0
C      1  0.5167390000000  0.4597190000000  0.5194690000000 1.0
C      1  0.4830540000000  0.4642410000000  0.5250220000000 1.0
C      1  0.4730510000000  0.4703890000000  0.4977120000000 1.0
C      1  0.4945950000000  0.4661800000000  0.4763750000000 1.0
C      1  0.5216350000000  0.4672290000000  0.4896530000000 1.0
C      1  0.5458560000000  0.5369730000000  0.5253690000000 1.0
C      1  0.4877990000000  0.5323950000000  0.5517960000000 1.0
C      1  0.4625820000000  0.5312690000000  0.5009630000000 1.0
C      1  0.4863780000000  0.5321410000000  0.4620370000000 1.0
C      1  0.5439240000000  0.5313910000000  0.4643910000000 1.0
C      1  0.4202550000000  0.4668330000000  0.5023620000000 1.0
C      1  0.4734610000000  0.4693930000000  0.4245820000000 1.0
C      1  0.5637360000000  0.4662000000000  0.4525350000000 1.0
C      1  0.5653940000000  0.4706140000000  0.5467260000000 1.0
C      1  0.4779420000000  0.4703480000000  0.5764750000000 1.0
C      1  0.4995350000000  0.5303340000000  0.5831690000000 1.0
C      1  0.3985780000000  0.5401080000000  0.5363060000000 1.0
C      1  0.4420720000000  0.5485500000000  0.4289730000000 1.0
C      1  0.5511350000000  0.5345740000000  0.4338300000000 1.0
C      1  0.5756020000000  0.5417250000000  0.5195140000000 1.0
C      1  0.5453690000000  0.4821390000000  0.4751840000000 1.0
C      1  0.5377100000000  0.4831270000000  0.5360950000000 1.0
C      1  0.4773510000000  0.4860400000000  0.5472240000000 1.0
C      1  0.4467650000000  0.4850810000000  0.4957030000000 1.0
C      1  0.4891090000000  0.4841940000000  0.4483580000000 1.0
C      1  0.5225990000000  0.5644720000000  0.4650050000000 1.0
C      1  0.5472210000000  0.5740680000000  0.5123830000000 1.0
C      1  0.5021850000000  0.5553510000000  0.5385100000000 1.0
C      1  0.4615930000000  0.5601170000000  0.5090430000000 1.0
C      1  0.4714730000000  0.5610750000000  0.4591520000000 1.0
C      1  0.5033640000000  0.5839600000000  0.4297660000000 1.0
C      1  0.5681660000000  0.5839070000000  0.4749010000000 1.0
C      1  0.5418420000000  0.5837590000000  0.5580610000000 1.0
C      1  0.4668830000000  0.5815920000000  0.5556130000000 1.0
C      1  0.4261300000000  0.5714760000000  0.4746610000000 1.0
C      1  0.4559470000000  0.4013990000000  0.4844360000000 1.0
C      1  0.4959250000000  0.3998810000000  0.4487970000000 1.0
C      1  0.5450560000000  0.4052140000000  0.4852550000000 1.0
C      1  0.5301010000000  0.4071820000000  0.5402910000000 1.0
C      1  0.4735870000000  0.4034910000000  0.5411320000000 1.0
C      1  0.5238690000000  0.4629530000000  0.4192340000000 1.0
C      1  0.5855740000000  0.4621860000000  0.4986140000000 1.0
C      1  0.5280930000000  0.4672730000000  0.5815800000000 1.0
C      1  0.4331220000000  0.4610570000000  0.5504660000000 1.0
C      1  0.4289820000000  0.4627000000000  0.4514750000000 1.0
C      1  0.5595340000000  0.4418500000000  0.5546690000000 1.0
C      1  0.4709720000000  0.4417390000000  0.5692320000000 1.0
C      1  0.4231290000000  0.4376850000000  0.4927800000000 1.0
C      1  0.4824230000000  0.4399050000000  0.4224010000000 1.0
C      1  0.5680770000000  0.4372910000000  0.4611820000000 1.0
C      1  0.5128140000000  0.4816040000000  0.3995400000000 1.0
C      1  0.6005150000000  0.4789700000000  0.4811360000000 1.0
C      1  0.5480380000000  0.4863210000000  0.5903680000000 1.0
C      1  0.4312480000000  0.4779020000000  0.5740190000000 1.0
C      1  0.4068530000000  0.4803390000000  0.4582560000000 1.0
C      1  0.5244710000000  0.5049400000000  0.5583810000000 1.0
C      1  0.4497010000000  0.5048790000000  0.5447670000000 1.0
C      1  0.4441320000000  0.5010040000000  0.4673520000000 1.0
C      1  0.5151580000000  0.5016160000000  0.4383740000000 1.0
C      1  0.5639320000000  0.5000340000000  0.4945140000000 1.0
C      1  0.5562200000000  0.4934870000000  0.4105980000000 1.0
C      1  0.5983570000000  0.4977050000000  0.5222250000000 1.0
C      1  0.5050330000000  0.4967270000000  0.6102170000000 1.0
C      1  0.4024020000000  0.4929620000000  0.5428140000000 1.0
C      1  0.4324610000000  0.4998600000000  0.4248160000000 1.0
C      1  0.4077040000000  0.5331320000000  0.4816770000000 1.0
C      1  0.4960500000000  0.5391330000000  0.4103790000000 1.0
C      1  0.5923270000000  0.5319970000000  0.4644380000000 1.0
C      1  0.5624060000000  0.5397310000000  0.5727630000000 1.0
C      1  0.4552080000000  0.5415400000000  0.5817860000000 1.0
C      1  0.5182160000000  0.4206140000000  0.4457590000000 1.0
C      1  0.5598930000000  0.4215820000000  0.5045560000000 1.0
C      1  0.5177550000000  0.4201670000000  0.5635990000000 1.0
C      1  0.4451770000000  0.4153770000000  0.5355680000000 1.0
C      1  0.4492270000000  0.4151820000000  0.4585570000000 1.0
C      1  0.4557410000000  0.4437820000000  0.5439780000000 1.0
C      1  0.4312660000000  0.4373610000000  0.4649140000000 1.0
C      1  0.5116620000000  0.4375200000000  0.4221370000000 1.0
C      1  0.5783540000000  0.4365250000000  0.4888960000000 1.0
C      1  0.5362080000000  0.4414900000000  0.5720750000000 1.0
C      1  0.4566260000000  0.5088730000000  0.6008920000000 1.0
C      1  0.3951590000000  0.5099480000000  0.4967850000000 1.0
C      1  0.4751270000000  0.5174890000000  0.4040570000000 1.0
C      1  0.5919980000000  0.5093450000000  0.4440260000000 1.0
C      1  0.5801130000000  0.5170090000000  0.5644780000000 1.0
C      1  0.4074270000000  0.5610640000000  0.4974300000000 1.0
C      1  0.4851730000000  0.5679590000000  0.4121060000000 1.0
C      1  0.5788900000000  0.5654360000000  0.4547010000000 1.0
C      1  0.5689080000000  0.5684680000000  0.5614700000000 1.0
C      1  0.4726840000000  0.5666200000000  0.5814210000000 1.0
C      1  0.5903760000000  0.4808970000000  0.4540510000000 1.0
C      1  0.5707180000000  0.4889090000000  0.5712140000000 1.0
C      1  0.4546270000000  0.4819830000000  0.5905850000000 1.0
C      1  0.3995980000000  0.4820000000000  0.4867740000000 1.0
C      1  0.4839200000000  0.4875190000000  0.4023620000000 1.0
C      1  0.5031360000000  0.5602830000000  0.5860360000000 1.0
C      1  0.4153630000000  0.5601860000000  0.5265930000000 1.0
C      1  0.4589760000000  0.5705460000000  0.4244340000000 1.0
C      1  0.5621420000000  0.5628460000000  0.4310620000000 1.0
C      1  0.5837100000000  0.5658180000000  0.5359420000000 1.0
C      1  0.4347820000000  0.4132010000000  0.5065580000000 1.0
C      1  0.4728580000000  0.4172540000000  0.4400910000000 1.0
C      1  0.5466730000000  0.4163710000000  0.4582620000000 1.0
C      1  0.5567930000000  0.4192040000000  0.5344950000000 1.0
C      1  0.4871770000000  0.4168210000000  0.5657230000000 1.0
C      1  0.4503510000000  0.5220930000000  0.4196090000000 1.0
C      1  0.5710970000000  0.5148640000000  0.4239540000000 1.0
C      1  0.5851110000000  0.5188250000000  0.5357580000000 1.0
C      1  0.4834220000000  0.5180210000000  0.6067840000000 1.0
C      1  0.3942860000000  0.5144820000000  0.5256760000000 1.0
C      1  0.5173190000000  0.4100150000000  0.4914280000000 1.0
C      1  0.5153560000000  0.4240520000000  0.5192450000000 1.0
C      1  0.4866260000000  0.4209110000000  0.5214290000000 1.0
C      1  0.4754770000000  0.4239650000000  0.4942830000000 1.0
C      1  0.4950600000000  0.4362810000000  0.4727260000000 1.0
C      1  0.5302450000000  0.5037150000000  0.4030970000000 1.0
C      1  0.6026410000000  0.5032670000000  0.4948340000000 1.0
C      1  0.5294740000000  0.5088580000000  0.5969690000000 1.0
C      1  0.4177210000000  0.5012100000000  0.5655280000000 1.0
C      1  0.4129740000000  0.5049620000000  0.4454120000000 1.0
C      1  0.4916120000000  0.5268680000000  0.4926570000000 1.0
C      1  0.4930140000000  0.3933890000000  0.4776120000000 1.0
C      1  0.5069600000000  0.5984400000000  0.5284290000000 1.0
C      1  0.5077530000000  0.5099180000000  0.5111190000000 1.0
END
