TITL C-3578195-8548-201 -3.86562580833706e-06 125000 -643.667257928021 0 0 104 (C1) n - 1
REM
REM in /home/bkarasulu/work/CARBON/AIRSS/Generating-Clusters/EDIP-Nigel-Params/with-SteepDescent/Higher-Symm/SD-CG/HFTN-CG
REM
REM
REM
REM
REM
REM ./C.cell (12c818d87b63d06a65506943cc24bca4)
REM
REM compiler GCC version 9.2.1 20190827 (Red Hat 9.2.1-1)
REM options -cpp -mtune=generic -march=x86-64 -g -O0 -fpre-include=/usr/include/finclude/math-vector-fortran.h
REM seed 736904570 -880491225 1833072396 1767428239 -142475076 1535759483 243270571 -1206988406 -311398883 576767131 -185280236 1322042509 -1228942753 1912172124 -605486231 624451074 -1362395092 1603069461 444951277 -1277159595 754299045 -325874937 257276658 -1490607373 1211702827 -1143642087 322221653 -1330057760 -18586032 -1623313504 -1323155453 -1700802269 -1469855081
REM
CELL 1.54180   50.00000   50.00000   50.00000   90.00000   90.00000   90.00000
LATT -1
SFAC C  
C      1  0.5211420000000  0.5056090000000  0.4355310000000 1.0
C      1  0.4801030000000  0.5038230000000  0.5651320000000 1.0
C      1  0.5109020000000  0.4999600000000  0.5609760000000 1.0
C      1  0.4940100000000  0.4950610000000  0.4430520000000 1.0
C      1  0.4246570000000  0.5202480000000  0.5068280000000 1.0
C      1  0.5626090000000  0.5245110000000  0.4849560000000 1.0
C      1  0.4251200000000  0.4664740000000  0.5031710000000 1.0
C      1  0.5626190000000  0.4723050000000  0.5074080000000 1.0
C      1  0.4666150000000  0.4207570000000  0.5142120000000 1.0
C      1  0.5328620000000  0.4258600000000  0.4850190000000 1.0
C      1  0.4786300000000  0.5763890000000  0.4764800000000 1.0
C      1  0.5367720000000  0.5724410000000  0.5137980000000 1.0
C      1  0.4390700000000  0.5571980000000  0.4597410000000 1.0
C      1  0.5763190000000  0.5537180000000  0.5323110000000 1.0
C      1  0.4274230000000  0.4459910000000  0.5250880000000 1.0
C      1  0.5697150000000  0.4447470000000  0.4666360000000 1.0
C      1  0.4269620000000  0.5476580000000  0.5204030000000 1.0
C      1  0.5770170000000  0.5462230000000  0.4706790000000 1.0
C      1  0.4253690000000  0.4520120000000  0.4764620000000 1.0
C      1  0.5753250000000  0.4540690000000  0.5276870000000 1.0
C      1  0.4618350000000  0.4737350000000  0.5264270000000 1.0
C      1  0.5302350000000  0.4745520000000  0.4701520000000 1.0
C      1  0.4483050000000  0.5159580000000  0.4874010000000 1.0
C      1  0.5357660000000  0.5251780000000  0.5270870000000 1.0
C      1  0.4417960000000  0.5137330000000  0.4391500000000 1.0
C      1  0.5557350000000  0.5230600000000  0.5683330000000 1.0
C      1  0.4415820000000  0.4751090000000  0.5668660000000 1.0
C      1  0.5570780000000  0.4757560000000  0.4298090000000 1.0
C      1  0.4257220000000  0.4904740000000  0.4451950000000 1.0
C      1  0.5727330000000  0.4991350000000  0.5571860000000 1.0
C      1  0.4292910000000  0.5068080000000  0.5490840000000 1.0
C      1  0.5700030000000  0.5113210000000  0.4385120000000 1.0
C      1  0.5826480000000  0.4862600000000  0.4877410000000 1.0
C      1  0.4012540000000  0.4841970000000  0.5087270000000 1.0
C      1  0.5836630000000  0.5109600000000  0.5035380000000 1.0
C      1  0.4000290000000  0.5069760000000  0.4893890000000 1.0
C      1  0.5369030000000  0.5502580000000  0.4405340000000 1.0
C      1  0.4628050000000  0.5476640000000  0.5579760000000 1.0
C      1  0.5340770000000  0.4569760000000  0.5611490000000 1.0
C      1  0.4650110000000  0.4577040000000  0.4388160000000 1.0
C      1  0.4375130000000  0.5295380000000  0.4624420000000 1.0
C      1  0.5533740000000  0.5420500000000  0.5448960000000 1.0
C      1  0.4466550000000  0.4564220000000  0.5452690000000 1.0
C      1  0.5488650000000  0.4582940000000  0.4524510000000 1.0
C      1  0.4986180000000  0.4658860000000  0.5363090000000 1.0
C      1  0.5002180000000  0.4720310000000  0.4629380000000 1.0
C      1  0.4916010000000  0.5347630000000  0.4742630000000 1.0
C      1  0.5079590000000  0.5285950000000  0.5377660000000 1.0
C      1  0.4054090000000  0.4987290000000  0.4629790000000 1.0
C      1  0.5828400000000  0.5072820000000  0.5316710000000 1.0
C      1  0.4057930000000  0.4989540000000  0.5334620000000 1.0
C      1  0.5768950000000  0.4919940000000  0.4590540000000 1.0
C      1  0.5064580000000  0.5556330000000  0.5539680000000 1.0
C      1  0.4941690000000  0.5668230000000  0.4514060000000 1.0
C      1  0.5094050000000  0.4443640000000  0.4379660000000 1.0
C      1  0.4909380000000  0.4383500000000  0.5616280000000 1.0
C      1  0.4897150000000  0.4611290000000  0.5794670000000 1.0
C      1  0.5094460000000  0.4633730000000  0.4155980000000 1.0
C      1  0.4902200000000  0.5426020000000  0.4318590000000 1.0
C      1  0.5063850000000  0.5410940000000  0.5802630000000 1.0
C      1  0.5404130000000  0.4946480000000  0.5284880000000 1.0
C      1  0.4542240000000  0.4843300000000  0.4841870000000 1.0
C      1  0.5356170000000  0.5053580000000  0.4644400000000 1.0
C      1  0.4662380000000  0.5031140000000  0.5376920000000 1.0
C      1  0.5378540000000  0.5364380000000  0.4996000000000 1.0
C      1  0.4731270000000  0.5295500000000  0.4967510000000 1.0
C      1  0.5341190000000  0.4627370000000  0.4976180000000 1.0
C      1  0.4822880000000  0.4556950000000  0.5104920000000 1.0
C      1  0.5316510000000  0.4846740000000  0.4166620000000 1.0
C      1  0.4671280000000  0.4817130000000  0.5804240000000 1.0
C      1  0.5264900000000  0.5175440000000  0.5796640000000 1.0
C      1  0.4780790000000  0.5203080000000  0.4486020000000 1.0
C      1  0.5130790000000  0.4242440000000  0.5044440000000 1.0
C      1  0.4871460000000  0.4150440000000  0.4953760000000 1.0
C      1  0.5215300000000  0.5890730000000  0.4968650000000 1.0
C      1  0.4925940000000  0.5864950000000  0.4995830000000 1.0
C      1  0.4804840000000  0.4198800000000  0.4687270000000 1.0
C      1  0.5217140000000  0.4195650000000  0.5303990000000 1.0
C      1  0.4804600000000  0.5843730000000  0.5247890000000 1.0
C      1  0.5313420000000  0.5907620000000  0.4707430000000 1.0
C      1  0.5183700000000  0.4325330000000  0.5547590000000 1.0
C      1  0.4832880000000  0.4354940000000  0.4457470000000 1.0
C      1  0.5228070000000  0.5740380000000  0.4503790000000 1.0
C      1  0.4809300000000  0.5696560000000  0.5487880000000 1.0
C      1  0.4501690000000  0.5724760000000  0.4798750000000 1.0
C      1  0.5648230000000  0.5695580000000  0.5117770000000 1.0
C      1  0.4386230000000  0.4238720000000  0.5082900000000 1.0
C      1  0.5608090000000  0.4287780000000  0.4880990000000 1.0
C      1  0.4823740000000  0.4766660000000  0.4222850000000 1.0
C      1  0.5158500000000  0.4745700000000  0.5755470000000 1.0
C      1  0.4777180000000  0.5309210000000  0.5773390000000 1.0
C      1  0.5181660000000  0.5335800000000  0.4254280000000 1.0
C      1  0.4425540000000  0.4698620000000  0.4584590000000 1.0
C      1  0.5605930000000  0.4696930000000  0.5506400000000 1.0
C      1  0.4381620000000  0.5360550000000  0.5454980000000 1.0
C      1  0.5651990000000  0.5402220000000  0.4439290000000 1.0
C      1  0.5182800000000  0.5228500000000  0.4822010000000 1.0
C      1  0.4848380000000  0.5182580000000  0.5204290000000 1.0
C      1  0.5188030000000  0.4790120000000  0.5173970000000 1.0
C      1  0.4822560000000  0.4743820000000  0.4871480000000 1.0
C      1  0.5746910000000  0.5701260000000  0.4853020000000 1.0
C      1  0.4397930000000  0.5681170000000  0.5057380000000 1.0
C      1  0.5712350000000  0.4297070000000  0.5143780000000 1.0
C      1  0.4319050000000  0.4252560000000  0.4807240000000 1.0
END
