TITL C-3577091-527-660 -0.0239353532719789 125000 -66.3998159411428 0 0 15 (C2) n - 1
REM
REM in /home/bkarasulu/work/CARBON/AIRSS/Generating-Clusters/EDIP-Nigel-Params/with-SteepDescent/Higher-Symm/SD-CG/HFTN-CG
REM
REM
REM
REM
REM
REM ./C.cell (12c818d87b63d06a65506943cc24bca4)
REM
REM compiler GCC version 9.2.1 20190827 (Red Hat 9.2.1-1)
REM options -cpp -mtune=generic -march=x86-64 -g -O0 -fpre-include=/usr/include/finclude/math-vector-fortran.h
REM seed -1137862114 1959830250 64657848 -2080968289 341648572 -635332276 353673666 1121538552 -2078888238 1005730123 -407489570 1560578401 -1782673014 -143205901 1708270695 1757819331 -1397685306 18834841 -1830274648 -1913713825 661177610 1940386520 -257797467 840366509 -4838002 302578293 1748100831 195177537 715072369 -1009555379 2065220495 604295183 961203419
REM
CELL 1.54180   50.00000   50.00000   50.00000   90.00000   90.00000   90.00000
LATT -1
SFAC C  
C      1  0.5689130000000  0.4870680000000  0.4912300000000 1.0
C      1  0.4380790000000  0.4872230000000  0.5111680000000 1.0
C      1  0.4841840000000  0.4975480000000  0.4603010000000 1.0
C      1  0.5228250000000  0.4977130000000  0.5420460000000 1.0
C      1  0.4751540000000  0.5371680000000  0.4805870000000 1.0
C      1  0.5319200000000  0.5372210000000  0.5215700000000 1.0
C      1  0.4580760000000  0.4991490000000  0.4985740000000 1.0
C      1  0.5489360000000  0.4990870000000  0.5037670000000 1.0
C      1  0.5268810000000  0.5108200000000  0.5172060000000 1.0
C      1  0.4801500000000  0.5107810000000  0.4850780000000 1.0
C      1  0.4880160000000  0.4847260000000  0.4384220000000 1.0
C      1  0.5189730000000  0.4850030000000  0.5639870000000 1.0
C      1  0.4182360000000  0.4766350000000  0.5233340000000 1.0
C      1  0.5887390000000  0.4763900000000  0.4791150000000 1.0
C      1  0.5035130000000  0.5081880000000  0.5011480000000 1.0
END
