TITL C-3578203-1966-145 4.98477617729623e-07 125000 -188.902303296447 0 0 32 (C1) n - 1
REM
REM in /home/bkarasulu/work/CARBON/AIRSS/Generating-Clusters/EDIP-Nigel-Params/with-SteepDescent/Higher-Symm/SD-CG/HFTN-CG
REM
REM
REM
REM
REM
REM ./C.cell (12c818d87b63d06a65506943cc24bca4)
REM
REM compiler GCC version 9.2.1 20190827 (Red Hat 9.2.1-1)
REM options -cpp -mtune=generic -march=x86-64 -g -O0 -fpre-include=/usr/include/finclude/math-vector-fortran.h
REM seed -424399532 -1423501261 859750933 -260551435 -1890808696 393254789 1556313100 -1552924175 -727440691 -671993606 432981052 1794800717 -1287545136 1718976725 102785448 -1835810125 946020015 -933714863 1140844441 -1569709396 -148350980 -311922047 2142450511 734535013 -1859237869 1601578721 417184523 1216259215 -823386297 -856945288 456641446 569492735 1031039634
REM
CELL 1.54180   50.00000   50.00000   50.00000   90.00000   90.00000   90.00000
LATT -1
SFAC C  
C      1  0.4409820000000  0.4523630000000  0.5284650000000 1.0
C      1  0.4514370000000  0.4979640000000  0.4459280000000 1.0
C      1  0.4502860000000  0.5462580000000  0.5289970000000 1.0
C      1  0.4668480000000  0.4465000000000  0.5323070000000 1.0
C      1  0.4735120000000  0.5138000000000  0.4403960000000 1.0
C      1  0.4704320000000  0.5394540000000  0.5468130000000 1.0
C      1  0.5708980000000  0.5334980000000  0.4824880000000 1.0
C      1  0.5726440000000  0.5003370000000  0.5379450000000 1.0
C      1  0.5739920000000  0.4686770000000  0.4818840000000 1.0
C      1  0.5717750000000  0.5254240000000  0.5286090000000 1.0
C      1  0.5746170000000  0.4641230000000  0.5082850000000 1.0
C      1  0.5720230000000  0.5126470000000  0.4656970000000 1.0
C      1  0.4388050000000  0.4998140000000  0.5282130000000 1.0
C      1  0.4388050000000  0.4758170000000  0.4872140000000 1.0
C      1  0.4517690000000  0.5190340000000  0.4891350000000 1.0
C      1  0.4318060000000  0.4750430000000  0.5151790000000 1.0
C      1  0.4378040000000  0.4999840000000  0.4710900000000 1.0
C      1  0.4369950000000  0.5254160000000  0.5142680000000 1.0
C      1  0.4910420000000  0.4564760000000  0.5274490000000 1.0
C      1  0.4894020000000  0.4943030000000  0.4521310000000 1.0
C      1  0.4887620000000  0.5434560000000  0.5264210000000 1.0
C      1  0.5344380000000  0.4751400000000  0.5290120000000 1.0
C      1  0.5333370000000  0.4870030000000  0.4682490000000 1.0
C      1  0.5316210000000  0.5358340000000  0.5076040000000 1.0
C      1  0.5081460000000  0.4969100000000  0.4735910000000 1.0
C      1  0.5072760000000  0.5250540000000  0.5147820000000 1.0
C      1  0.5088710000000  0.4755870000000  0.5188070000000 1.0
C      1  0.5608180000000  0.4873570000000  0.4662970000000 1.0
C      1  0.5591190000000  0.5375160000000  0.5071930000000 1.0
C      1  0.5619460000000  0.4762000000000  0.5297130000000 1.0
C      1  0.4680790000000  0.4964590000000  0.5028090000000 1.0
C      1  0.4986850000000  0.4987410000000  0.5023930000000 1.0
END
