TITL C-3577088-510-316 -6.78750629141766e-07 125000 -1077.00790220895 0 0 170 (C1) n - 1
REM
REM in /home/bkarasulu/work/CARBON/AIRSS/Generating-Clusters/EDIP-Nigel-Params/with-SteepDescent/Higher-Symm/SD-CG/HFTN-CG
REM
REM
REM
REM
REM
REM ./C.cell (12c818d87b63d06a65506943cc24bca4)
REM
REM compiler GCC version 9.2.1 20190827 (Red Hat 9.2.1-1)
REM options -cpp -mtune=generic -march=x86-64 -g -O0 -fpre-include=/usr/include/finclude/math-vector-fortran.h
REM seed -330920385 1087649280 -1644436801 797606573 140708813 -498443927 -234989977 -650062394 -1101509754 2083376907 -1032824830 -597823663 1801401795 1580550111 -678930536 -428837649 1280208036 1719679520 -1846310523 -270964487 531091664 -471157497 855231021 351606976 228363978 659799972 816163890 -1838575318 -1202105922 -446275439 1416083158 -751920530 -690188565
REM
CELL 1.54180   50.00000   50.00000   50.00000   90.00000   90.00000   90.00000
LATT -1
SFAC C  
C      1  0.5160640000000  0.4685190000000  0.5117580000000 1.0
C      1  0.4842740000000  0.5314050000000  0.5124410000000 1.0
C      1  0.4834600000000  0.4700560000000  0.4900790000000 1.0
C      1  0.5150500000000  0.5295160000000  0.4892930000000 1.0
C      1  0.4793050000000  0.5994140000000  0.4783120000000 1.0
C      1  0.5209340000000  0.4003700000000  0.4784150000000 1.0
C      1  0.5219920000000  0.6008420000000  0.5222760000000 1.0
C      1  0.4783290000000  0.3990070000000  0.5234250000000 1.0
C      1  0.5211670000000  0.5032260000000  0.5525680000000 1.0
C      1  0.4786870000000  0.4965660000000  0.5526430000000 1.0
C      1  0.4863090000000  0.5067710000000  0.4454270000000 1.0
C      1  0.5152550000000  0.4958090000000  0.4503770000000 1.0
C      1  0.4644850000000  0.4307070000000  0.4841930000000 1.0
C      1  0.5356450000000  0.5686300000000  0.4838490000000 1.0
C      1  0.5364030000000  0.4312830000000  0.5210930000000 1.0
C      1  0.4649410000000  0.5694180000000  0.5206500000000 1.0
C      1  0.5449150000000  0.4747370000000  0.5927980000000 1.0
C      1  0.4553130000000  0.5259340000000  0.5921720000000 1.0
C      1  0.4583180000000  0.4740740000000  0.4186030000000 1.0
C      1  0.5421770000000  0.5259970000000  0.4183850000000 1.0
C      1  0.4169130000000  0.4308870000000  0.4686510000000 1.0
C      1  0.5832840000000  0.5692390000000  0.4684680000000 1.0
C      1  0.5841610000000  0.4314260000000  0.5302310000000 1.0
C      1  0.4158600000000  0.5685620000000  0.5311020000000 1.0
C      1  0.4173560000000  0.4993090000000  0.4298370000000 1.0
C      1  0.5829340000000  0.5008810000000  0.4300320000000 1.0
C      1  0.5756570000000  0.5000270000000  0.5666410000000 1.0
C      1  0.4222100000000  0.4998580000000  0.5693330000000 1.0
C      1  0.5537300000000  0.5922430000000  0.5718090000000 1.0
C      1  0.4463480000000  0.4082010000000  0.5726450000000 1.0
C      1  0.4473530000000  0.5905490000000  0.4295090000000 1.0
C      1  0.5528160000000  0.4097160000000  0.4294690000000 1.0
C      1  0.5692480000000  0.5902180000000  0.5133650000000 1.0
C      1  0.4306800000000  0.4098060000000  0.5138070000000 1.0
C      1  0.4320680000000  0.5877240000000  0.4871410000000 1.0
C      1  0.5677370000000  0.4125760000000  0.4865850000000 1.0
C      1  0.4095470000000  0.5449230000000  0.5161180000000 1.0
C      1  0.5878610000000  0.4554570000000  0.5151180000000 1.0
C      1  0.6010550000000  0.5515110000000  0.4851850000000 1.0
C      1  0.3989520000000  0.4485780000000  0.4851210000000 1.0
C      1  0.4373710000000  0.5647940000000  0.4215390000000 1.0
C      1  0.5628180000000  0.4354470000000  0.4214210000000 1.0
C      1  0.5625490000000  0.5658750000000  0.5788970000000 1.0
C      1  0.4376340000000  0.4346540000000  0.5795100000000 1.0
C      1  0.5192570000000  0.5767210000000  0.4562030000000 1.0
C      1  0.4809580000000  0.4231700000000  0.4565950000000 1.0
C      1  0.4822970000000  0.5840830000000  0.5451920000000 1.0
C      1  0.5182930000000  0.4110850000000  0.5478060000000 1.0
C      1  0.4242440000000  0.5553810000000  0.5570200000000 1.0
C      1  0.5750530000000  0.4441650000000  0.5562240000000 1.0
C      1  0.5740610000000  0.5506550000000  0.4466770000000 1.0
C      1  0.4261460000000  0.4493880000000  0.4466850000000 1.0
C      1  0.4840010000000  0.4679370000000  0.4036220000000 1.0
C      1  0.5164210000000  0.5321990000000  0.4034730000000 1.0
C      1  0.5171700000000  0.4682800000000  0.5908220000000 1.0
C      1  0.4832340000000  0.5323750000000  0.5935040000000 1.0
C      1  0.5051050000000  0.5135510000000  0.5925380000000 1.0
C      1  0.4952880000000  0.4869360000000  0.5925130000000 1.0
C      1  0.4944190000000  0.5131610000000  0.4030510000000 1.0
C      1  0.5060360000000  0.4868870000000  0.4041570000000 1.0
C      1  0.4091000000000  0.5245740000000  0.4439480000000 1.0
C      1  0.5911680000000  0.4755700000000  0.4438820000000 1.0
C      1  0.5884080000000  0.5236220000000  0.5540080000000 1.0
C      1  0.4118250000000  0.4761700000000  0.5545310000000 1.0
C      1  0.5394930000000  0.5504040000000  0.5916950000000 1.0
C      1  0.4611050000000  0.4502130000000  0.5915450000000 1.0
C      1  0.4596930000000  0.5493950000000  0.4068560000000 1.0
C      1  0.5403680000000  0.4507000000000  0.4070480000000 1.0
C      1  0.4697820000000  0.4294990000000  0.4288780000000 1.0
C      1  0.5305290000000  0.5706350000000  0.4284600000000 1.0
C      1  0.5296720000000  0.4273210000000  0.5692240000000 1.0
C      1  0.4705060000000  0.5718210000000  0.5696990000000 1.0
C      1  0.4854030000000  0.5745490000000  0.4934990000000 1.0
C      1  0.5149480000000  0.4252730000000  0.4936830000000 1.0
C      1  0.5147600000000  0.5754530000000  0.5072640000000 1.0
C      1  0.4856700000000  0.4243690000000  0.5080370000000 1.0
C      1  0.5544530000000  0.5530550000000  0.4250260000000 1.0
C      1  0.4460300000000  0.4471020000000  0.4254080000000 1.0
C      1  0.4534550000000  0.5520790000000  0.5527720000000 1.0
C      1  0.5453390000000  0.4463390000000  0.5516650000000 1.0
C      1  0.4108610000000  0.5197100000000  0.4767770000000 1.0
C      1  0.5894310000000  0.4803930000000  0.4766100000000 1.0
C      1  0.5897910000000  0.5201740000000  0.5211710000000 1.0
C      1  0.4099900000000  0.4799060000000  0.5210830000000 1.0
C      1  0.4414020000000  0.4830910000000  0.5189860000000 1.0
C      1  0.5580650000000  0.5170390000000  0.5199890000000 1.0
C      1  0.5579520000000  0.4822940000000  0.4787840000000 1.0
C      1  0.4425100000000  0.5179130000000  0.4786960000000 1.0
C      1  0.5553610000000  0.5139110000000  0.4679390000000 1.0
C      1  0.4447520000000  0.4862390000000  0.4673400000000 1.0
C      1  0.4398080000000  0.5144560000000  0.5266190000000 1.0
C      1  0.5589820000000  0.4860500000000  0.5277930000000 1.0
C      1  0.5357020000000  0.5157520000000  0.4455370000000 1.0
C      1  0.4655690000000  0.4850080000000  0.4453400000000 1.0
C      1  0.4568940000000  0.5207060000000  0.5536400000000 1.0
C      1  0.5405250000000  0.4778980000000  0.5542910000000 1.0
C      1  0.5171870000000  0.5614040000000  0.5755170000000 1.0
C      1  0.4830510000000  0.4391100000000  0.5750100000000 1.0
C      1  0.4823320000000  0.5583150000000  0.4245140000000 1.0
C      1  0.5177950000000  0.4420930000000  0.4248350000000 1.0
C      1  0.4848950000000  0.4977850000000  0.4822880000000 1.0
C      1  0.5123770000000  0.5019500000000  0.4803400000000 1.0
C      1  0.5131180000000  0.4957580000000  0.5243960000000 1.0
C      1  0.4866790000000  0.5045910000000  0.5253850000000 1.0
C      1  0.5342050000000  0.5212580000000  0.5904340000000 1.0
C      1  0.4661760000000  0.4793420000000  0.5911060000000 1.0
C      1  0.4645990000000  0.5200060000000  0.4067550000000 1.0
C      1  0.5358470000000  0.4800780000000  0.4061460000000 1.0
C      1  0.5740160000000  0.5514030000000  0.5549080000000 1.0
C      1  0.4257510000000  0.4484330000000  0.5553190000000 1.0
C      1  0.4284550000000  0.5497190000000  0.4464990000000 1.0
C      1  0.5716790000000  0.4505300000000  0.4463660000000 1.0
C      1  0.4188380000000  0.4775570000000  0.4528800000000 1.0
C      1  0.5813300000000  0.5225650000000  0.4532590000000 1.0
C      1  0.5877920000000  0.4733550000000  0.5582800000000 1.0
C      1  0.4117710000000  0.5263910000000  0.5583200000000 1.0
C      1  0.4801080000000  0.5382480000000  0.4500440000000 1.0
C      1  0.5198510000000  0.4622720000000  0.4506420000000 1.0
C      1  0.5182050000000  0.5421820000000  0.5505560000000 1.0
C      1  0.4821170000000  0.4579510000000  0.5500250000000 1.0
C      1  0.5831590000000  0.4334660000000  0.4708580000000 1.0
C      1  0.4170960000000  0.5665990000000  0.4714190000000 1.0
C      1  0.4200360000000  0.4329790000000  0.5291710000000 1.0
C      1  0.5792200000000  0.5668420000000  0.5287770000000 1.0
C      1  0.4744190000000  0.4116300000000  0.5699160000000 1.0
C      1  0.5255990000000  0.5889480000000  0.5697520000000 1.0
C      1  0.5250660000000  0.4150240000000  0.4329200000000 1.0
C      1  0.4751660000000  0.5854370000000  0.4325260000000 1.0
C      1  0.4537660000000  0.5295460000000  0.5052640000000 1.0
C      1  0.5471550000000  0.4706930000000  0.5055460000000 1.0
C      1  0.5459260000000  0.5322630000000  0.4914980000000 1.0
C      1  0.4530390000000  0.4673110000000  0.4910160000000 1.0
C      1  0.5082410000000  0.5989770000000  0.5478230000000 1.0
C      1  0.4917500000000  0.3991350000000  0.5494030000000 1.0
C      1  0.4938430000000  0.5946720000000  0.4536750000000 1.0
C      1  0.5063990000000  0.4054740000000  0.4539110000000 1.0
C      1  0.4911880000000  0.4412340000000  0.4118300000000 1.0
C      1  0.5090500000000  0.5588770000000  0.4115370000000 1.0
C      1  0.5102250000000  0.4409530000000  0.5864130000000 1.0
C      1  0.4901760000000  0.5595750000000  0.5876910000000 1.0
C      1  0.5960830000000  0.4539280000000  0.4878830000000 1.0
C      1  0.4039960000000  0.5460380000000  0.4881280000000 1.0
C      1  0.4053310000000  0.4518980000000  0.5133660000000 1.0
C      1  0.5941120000000  0.5480720000000  0.5132160000000 1.0
C      1  0.5481020000000  0.4629450000000  0.4589960000000 1.0
C      1  0.4520550000000  0.5372110000000  0.4587950000000 1.0
C      1  0.4546060000000  0.4723780000000  0.5451840000000 1.0
C      1  0.5453280000000  0.5261770000000  0.5474490000000 1.0
C      1  0.4423780000000  0.4989120000000  0.4101530000000 1.0
C      1  0.5580730000000  0.5011610000000  0.4100550000000 1.0
C      1  0.5556810000000  0.5008110000000  0.5886980000000 1.0
C      1  0.4444140000000  0.4996220000000  0.5899140000000 1.0
C      1  0.3964760000000  0.4757890000000  0.4729890000000 1.0
C      1  0.6037660000000  0.5242990000000  0.4731690000000 1.0
C      1  0.5962200000000  0.4773110000000  0.5310860000000 1.0
C      1  0.4025620000000  0.5223620000000  0.5314920000000 1.0
C      1  0.4377590000000  0.4157600000000  0.4851100000000 1.0
C      1  0.5621840000000  0.5841030000000  0.4847260000000 1.0
C      1  0.5628340000000  0.4160670000000  0.5160430000000 1.0
C      1  0.4375220000000  0.5836970000000  0.5165120000000 1.0
C      1  0.4959610000000  0.4484440000000  0.5260850000000 1.0
C      1  0.5050840000000  0.5515050000000  0.5257790000000 1.0
C      1  0.5029860000000  0.4502140000000  0.4740580000000 1.0
C      1  0.4968980000000  0.5498360000000  0.4734030000000 1.0
C      1  0.5483450000000  0.3962650000000  0.4742400000000 1.0
C      1  0.4518440000000  0.6033760000000  0.4745800000000 1.0
C      1  0.4508060000000  0.3943000000000  0.5256560000000 1.0
C      1  0.5493480000000  0.6061530000000  0.5250420000000 1.0
C      1  0.6012810000000  0.5039010000000  0.4938030000000 1.0
C      1  0.3988190000000  0.4961260000000  0.4936820000000 1.0
END
