TITL C-3577085-527-323 -2.78694770968526e-06 125000 -1134.40729207697 0 0 181 (C1) n - 1
REM
REM in /home/bkarasulu/work/CARBON/AIRSS/Generating-Clusters/EDIP-Nigel-Params/with-SteepDescent/Higher-Symm/SD-CG/HFTN-CG
REM
REM
REM
REM
REM
REM ./C.cell (12c818d87b63d06a65506943cc24bca4)
REM
REM compiler GCC version 9.2.1 20190827 (Red Hat 9.2.1-1)
REM options -cpp -mtune=generic -march=x86-64 -g -O0 -fpre-include=/usr/include/finclude/math-vector-fortran.h
REM seed 889463757 -1372339017 1324411506 848547132 -1859700238 1842108599 1735803550 2110738920 -1171616 396034167 -1067490808 -397221573 336236457 -250762948 1376277791 484546296 1383718717 -1574562053 -214924386 957573970 -1348611144 -1464543095 1189273441 -1576672558 561524498 -1540489036 204534627 1821938550 -683159701 -497141077 -313064939 282499383 -1961606494
REM
CELL 1.54180   50.00000   50.00000   50.00000   90.00000   90.00000   90.00000
LATT -1
SFAC C  
C      1  0.4578230000000  0.5594730000000  0.4117360000000 1.0
C      1  0.4556240000000  0.4392550000000  0.4122630000000 1.0
C      1  0.5776620000000  0.5684970000000  0.4985790000000 1.0
C      1  0.5783760000000  0.4337410000000  0.4948690000000 1.0
C      1  0.4312990000000  0.4278270000000  0.4219410000000 1.0
C      1  0.4327910000000  0.5681630000000  0.4240490000000 1.0
C      1  0.4661650000000  0.5552650000000  0.4920550000000 1.0
C      1  0.4648290000000  0.4417620000000  0.4923870000000 1.0
C      1  0.5103300000000  0.6091500000000  0.5236680000000 1.0
C      1  0.5114270000000  0.3931950000000  0.5215240000000 1.0
C      1  0.4514480000000  0.4837840000000  0.5094780000000 1.0
C      1  0.4433350000000  0.5115350000000  0.5119300000000 1.0
C      1  0.5378160000000  0.4507150000000  0.4575060000000 1.0
C      1  0.5370580000000  0.5540430000000  0.4636240000000 1.0
C      1  0.5153850000000  0.4846530000000  0.5281210000000 1.0
C      1  0.5150550000000  0.5151490000000  0.5290560000000 1.0
C      1  0.5980360000000  0.5524650000000  0.4834970000000 1.0
C      1  0.5987950000000  0.4452530000000  0.4752770000000 1.0
C      1  0.5378560000000  0.4780050000000  0.4108140000000 1.0
C      1  0.5439110000000  0.5196960000000  0.4186990000000 1.0
C      1  0.5411020000000  0.3966100000000  0.4872500000000 1.0
C      1  0.5420070000000  0.6062380000000  0.4883590000000 1.0
C      1  0.5400190000000  0.6091990000000  0.5172720000000 1.0
C      1  0.5402330000000  0.3944350000000  0.5156440000000 1.0
C      1  0.3864820000000  0.5151260000000  0.5342760000000 1.0
C      1  0.3910670000000  0.4861000000000  0.5316670000000 1.0
C      1  0.5843690000000  0.5322140000000  0.4419290000000 1.0
C      1  0.5756490000000  0.4657070000000  0.4394970000000 1.0
C      1  0.4767740000000  0.4113000000000  0.5537900000000 1.0
C      1  0.4728920000000  0.5936020000000  0.5592470000000 1.0
C      1  0.5407430000000  0.4707120000000  0.4811080000000 1.0
C      1  0.5401360000000  0.5336470000000  0.4847230000000 1.0
C      1  0.5902770000000  0.4870440000000  0.5218650000000 1.0
C      1  0.5909620000000  0.5164220000000  0.5185680000000 1.0
C      1  0.4722280000000  0.4170390000000  0.4568230000000 1.0
C      1  0.4729270000000  0.5809510000000  0.4565480000000 1.0
C      1  0.4964130000000  0.4715000000000  0.4454460000000 1.0
C      1  0.5030870000000  0.5254960000000  0.4489040000000 1.0
C      1  0.5552480000000  0.5489560000000  0.5059660000000 1.0
C      1  0.5566820000000  0.4547320000000  0.5024980000000 1.0
C      1  0.3860380000000  0.5324430000000  0.5101690000000 1.0
C      1  0.3911080000000  0.4705950000000  0.5070440000000 1.0
C      1  0.5160280000000  0.5705640000000  0.4258210000000 1.0
C      1  0.5141370000000  0.4270160000000  0.4243690000000 1.0
C      1  0.5144440000000  0.4604650000000  0.3859770000000 1.0
C      1  0.5215530000000  0.5342450000000  0.3904870000000 1.0
C      1  0.5612160000000  0.4085220000000  0.5304650000000 1.0
C      1  0.5606870000000  0.5945530000000  0.5326970000000 1.0
C      1  0.4456540000000  0.5920810000000  0.5124270000000 1.0
C      1  0.4443910000000  0.4037940000000  0.5117340000000 1.0
C      1  0.3860220000000  0.5166850000000  0.4854790000000 1.0
C      1  0.3815590000000  0.4875900000000  0.4851810000000 1.0
C      1  0.5239580000000  0.4107310000000  0.5622180000000 1.0
C      1  0.5230900000000  0.5869130000000  0.5644860000000 1.0
C      1  0.4921980000000  0.5289940000000  0.5889300000000 1.0
C      1  0.4931810000000  0.4728290000000  0.5911340000000 1.0
C      1  0.4434720000000  0.5288400000000  0.5824880000000 1.0
C      1  0.4463360000000  0.4717680000000  0.5770620000000 1.0
C      1  0.4633310000000  0.4422240000000  0.4417570000000 1.0
C      1  0.4667650000000  0.5557160000000  0.4406910000000 1.0
C      1  0.5334450000000  0.5555090000000  0.4070920000000 1.0
C      1  0.5297370000000  0.4411950000000  0.4032680000000 1.0
C      1  0.5806900000000  0.5112080000000  0.4640590000000 1.0
C      1  0.5917340000000  0.4846450000000  0.4557470000000 1.0
C      1  0.4005290000000  0.5295500000000  0.5558910000000 1.0
C      1  0.4039360000000  0.4712800000000  0.5525960000000 1.0
C      1  0.5196750000000  0.4329940000000  0.5981140000000 1.0
C      1  0.5170820000000  0.5726300000000  0.5904670000000 1.0
C      1  0.4120510000000  0.4456530000000  0.5411640000000 1.0
C      1  0.4086190000000  0.5557560000000  0.5444370000000 1.0
C      1  0.5654230000000  0.5381800000000  0.4214640000000 1.0
C      1  0.5610510000000  0.4615130000000  0.4146480000000 1.0
C      1  0.4951230000000  0.4444300000000  0.5904130000000 1.0
C      1  0.4941300000000  0.5559050000000  0.5768110000000 1.0
C      1  0.4668760000000  0.3927120000000  0.4983030000000 1.0
C      1  0.4678380000000  0.6033980000000  0.4984930000000 1.0
C      1  0.4329220000000  0.4302570000000  0.5538320000000 1.0
C      1  0.4333140000000  0.5665080000000  0.5537700000000 1.0
C      1  0.4209940000000  0.5145250000000  0.5709730000000 1.0
C      1  0.4220350000000  0.4855120000000  0.5701920000000 1.0
C      1  0.4284920000000  0.4767550000000  0.4084030000000 1.0
C      1  0.4326390000000  0.5227260000000  0.4090210000000 1.0
C      1  0.4588700000000  0.5288470000000  0.4538720000000 1.0
C      1  0.4533070000000  0.4674950000000  0.4567690000000 1.0
C      1  0.5884240000000  0.5576120000000  0.4555100000000 1.0
C      1  0.5848930000000  0.4404760000000  0.4492910000000 1.0
C      1  0.4906990000000  0.5716280000000  0.4795270000000 1.0
C      1  0.4912160000000  0.4279660000000  0.4792170000000 1.0
C      1  0.4227980000000  0.5762330000000  0.5000820000000 1.0
C      1  0.4251840000000  0.4234650000000  0.4989480000000 1.0
C      1  0.5657130000000  0.5900970000000  0.4798370000000 1.0
C      1  0.5636980000000  0.4128070000000  0.4779700000000 1.0
C      1  0.5416960000000  0.4753750000000  0.6021090000000 1.0
C      1  0.5401560000000  0.5287080000000  0.6023720000000 1.0
C      1  0.4374860000000  0.5648840000000  0.4779100000000 1.0
C      1  0.4338210000000  0.4311090000000  0.4730420000000 1.0
C      1  0.4590180000000  0.5311740000000  0.4041210000000 1.0
C      1  0.4544280000000  0.4671790000000  0.4042860000000 1.0
C      1  0.4880330000000  0.4815820000000  0.5483180000000 1.0
C      1  0.4861610000000  0.5162200000000  0.5472250000000 1.0
C      1  0.5071770000000  0.6079130000000  0.4486550000000 1.0
C      1  0.5063310000000  0.3901880000000  0.4481410000000 1.0
C      1  0.4701170000000  0.5728480000000  0.5810530000000 1.0
C      1  0.4741400000000  0.4297190000000  0.5765890000000 1.0
C      1  0.4443860000000  0.5580550000000  0.5785930000000 1.0
C      1  0.4484330000000  0.4432220000000  0.5743420000000 1.0
C      1  0.5872200000000  0.4846500000000  0.5657630000000 1.0
C      1  0.5886210000000  0.5157100000000  0.5660830000000 1.0
C      1  0.4944210000000  0.5154600000000  0.4773240000000 1.0
C      1  0.4920410000000  0.4834100000000  0.4771130000000 1.0
C      1  0.4952230000000  0.6107510000000  0.4986830000000 1.0
C      1  0.4948740000000  0.3884750000000  0.4981370000000 1.0
C      1  0.4679490000000  0.5145530000000  0.5872100000000 1.0
C      1  0.4684150000000  0.4860950000000  0.5877230000000 1.0
C      1  0.5434110000000  0.5571920000000  0.5962070000000 1.0
C      1  0.5447010000000  0.4466080000000  0.5980570000000 1.0
C      1  0.4289680000000  0.4191870000000  0.4481630000000 1.0
C      1  0.4298550000000  0.5732510000000  0.4514480000000 1.0
C      1  0.4939970000000  0.5524360000000  0.5408080000000 1.0
C      1  0.4914970000000  0.4475980000000  0.5335680000000 1.0
C      1  0.5966870000000  0.5233920000000  0.4886330000000 1.0
C      1  0.6071420000000  0.4721310000000  0.4756030000000 1.0
C      1  0.5590360000000  0.4269410000000  0.4532540000000 1.0
C      1  0.5609890000000  0.5726980000000  0.4563270000000 1.0
C      1  0.5143030000000  0.3913110000000  0.4761080000000 1.0
C      1  0.5148630000000  0.6078730000000  0.4767730000000 1.0
C      1  0.6023110000000  0.5311140000000  0.5427950000000 1.0
C      1  0.6048170000000  0.4661520000000  0.5496890000000 1.0
C      1  0.4193020000000  0.4914730000000  0.4807060000000 1.0
C      1  0.4233220000000  0.5251900000000  0.4896980000000 1.0
C      1  0.5025970000000  0.3989620000000  0.5483120000000 1.0
C      1  0.5004500000000  0.5954820000000  0.5479620000000 1.0
C      1  0.5252680000000  0.4818160000000  0.4377940000000 1.0
C      1  0.5309040000000  0.5100660000000  0.4449240000000 1.0
C      1  0.5078130000000  0.4423810000000  0.4502800000000 1.0
C      1  0.5095690000000  0.5564530000000  0.4522720000000 1.0
C      1  0.4147930000000  0.4870140000000  0.4305380000000 1.0
C      1  0.4166790000000  0.5159400000000  0.4310100000000 1.0
C      1  0.5133960000000  0.5284010000000  0.4994380000000 1.0
C      1  0.5137580000000  0.4725900000000  0.4967470000000 1.0
C      1  0.5345380000000  0.4355020000000  0.5527780000000 1.0
C      1  0.5354490000000  0.5636190000000  0.5512990000000 1.0
C      1  0.4071100000000  0.4440330000000  0.5126330000000 1.0
C      1  0.4053280000000  0.5557610000000  0.5156220000000 1.0
C      1  0.4654170000000  0.5552030000000  0.5252810000000 1.0
C      1  0.4636590000000  0.4408620000000  0.5240000000000 1.0
C      1  0.4798490000000  0.6050860000000  0.4436340000000 1.0
C      1  0.4788950000000  0.3929330000000  0.4435040000000 1.0
C      1  0.4602170000000  0.5261080000000  0.5314810000000 1.0
C      1  0.4599470000000  0.4704500000000  0.5351210000000 1.0
C      1  0.5087540000000  0.4444460000000  0.5084700000000 1.0
C      1  0.5069900000000  0.5566990000000  0.5111280000000 1.0
C      1  0.4259350000000  0.4765730000000  0.4557880000000 1.0
C      1  0.4305400000000  0.5203880000000  0.4574550000000 1.0
C      1  0.4492820000000  0.5872360000000  0.5415080000000 1.0
C      1  0.4491120000000  0.4086680000000  0.5411030000000 1.0
C      1  0.5562890000000  0.5543650000000  0.5696360000000 1.0
C      1  0.5549120000000  0.4465610000000  0.5706650000000 1.0
C      1  0.5590770000000  0.5249260000000  0.5694660000000 1.0
C      1  0.5579190000000  0.4759880000000  0.5676890000000 1.0
C      1  0.4785290000000  0.4817190000000  0.4172660000000 1.0
C      1  0.4823160000000  0.5163640000000  0.4190520000000 1.0
C      1  0.5632810000000  0.4776390000000  0.5185400000000 1.0
C      1  0.5631910000000  0.5266790000000  0.5220990000000 1.0
C      1  0.5975090000000  0.4405180000000  0.5401230000000 1.0
C      1  0.5969370000000  0.5594120000000  0.5411030000000 1.0
C      1  0.5157320000000  0.5153910000000  0.5973700000000 1.0
C      1  0.5158160000000  0.4873280000000  0.6004600000000 1.0
C      1  0.4689000000000  0.5279300000000  0.4803150000000 1.0
C      1  0.4644590000000  0.4711220000000  0.4843510000000 1.0
C      1  0.5357780000000  0.5666630000000  0.5211050000000 1.0
C      1  0.5371280000000  0.4374330000000  0.5209290000000 1.0
C      1  0.5436120000000  0.4768470000000  0.5402010000000 1.0
C      1  0.5436400000000  0.5208540000000  0.5431140000000 1.0
C      1  0.5852100000000  0.5798690000000  0.5250590000000 1.0
C      1  0.5855550000000  0.4223780000000  0.5219340000000 1.0
C      1  0.5237810000000  0.5973960000000  0.4288850000000 1.0
C      1  0.5227460000000  0.4006150000000  0.4282140000000 1.0
C      1  0.5050370000000  0.5123850000000  0.3991010000000 1.0
C      1  0.4978430000000  0.4836480000000  0.3932890000000 1.0
C      1  0.5499730000000  0.5069580000000  0.4707310000000 1.0
END
