TITL C-3577084-3642-727 1.38568943045787e-06 125000 -534.4947775686 0 0 87 (C1) n - 1
REM
REM in /home/bkarasulu/work/CARBON/AIRSS/Generating-Clusters/EDIP-Nigel-Params/with-SteepDescent/Higher-Symm/SD-CG/HFTN-CG
REM
REM
REM
REM
REM
REM ./C.cell (12c818d87b63d06a65506943cc24bca4)
REM
REM compiler GCC version 9.2.1 20190827 (Red Hat 9.2.1-1)
REM options -cpp -mtune=generic -march=x86-64 -g -O0 -fpre-include=/usr/include/finclude/math-vector-fortran.h
REM seed 1179656945 1588246851 94211757 619483838 1914482296 -1371320951 1082645492 1864409214 1132771741 -36714987 1806495759 1460016192 709339904 176079686 -1560363665 818577292 -1867993489 -1320177655 1007185271 -1185519962 -511565853 -56283406 -650017981 -1764476046 -1675647811 506213905 -1077556054 -1265773774 440747221 2100420647 2143326063 2034080010 47889005
REM
CELL 1.54180   50.00000   50.00000   50.00000   90.00000   90.00000   90.00000
LATT -1
SFAC C  
C      1  0.5333880000000  0.4488470000000  0.4746600000000 1.0
C      1  0.4897830000000  0.5542330000000  0.5771200000000 1.0
C      1  0.4895960000000  0.4387780000000  0.5360520000000 1.0
C      1  0.4489380000000  0.4777440000000  0.5287200000000 1.0
C      1  0.5613820000000  0.4958700000000  0.5096510000000 1.0
C      1  0.4503330000000  0.5250990000000  0.4251470000000 1.0
C      1  0.5772750000000  0.5023660000000  0.5347810000000 1.0
C      1  0.5179810000000  0.4035410000000  0.4765890000000 1.0
C      1  0.4565150000000  0.4798960000000  0.4277040000000 1.0
C      1  0.5639060000000  0.4863840000000  0.5564740000000 1.0
C      1  0.5694040000000  0.4685150000000  0.5002740000000 1.0
C      1  0.4998330000000  0.4637190000000  0.4182100000000 1.0
C      1  0.5395330000000  0.5683340000000  0.5426170000000 1.0
C      1  0.4262520000000  0.4821630000000  0.4871410000000 1.0
C      1  0.4759910000000  0.4250190000000  0.4808370000000 1.0
C      1  0.4822460000000  0.4412100000000  0.4316080000000 1.0
C      1  0.5026350000000  0.4653100000000  0.5861420000000 1.0
C      1  0.5304950000000  0.4528030000000  0.5504480000000 1.0
C      1  0.4618740000000  0.4356200000000  0.5274100000000 1.0
C      1  0.5550410000000  0.4444860000000  0.5067090000000 1.0
C      1  0.4460130000000  0.5321520000000  0.5459020000000 1.0
C      1  0.5652450000000  0.5092270000000  0.4596060000000 1.0
C      1  0.5073480000000  0.5359080000000  0.4208670000000 1.0
C      1  0.4348400000000  0.4518100000000  0.4832060000000 1.0
C      1  0.5372050000000  0.5598320000000  0.5693790000000 1.0
C      1  0.4821870000000  0.5476690000000  0.4235630000000 1.0
C      1  0.4516440000000  0.5541190000000  0.4630720000000 1.0
C      1  0.5512700000000  0.5439100000000  0.5275690000000 1.0
C      1  0.4676800000000  0.5157830000000  0.5066720000000 1.0
C      1  0.4818070000000  0.5708670000000  0.5538390000000 1.0
C      1  0.5639770000000  0.5451840000000  0.4989760000000 1.0
C      1  0.5146670000000  0.5413260000000  0.5664820000000 1.0
C      1  0.4289510000000  0.5427150000000  0.5025600000000 1.0
C      1  0.5692820000000  0.5290300000000  0.5472480000000 1.0
C      1  0.5482000000000  0.5151690000000  0.4354280000000 1.0
C      1  0.4837350000000  0.4874070000000  0.4229370000000 1.0
C      1  0.5226430000000  0.5115100000000  0.5721360000000 1.0
C      1  0.4535870000000  0.4513650000000  0.4337870000000 1.0
C      1  0.5231090000000  0.5609130000000  0.4936830000000 1.0
C      1  0.4314850000000  0.5356860000000  0.4739250000000 1.0
C      1  0.5501070000000  0.5633350000000  0.4814030000000 1.0
C      1  0.5086230000000  0.4333500000000  0.5142590000000 1.0
C      1  0.4644220000000  0.4812460000000  0.4791280000000 1.0
C      1  0.5360650000000  0.4731530000000  0.4565780000000 1.0
C      1  0.4590110000000  0.4419210000000  0.4979200000000 1.0
C      1  0.4662290000000  0.5672030000000  0.4851040000000 1.0
C      1  0.4591460000000  0.5581400000000  0.5379430000000 1.0
C      1  0.5058340000000  0.5249260000000  0.4585800000000 1.0
C      1  0.4749830000000  0.4937460000000  0.5653840000000 1.0
C      1  0.5276650000000  0.5270260000000  0.5218910000000 1.0
C      1  0.5239050000000  0.5905370000000  0.4885700000000 1.0
C      1  0.4698250000000  0.5366520000000  0.5854220000000 1.0
C      1  0.5828940000000  0.4682800000000  0.4761570000000 1.0
C      1  0.4494650000000  0.4552440000000  0.5455210000000 1.0
C      1  0.5088980000000  0.4855490000000  0.4992650000000 1.0
C      1  0.4925430000000  0.4404260000000  0.4597850000000 1.0
C      1  0.5657070000000  0.4806470000000  0.4577070000000 1.0
C      1  0.4366630000000  0.5055330000000  0.4664980000000 1.0
C      1  0.4835570000000  0.5399620000000  0.5059070000000 1.0
C      1  0.5135000000000  0.4563950000000  0.4957800000000 1.0
C      1  0.5038370000000  0.4460180000000  0.5628030000000 1.0
C      1  0.5202150000000  0.4265930000000  0.4604350000000 1.0
C      1  0.5289740000000  0.4691440000000  0.4266620000000 1.0
C      1  0.5122710000000  0.4929550000000  0.4684590000000 1.0
C      1  0.5363030000000  0.4346060000000  0.5269840000000 1.0
C      1  0.4990460000000  0.4936180000000  0.5817060000000 1.0
C      1  0.4691850000000  0.4643240000000  0.5659340000000 1.0
C      1  0.5316400000000  0.4971620000000  0.5192490000000 1.0
C      1  0.4403790000000  0.5199490000000  0.5183430000000 1.0
C      1  0.4875220000000  0.4755530000000  0.4587430000000 1.0
C      1  0.4994830000000  0.5472440000000  0.4798900000000 1.0
C      1  0.5397070000000  0.4941350000000  0.4173990000000 1.0
C      1  0.4984370000000  0.4111780000000  0.4957060000000 1.0
C      1  0.5347690000000  0.4831540000000  0.5474300000000 1.0
C      1  0.5551240000000  0.5115970000000  0.5717720000000 1.0
C      1  0.4383380000000  0.5013430000000  0.4364540000000 1.0
C      1  0.4661720000000  0.5383030000000  0.4443380000000 1.0
C      1  0.4373900000000  0.4447980000000  0.4559060000000 1.0
C      1  0.5279150000000  0.5354610000000  0.4404530000000 1.0
C      1  0.4486240000000  0.5651950000000  0.5099530000000 1.0
C      1  0.4775160000000  0.4886030000000  0.5052460000000 1.0
C      1  0.5637050000000  0.5175500000000  0.4884350000000 1.0
C      1  0.4274820000000  0.4918320000000  0.5157960000000 1.0
C      1  0.4578080000000  0.5174810000000  0.5690150000000 1.0
C      1  0.5103350000000  0.5732640000000  0.5343650000000 1.0
C      1  0.5035190000000  0.5419830000000  0.5287840000000 1.0
C      1  0.5079840000000  0.5921650000000  0.5118060000000 1.0
END
