TITL C-3577085-527-550 5.30489699456663e-07 125000 -351.692521571693 0 0 58 (C1) n - 1
REM
REM in /home/bkarasulu/work/CARBON/AIRSS/Generating-Clusters/EDIP-Nigel-Params/with-SteepDescent/Higher-Symm/SD-CG/HFTN-CG
REM
REM
REM
REM
REM
REM ./C.cell (12c818d87b63d06a65506943cc24bca4)
REM
REM compiler GCC version 9.2.1 20190827 (Red Hat 9.2.1-1)
REM options -cpp -mtune=generic -march=x86-64 -g -O0 -fpre-include=/usr/include/finclude/math-vector-fortran.h
REM seed 2095877737 -1014894013 415249427 -950335571 935887850 -1012253539 -1093909222 858092568 829364075 -1060539089 -2078026346 1817252778 316346939 484963721 474017079 -2015882711 -40043930 -848081442 1798729855 -820813733 -779308317 1687439761 2038439570 1077274193 -1993737464 403511013 1143123142 1514855064 -173789697 582293131 810273356 -1204771937 539001882
REM
CELL 1.54180   50.00000   50.00000   50.00000   90.00000   90.00000   90.00000
LATT -1
SFAC C  
C      1  0.4591450000000  0.4380260000000  0.4931830000000 1.0
C      1  0.5779300000000  0.4942100000000  0.4946690000000 1.0
C      1  0.4575010000000  0.5596940000000  0.4929660000000 1.0
C      1  0.4787270000000  0.4986800000000  0.5576230000000 1.0
C      1  0.5141270000000  0.4821500000000  0.5575460000000 1.0
C      1  0.5107900000000  0.5210850000000  0.5583600000000 1.0
C      1  0.4909030000000  0.5222450000000  0.4903380000000 1.0
C      1  0.4879030000000  0.4780240000000  0.4899190000000 1.0
C      1  0.5273400000000  0.5055760000000  0.4893370000000 1.0
C      1  0.4693670000000  0.4602440000000  0.5069600000000 1.0
C      1  0.5522790000000  0.4953890000000  0.5076040000000 1.0
C      1  0.4810590000000  0.5489830000000  0.5054050000000 1.0
C      1  0.5532000000000  0.5031290000000  0.5368910000000 1.0
C      1  0.4750690000000  0.5437770000000  0.5348150000000 1.0
C      1  0.4770360000000  0.4550170000000  0.5359800000000 1.0
C      1  0.5203630000000  0.4319630000000  0.4739210000000 1.0
C      1  0.5503230000000  0.5522690000000  0.4773730000000 1.0
C      1  0.4257050000000  0.5124540000000  0.4720210000000 1.0
C      1  0.4672520000000  0.5348210000000  0.4483660000000 1.0
C      1  0.4850210000000  0.4596720000000  0.4495860000000 1.0
C      1  0.5428210000000  0.5088510000000  0.4489970000000 1.0
C      1  0.4145950000000  0.5340630000000  0.4911890000000 1.0
C      1  0.5116660000000  0.4120230000000  0.4933340000000 1.0
C      1  0.5717580000000  0.5535230000000  0.4973240000000 1.0
C      1  0.4370930000000  0.4822980000000  0.5344040000000 1.0
C      1  0.5491020000000  0.4549880000000  0.5338850000000 1.0
C      1  0.5179180000000  0.5659250000000  0.5377460000000 1.0
C      1  0.5050430000000  0.5676230000000  0.5028900000000 1.0
C      1  0.4421420000000  0.4724830000000  0.5052970000000 1.0
C      1  0.5544730000000  0.4646380000000  0.5047810000000 1.0
C      1  0.4612820000000  0.4745390000000  0.5513370000000 1.0
C      1  0.5436980000000  0.4793120000000  0.5511630000000 1.0
C      1  0.4986750000000  0.5480860000000  0.5514880000000 1.0
C      1  0.5434300000000  0.5528920000000  0.5391650000000 1.0
C      1  0.4362030000000  0.5119800000000  0.5358330000000 1.0
C      1  0.5248610000000  0.4384360000000  0.5364060000000 1.0
C      1  0.4947040000000  0.5300400000000  0.4446090000000 1.0
C      1  0.4766450000000  0.4866820000000  0.4479430000000 1.0
C      1  0.5218590000000  0.4902460000000  0.4482880000000 1.0
C      1  0.4730120000000  0.4987610000000  0.4762140000000 1.0
C      1  0.5161030000000  0.4804640000000  0.4770210000000 1.0
C      1  0.5115240000000  0.5315860000000  0.4700020000000 1.0
C      1  0.4641030000000  0.5176490000000  0.5405020000000 1.0
C      1  0.5052150000000  0.4589960000000  0.5416610000000 1.0
C      1  0.5360910000000  0.5254640000000  0.5436630000000 1.0
C      1  0.5208050000000  0.5584380000000  0.4793670000000 1.0
C      1  0.4458530000000  0.4965360000000  0.4868660000000 1.0
C      1  0.5319850000000  0.4573220000000  0.4850710000000 1.0
C      1  0.4942410000000  0.4344560000000  0.4590360000000 1.0
C      1  0.5575040000000  0.5267550000000  0.4649310000000 1.0
C      1  0.4397710000000  0.5361490000000  0.4548720000000 1.0
C      1  0.5644470000000  0.5602250000000  0.5227930000000 1.0
C      1  0.4209060000000  0.5267290000000  0.5175390000000 1.0
C      1  0.5206490000000  0.4172560000000  0.5187930000000 1.0
C      1  0.5798590000000  0.5194370000000  0.4820510000000 1.0
C      1  0.4338690000000  0.5551930000000  0.4783860000000 1.0
C      1  0.4777030000000  0.4212060000000  0.4796570000000 1.0
C      1  0.4979890000000  0.5021230000000  0.4354870000000 1.0
END
