TITL C-3578205-846-699 1.11737051928796e-06 125000 -537.04833811664 0 0 88 (C1) n - 1
REM
REM in /home/bkarasulu/work/CARBON/AIRSS/Generating-Clusters/EDIP-Nigel-Params/with-SteepDescent/Higher-Symm/SD-CG/HFTN-CG
REM
REM
REM
REM
REM
REM ./C.cell (12c818d87b63d06a65506943cc24bca4)
REM
REM compiler GCC version 9.2.1 20190827 (Red Hat 9.2.1-1)
REM options -cpp -mtune=generic -march=x86-64 -g -O0 -fpre-include=/usr/include/finclude/math-vector-fortran.h
REM seed -660166274 -216938955 -1661442572 1777380483 746805997 -609582295 -850390415 512148423 -289217480 -708117860 1423574929 -1890153605 599120753 71442241 -2089070213 -354010809 252467365 -1788808355 -1049570572 -665185624 1708828557 -213674985 -333394282 1768485121 1706249621 -135365688 1114210953 -1415360648 -1870268458 -1704480098 -1799143751 -671067895 1461656452
REM
CELL 1.54180   50.00000   50.00000   50.00000   90.00000   90.00000   90.00000
LATT -1
SFAC C  
C      1  0.4825790000000  0.4487510000000  0.4750760000000 1.0
C      1  0.4786690000000  0.5606500000000  0.4676060000000 1.0
C      1  0.4811740000000  0.4845490000000  0.4284090000000 1.0
C      1  0.4849930000000  0.5144310000000  0.4285880000000 1.0
C      1  0.5114390000000  0.5313820000000  0.5076210000000 1.0
C      1  0.5043790000000  0.4457750000000  0.4998840000000 1.0
C      1  0.5789490000000  0.4763830000000  0.4539510000000 1.0
C      1  0.5771830000000  0.5253120000000  0.4522960000000 1.0
C      1  0.4978340000000  0.4815190000000  0.5495660000000 1.0
C      1  0.4983990000000  0.5159170000000  0.5541540000000 1.0
C      1  0.5418560000000  0.5508810000000  0.4729710000000 1.0
C      1  0.5360930000000  0.4586320000000  0.4716280000000 1.0
C      1  0.4677700000000  0.5765830000000  0.5073470000000 1.0
C      1  0.4706030000000  0.4241720000000  0.5179450000000 1.0
C      1  0.4288750000000  0.4828900000000  0.5036100000000 1.0
C      1  0.4241610000000  0.5119750000000  0.4997610000000 1.0
C      1  0.5968100000000  0.4834540000000  0.5244560000000 1.0
C      1  0.5989120000000  0.5105980000000  0.5253400000000 1.0
C      1  0.4331300000000  0.5511260000000  0.5268720000000 1.0
C      1  0.4338370000000  0.4460430000000  0.5337810000000 1.0
C      1  0.5277220000000  0.4427900000000  0.5532350000000 1.0
C      1  0.5316610000000  0.5557510000000  0.5531110000000 1.0
C      1  0.4694220000000  0.4712660000000  0.5567100000000 1.0
C      1  0.4764670000000  0.5291980000000  0.5690380000000 1.0
C      1  0.5382520000000  0.4885560000000  0.4276670000000 1.0
C      1  0.5367330000000  0.5177800000000  0.4215100000000 1.0
C      1  0.5002150000000  0.5631650000000  0.4444200000000 1.0
C      1  0.5003890000000  0.4419670000000  0.4511730000000 1.0
C      1  0.4500010000000  0.4221780000000  0.4968620000000 1.0
C      1  0.4442600000000  0.5786200000000  0.4886380000000 1.0
C      1  0.5608850000000  0.5284850000000  0.4307650000000 1.0
C      1  0.5651090000000  0.4790390000000  0.4307890000000 1.0
C      1  0.5370010000000  0.4353870000000  0.5281210000000 1.0
C      1  0.5414260000000  0.5653290000000  0.5287880000000 1.0
C      1  0.4332820000000  0.4541750000000  0.4629900000000 1.0
C      1  0.4314150000000  0.5432780000000  0.4563060000000 1.0
C      1  0.5220990000000  0.5313740000000  0.4605370000000 1.0
C      1  0.5225090000000  0.4802360000000  0.4560580000000 1.0
C      1  0.5661030000000  0.5489060000000  0.5193870000000 1.0
C      1  0.5604560000000  0.4504940000000  0.5163620000000 1.0
C      1  0.5765100000000  0.4674940000000  0.5359880000000 1.0
C      1  0.5820730000000  0.5289140000000  0.5391290000000 1.0
C      1  0.4251470000000  0.4356630000000  0.5068750000000 1.0
C      1  0.4228250000000  0.5610190000000  0.5002910000000 1.0
C      1  0.5354610000000  0.5159960000000  0.5099040000000 1.0
C      1  0.5298270000000  0.4880340000000  0.5076280000000 1.0
C      1  0.4500970000000  0.5685840000000  0.4607810000000 1.0
C      1  0.4559320000000  0.4349770000000  0.4712290000000 1.0
C      1  0.4589020000000  0.4868910000000  0.5777910000000 1.0
C      1  0.4580980000000  0.5132110000000  0.5820480000000 1.0
C      1  0.4605720000000  0.4787660000000  0.4502420000000 1.0
C      1  0.4632470000000  0.5219350000000  0.4485310000000 1.0
C      1  0.5104740000000  0.5322020000000  0.4307580000000 1.0
C      1  0.5057080000000  0.4667540000000  0.4331560000000 1.0
C      1  0.4952240000000  0.4101800000000  0.5175900000000 1.0
C      1  0.4964870000000  0.5798940000000  0.4962110000000 1.0
C      1  0.4581700000000  0.5653160000000  0.5338400000000 1.0
C      1  0.4573520000000  0.4308070000000  0.5429070000000 1.0
C      1  0.5023270000000  0.5215710000000  0.4797940000000 1.0
C      1  0.5019400000000  0.4929710000000  0.4737560000000 1.0
C      1  0.5734380000000  0.4863480000000  0.4797360000000 1.0
C      1  0.5749460000000  0.5158240000000  0.4788090000000 1.0
C      1  0.5226840000000  0.4147290000000  0.5140030000000 1.0
C      1  0.5181650000000  0.5610660000000  0.5088540000000 1.0
C      1  0.4188910000000  0.4594450000000  0.4887440000000 1.0
C      1  0.4183230000000  0.5369300000000  0.4830540000000 1.0
C      1  0.5403600000000  0.4805930000000  0.5742860000000 1.0
C      1  0.5452620000000  0.5187600000000  0.5775170000000 1.0
C      1  0.5179860000000  0.4656380000000  0.5656260000000 1.0
C      1  0.5239380000000  0.5310450000000  0.5633090000000 1.0
C      1  0.5510550000000  0.4707130000000  0.4946700000000 1.0
C      1  0.5559930000000  0.5327580000000  0.4951770000000 1.0
C      1  0.4399310000000  0.5219870000000  0.5222900000000 1.0
C      1  0.4426450000000  0.4740330000000  0.5285760000000 1.0
C      1  0.4907990000000  0.5254300000000  0.5269720000000 1.0
C      1  0.5023160000000  0.4755640000000  0.5177000000000 1.0
C      1  0.5201230000000  0.5719160000000  0.4665410000000 1.0
C      1  0.5235510000000  0.4336750000000  0.4678680000000 1.0
C      1  0.4332770000000  0.4902020000000  0.4486940000000 1.0
C      1  0.4341760000000  0.5171980000000  0.4387670000000 1.0
C      1  0.4766160000000  0.4785170000000  0.4769190000000 1.0
C      1  0.4746930000000  0.5318380000000  0.4756950000000 1.0
C      1  0.5692660000000  0.5117770000000  0.5615290000000 1.0
C      1  0.5610740000000  0.4844850000000  0.5543850000000 1.0
C      1  0.4727200000000  0.4858790000000  0.5070520000000 1.0
C      1  0.4680070000000  0.5162790000000  0.5102540000000 1.0
C      1  0.4708150000000  0.4434950000000  0.5639850000000 1.0
C      1  0.4695220000000  0.5537030000000  0.5572110000000 1.0
END
