TITL C-3578205-846-696 3.09158819395638e-06 125000 -991.968511381256 0 0 159 (C1) n - 1
REM
REM in /home/bkarasulu/work/CARBON/AIRSS/Generating-Clusters/EDIP-Nigel-Params/with-SteepDescent/Higher-Symm/SD-CG/HFTN-CG
REM
REM
REM
REM
REM
REM ./C.cell (12c818d87b63d06a65506943cc24bca4)
REM
REM compiler GCC version 9.2.1 20190827 (Red Hat 9.2.1-1)
REM options -cpp -mtune=generic -march=x86-64 -g -O0 -fpre-include=/usr/include/finclude/math-vector-fortran.h
REM seed -10580966 -433357326 397714447 845570402 -184644783 -693569450 -421188161 -991734103 1792861761 996122995 309755560 1848595485 -1249645199 517007830 -1077382560 748139293 1022117646 209533808 1079837402 -958393261 375251882 2063689083 -1717863718 -46929276 227878424 212286747 -148574788 -972845907 -714981978 1771165289 1324802421 -1908216592 -1180925230
REM
CELL 1.54180   50.00000   50.00000   50.00000   90.00000   90.00000   90.00000
LATT -1
SFAC C  
C      1  0.5208920000000  0.4211690000000  0.4379710000000 1.0
C      1  0.5478630000000  0.4603760000000  0.5209270000000 1.0
C      1  0.5863010000000  0.5397990000000  0.4668960000000 1.0
C      1  0.4992620000000  0.4634170000000  0.5161050000000 1.0
C      1  0.5646600000000  0.5038540000000  0.4386600000000 1.0
C      1  0.4419510000000  0.5243610000000  0.4227700000000 1.0
C      1  0.4939620000000  0.4984000000000  0.4168170000000 1.0
C      1  0.3991270000000  0.5228350000000  0.4762980000000 1.0
C      1  0.5609170000000  0.5236380000000  0.4997370000000 1.0
C      1  0.4994240000000  0.5141410000000  0.6041010000000 1.0
C      1  0.4709570000000  0.5616960000000  0.4923240000000 1.0
C      1  0.5379460000000  0.5015850000000  0.3982970000000 1.0
C      1  0.5747090000000  0.4464860000000  0.4779700000000 1.0
C      1  0.4812520000000  0.6245930000000  0.4845320000000 1.0
C      1  0.4380040000000  0.4956840000000  0.4353960000000 1.0
C      1  0.5166880000000  0.4583690000000  0.4058950000000 1.0
C      1  0.4935460000000  0.6075270000000  0.4658340000000 1.0
C      1  0.4827950000000  0.5140260000000  0.5027130000000 1.0
C      1  0.4402460000000  0.4979270000000  0.5172540000000 1.0
C      1  0.4185550000000  0.4544580000000  0.4966200000000 1.0
C      1  0.4833680000000  0.4152080000000  0.4707620000000 1.0
C      1  0.5149710000000  0.4864450000000  0.4006010000000 1.0
C      1  0.5294780000000  0.5510670000000  0.5739400000000 1.0
C      1  0.4776970000000  0.3945330000000  0.5214270000000 1.0
C      1  0.5523780000000  0.4508360000000  0.4306580000000 1.0
C      1  0.3885930000000  0.4912090000000  0.5131140000000 1.0
C      1  0.5213690000000  0.4464330000000  0.5265310000000 1.0
C      1  0.4113830000000  0.4281270000000  0.5089760000000 1.0
C      1  0.5204740000000  0.5965860000000  0.4737970000000 1.0
C      1  0.4458440000000  0.4271150000000  0.5406510000000 1.0
C      1  0.5228510000000  0.4456660000000  0.5547340000000 1.0
C      1  0.5424750000000  0.5903990000000  0.5269280000000 1.0
C      1  0.4509170000000  0.4276270000000  0.4314720000000 1.0
C      1  0.4993410000000  0.5521610000000  0.5731800000000 1.0
C      1  0.5557020000000  0.4830860000000  0.5402310000000 1.0
C      1  0.4739580000000  0.4100320000000  0.4426750000000 1.0
C      1  0.4627950000000  0.5320560000000  0.4903770000000 1.0
C      1  0.5203430000000  0.4162550000000  0.5142680000000 1.0
C      1  0.5899320000000  0.4480500000000  0.5036160000000 1.0
C      1  0.4966110000000  0.4152360000000  0.4221080000000 1.0
C      1  0.4347020000000  0.4680390000000  0.5183260000000 1.0
C      1  0.5375910000000  0.5076460000000  0.5391010000000 1.0
C      1  0.4555860000000  0.5085140000000  0.5979680000000 1.0
C      1  0.5085340000000  0.4047330000000  0.4824080000000 1.0
C      1  0.6033790000000  0.5213520000000  0.4818070000000 1.0
C      1  0.5967890000000  0.5683760000000  0.5243540000000 1.0
C      1  0.4805240000000  0.4689910000000  0.6093230000000 1.0
C      1  0.5605820000000  0.4739250000000  0.5693280000000 1.0
C      1  0.5689550000000  0.4384650000000  0.5224230000000 1.0
C      1  0.5154440000000  0.5182790000000  0.4677480000000 1.0
C      1  0.4284380000000  0.4355930000000  0.4493960000000 1.0
C      1  0.4600730000000  0.5410980000000  0.5290250000000 1.0
C      1  0.5294680000000  0.5598540000000  0.4835480000000 1.0
C      1  0.4550870000000  0.5723830000000  0.5600150000000 1.0
C      1  0.5476840000000  0.4796730000000  0.4488200000000 1.0
C      1  0.4681880000000  0.4957120000000  0.4016960000000 1.0
C      1  0.5469590000000  0.4928300000000  0.5882890000000 1.0
C      1  0.5272810000000  0.5396460000000  0.4288640000000 1.0
C      1  0.5219840000000  0.5972870000000  0.5056490000000 1.0
C      1  0.4572880000000  0.5383320000000  0.5979190000000 1.0
C      1  0.4056930000000  0.5364270000000  0.5235360000000 1.0
C      1  0.4874970000000  0.5697310000000  0.4339780000000 1.0
C      1  0.6088850000000  0.5280300000000  0.5084110000000 1.0
C      1  0.5619370000000  0.5167920000000  0.5803530000000 1.0
C      1  0.5489320000000  0.5309500000000  0.5563160000000 1.0
C      1  0.4032400000000  0.4889100000000  0.5396030000000 1.0
C      1  0.4513960000000  0.4039120000000  0.5222200000000 1.0
C      1  0.4892570000000  0.4814420000000  0.5357580000000 1.0
C      1  0.5357290000000  0.5461350000000  0.6009470000000 1.0
C      1  0.5839760000000  0.4923570000000  0.5312660000000 1.0
C      1  0.5383450000000  0.5773750000000  0.5731010000000 1.0
C      1  0.5543960000000  0.4060640000000  0.4630620000000 1.0
C      1  0.4538530000000  0.5862260000000  0.4938480000000 1.0
C      1  0.4725040000000  0.6076150000000  0.5048110000000 1.0
C      1  0.5692560000000  0.4189060000000  0.4415240000000 1.0
C      1  0.5523420000000  0.4155070000000  0.5115210000000 1.0
C      1  0.4481220000000  0.4936060000000  0.4639740000000 1.0
C      1  0.5277050000000  0.4474500000000  0.4806250000000 1.0
C      1  0.5397610000000  0.4740360000000  0.4945730000000 1.0
C      1  0.5108960000000  0.5204110000000  0.4974150000000 1.0
C      1  0.5629710000000  0.5805310000000  0.4589510000000 1.0
C      1  0.5883520000000  0.5085050000000  0.5756500000000 1.0
C      1  0.4962940000000  0.4123520000000  0.5598230000000 1.0
C      1  0.4830270000000  0.4575170000000  0.4523810000000 1.0
C      1  0.4993630000000  0.5954850000000  0.5480280000000 1.0
C      1  0.3891060000000  0.5203610000000  0.5044800000000 1.0
C      1  0.4167780000000  0.5164410000000  0.5423210000000 1.0
C      1  0.4934790000000  0.4847820000000  0.4458650000000 1.0
C      1  0.5958660000000  0.4886780000000  0.5582990000000 1.0
C      1  0.5361430000000  0.5074230000000  0.5085890000000 1.0
C      1  0.3961420000000  0.4742360000000  0.4890980000000 1.0
C      1  0.4340690000000  0.4105240000000  0.4992690000000 1.0
C      1  0.5630980000000  0.4746000000000  0.4753870000000 1.0
C      1  0.4821330000000  0.5302940000000  0.4514300000000 1.0
C      1  0.5528940000000  0.5627180000000  0.5259140000000 1.0
C      1  0.4389510000000  0.4403260000000  0.4768860000000 1.0
C      1  0.5201630000000  0.4899300000000  0.4580820000000 1.0
C      1  0.4280490000000  0.5507940000000  0.5093490000000 1.0
C      1  0.5181610000000  0.5691840000000  0.4317210000000 1.0
C      1  0.5116890000000  0.5481830000000  0.5038600000000 1.0
C      1  0.4840940000000  0.4344090000000  0.5735920000000 1.0
C      1  0.4769240000000  0.4489600000000  0.5046850000000 1.0
C      1  0.5292470000000  0.5954700000000  0.5531060000000 1.0
C      1  0.5770410000000  0.5652550000000  0.4798170000000 1.0
C      1  0.5833190000000  0.5229060000000  0.5213870000000 1.0
C      1  0.5963300000000  0.5771400000000  0.4982940000000 1.0
C      1  0.4544590000000  0.4334050000000  0.5699470000000 1.0
C      1  0.4150710000000  0.4604290000000  0.5509090000000 1.0
C      1  0.5264410000000  0.3996760000000  0.4581580000000 1.0
C      1  0.4970450000000  0.4522990000000  0.5944820000000 1.0
C      1  0.4318430000000  0.5799040000000  0.5137470000000 1.0
C      1  0.4653200000000  0.4553470000000  0.4780970000000 1.0
C      1  0.5413800000000  0.4512300000000  0.5748430000000 1.0
C      1  0.4752200000000  0.5911290000000  0.4496530000000 1.0
C      1  0.4780370000000  0.4965810000000  0.6133430000000 1.0
C      1  0.5917930000000  0.4886350000000  0.4450250000000 1.0
C      1  0.4951160000000  0.5924320000000  0.5185970000000 1.0
C      1  0.5350270000000  0.5381900000000  0.4588380000000 1.0
C      1  0.5553590000000  0.5539930000000  0.4976900000000 1.0
C      1  0.4223210000000  0.5442500000000  0.4788230000000 1.0
C      1  0.5511600000000  0.4278590000000  0.4831160000000 1.0
C      1  0.5886400000000  0.4614670000000  0.4347280000000 1.0
C      1  0.4596370000000  0.4762600000000  0.5599730000000 1.0
C      1  0.4886340000000  0.5623690000000  0.5148070000000 1.0
C      1  0.4997380000000  0.5269050000000  0.4262390000000 1.0
C      1  0.4484150000000  0.5865970000000  0.4635260000000 1.0
C      1  0.5425740000000  0.4479840000000  0.4033020000000 1.0
C      1  0.4919200000000  0.4417520000000  0.4083680000000 1.0
C      1  0.4398650000000  0.5850030000000  0.5399790000000 1.0
C      1  0.5952200000000  0.4769580000000  0.5060060000000 1.0
C      1  0.4441930000000  0.5260160000000  0.5537330000000 1.0
C      1  0.5979090000000  0.4922460000000  0.4769480000000 1.0
C      1  0.4580490000000  0.5042400000000  0.5690320000000 1.0
C      1  0.4377920000000  0.5598010000000  0.4563770000000 1.0
C      1  0.4120540000000  0.4563890000000  0.4397310000000 1.0
C      1  0.4392210000000  0.5108140000000  0.4877680000000 1.0
C      1  0.4704680000000  0.5028790000000  0.5264170000000 1.0
C      1  0.4685880000000  0.4514690000000  0.4257410000000 1.0
C      1  0.4527850000000  0.4761050000000  0.4164200000000 1.0
C      1  0.4384020000000  0.4594440000000  0.5713150000000 1.0
C      1  0.5249470000000  0.4618800000000  0.5956490000000 1.0
C      1  0.5620380000000  0.5241910000000  0.4605090000000 1.0
C      1  0.5777290000000  0.5502450000000  0.5377880000000 1.0
C      1  0.4844760000000  0.5747910000000  0.5628320000000 1.0
C      1  0.4157820000000  0.4320390000000  0.5380850000000 1.0
C      1  0.5882460000000  0.4384840000000  0.4522430000000 1.0
C      1  0.4879690000000  0.5411190000000  0.5976550000000 1.0
C      1  0.5488960000000  0.5192700000000  0.4163920000000 1.0
C      1  0.5364330000000  0.5865190000000  0.4498670000000 1.0
C      1  0.4581100000000  0.4529320000000  0.5284270000000 1.0
C      1  0.4038280000000  0.4939350000000  0.4682390000000 1.0
C      1  0.4426260000000  0.5488480000000  0.5733590000000 1.0
C      1  0.4535100000000  0.5194540000000  0.3977090000000 1.0
C      1  0.5086660000000  0.4407820000000  0.4581620000000 1.0
C      1  0.4577190000000  0.5461860000000  0.4380030000000 1.0
C      1  0.5199560000000  0.5293690000000  0.6170420000000 1.0
C      1  0.4754050000000  0.5017730000000  0.4609020000000 1.0
C      1  0.4108870000000  0.4844700000000  0.4411340000000 1.0
C      1  0.5016060000000  0.4015760000000  0.5340480000000 1.0
END
