TITL C-3577083-591-35 -7.87513252318217e-07 125000 -549.025692684251 0 0 89 (C1) n - 1
REM
REM in /home/bkarasulu/work/CARBON/AIRSS/Generating-Clusters/EDIP-Nigel-Params/with-SteepDescent/Higher-Symm/SD-CG/HFTN-CG
REM
REM
REM
REM
REM
REM ./C.cell (12c818d87b63d06a65506943cc24bca4)
REM
REM compiler GCC version 9.2.1 20190827 (Red Hat 9.2.1-1)
REM options -cpp -mtune=generic -march=x86-64 -g -O0 -fpre-include=/usr/include/finclude/math-vector-fortran.h
REM seed -399820417 308963516 371162805 -2012219129 1004041375 -43306374 548217763 1222227733 1257171535 -1796771337 918887346 -413285085 -1388334938 1119784460 54637989 48360329 350601684 1770541129 1392886899 -687610527 2002395892 525269207 -930575601 -676585638 -1892264004 337398492 99503965 300190702 661401280 -1042071157 -1449649925 1435871597 366504386
REM
CELL 1.54180   50.00000   50.00000   50.00000   90.00000   90.00000   90.00000
LATT -1
SFAC C  
C      1  0.4342310000000  0.4685070000000  0.5382780000000 1.0
C      1  0.4680820000000  0.5381450000000  0.4309170000000 1.0
C      1  0.5421370000000  0.4256920000000  0.4701330000000 1.0
C      1  0.5651410000000  0.5293360000000  0.5392480000000 1.0
C      1  0.4289490000000  0.5273160000000  0.4572680000000 1.0
C      1  0.5692090000000  0.4650200000000  0.4573270000000 1.0
C      1  0.5298490000000  0.4541580000000  0.4301250000000 1.0
C      1  0.4724850000000  0.4583880000000  0.5671750000000 1.0
C      1  0.5300670000000  0.5434800000000  0.5727940000000 1.0
C      1  0.4574810000000  0.5662660000000  0.4694260000000 1.0
C      1  0.5399280000000  0.5700830000000  0.5312760000000 1.0
C      1  0.4615000000000  0.4276020000000  0.5285420000000 1.0
C      1  0.5281270000000  0.4971250000000  0.5172750000000 1.0
C      1  0.5045020000000  0.5352410000000  0.5361430000000 1.0
C      1  0.5236040000000  0.5280530000000  0.5138520000000 1.0
C      1  0.4735640000000  0.5064840000000  0.5222640000000 1.0
C      1  0.5255200000000  0.4845450000000  0.4676390000000 1.0
C      1  0.4715870000000  0.5031190000000  0.4666240000000 1.0
C      1  0.4930490000000  0.4757140000000  0.5320590000000 1.0
C      1  0.4955800000000  0.4804680000000  0.4592530000000 1.0
C      1  0.4852740000000  0.5277830000000  0.4756760000000 1.0
C      1  0.4734290000000  0.4653190000000  0.5066990000000 1.0
C      1  0.5320640000000  0.4671600000000  0.4918450000000 1.0
C      1  0.4812870000000  0.5342530000000  0.5042240000000 1.0
C      1  0.4234860000000  0.5509360000000  0.5016000000000 1.0
C      1  0.5483960000000  0.4992060000000  0.4280600000000 1.0
C      1  0.5057420000000  0.4259250000000  0.5506910000000 1.0
C      1  0.5736860000000  0.4449010000000  0.5032680000000 1.0
C      1  0.4312200000000  0.4460120000000  0.4948390000000 1.0
C      1  0.5639370000000  0.5463480000000  0.4945620000000 1.0
C      1  0.4448830000000  0.4947840000000  0.4238400000000 1.0
C      1  0.5522820000000  0.4979540000000  0.5745960000000 1.0
C      1  0.4496470000000  0.5021080000000  0.5688660000000 1.0
C      1  0.4952550000000  0.5760060000000  0.5550520000000 1.0
C      1  0.5011430000000  0.5681890000000  0.4499360000000 1.0
C      1  0.4972420000000  0.4224610000000  0.4483290000000 1.0
C      1  0.4393910000000  0.5342160000000  0.5179860000000 1.0
C      1  0.5299070000000  0.5200990000000  0.4324940000000 1.0
C      1  0.5209720000000  0.4418520000000  0.5329320000000 1.0
C      1  0.5645750000000  0.4646050000000  0.5216060000000 1.0
C      1  0.4412470000000  0.4645790000000  0.4759550000000 1.0
C      1  0.5578050000000  0.5280040000000  0.4742980000000 1.0
C      1  0.4635150000000  0.4746010000000  0.4293910000000 1.0
C      1  0.5349660000000  0.4827540000000  0.5581450000000 1.0
C      1  0.4662940000000  0.5235270000000  0.5619600000000 1.0
C      1  0.4754780000000  0.5680530000000  0.5361740000000 1.0
C      1  0.5210080000000  0.5593840000000  0.4672560000000 1.0
C      1  0.4847490000000  0.4434150000000  0.4640890000000 1.0
C      1  0.4862880000000  0.5316180000000  0.4112210000000 1.0
C      1  0.5282270000000  0.4157310000000  0.4923460000000 1.0
C      1  0.4214710000000  0.4905420000000  0.5279450000000 1.0
C      1  0.5087890000000  0.4627670000000  0.4142780000000 1.0
C      1  0.4931850000000  0.4715200000000  0.5810310000000 1.0
C      1  0.5088080000000  0.5296300000000  0.5850640000000 1.0
C      1  0.4667850000000  0.5821830000000  0.4899950000000 1.0
C      1  0.5295350000000  0.5843090000000  0.5095240000000 1.0
C      1  0.4746710000000  0.4162300000000  0.5061030000000 1.0
C      1  0.5801940000000  0.5092720000000  0.5280140000000 1.0
C      1  0.4180700000000  0.5056270000000  0.4708640000000 1.0
C      1  0.5829900000000  0.4868170000000  0.4682540000000 1.0
C      1  0.5028730000000  0.5119940000000  0.4221850000000 1.0
C      1  0.5166900000000  0.4407710000000  0.5030930000000 1.0
C      1  0.4426460000000  0.5038740000000  0.5127950000000 1.0
C      1  0.4933460000000  0.4826900000000  0.4284130000000 1.0
C      1  0.5050730000000  0.4872640000000  0.5592000000000 1.0
C      1  0.4959930000000  0.5177260000000  0.5612100000000 1.0
C      1  0.4835330000000  0.5657560000000  0.5070020000000 1.0
C      1  0.5144740000000  0.5627080000000  0.4970200000000 1.0
C      1  0.4871640000000  0.4405640000000  0.4947240000000 1.0
C      1  0.5608990000000  0.4933920000000  0.5130360000000 1.0
C      1  0.4425720000000  0.4938970000000  0.4826410000000 1.0
C      1  0.5604300000000  0.4992160000000  0.4818700000000 1.0
C      1  0.5504960000000  0.5239160000000  0.5636980000000 1.0
C      1  0.5181350000000  0.5591260000000  0.5497450000000 1.0
C      1  0.5497330000000  0.5440680000000  0.5194120000000 1.0
C      1  0.4502170000000  0.4754120000000  0.5607850000000 1.0
C      1  0.5440550000000  0.4758630000000  0.4443200000000 1.0
C      1  0.4526030000000  0.5156010000000  0.4425760000000 1.0
C      1  0.4800370000000  0.4370340000000  0.5490740000000 1.0
C      1  0.5239800000000  0.4314190000000  0.4474620000000 1.0
C      1  0.4788030000000  0.5508470000000  0.4560250000000 1.0
C      1  0.4475800000000  0.4517040000000  0.5179980000000 1.0
C      1  0.5565680000000  0.4499230000000  0.4803560000000 1.0
C      1  0.4354130000000  0.5488240000000  0.4762140000000 1.0
C      1  0.4590260000000  0.4560580000000  0.4533660000000 1.0
C      1  0.5337940000000  0.5341400000000  0.4589880000000 1.0
C      1  0.4576970000000  0.5436140000000  0.5407520000000 1.0
C      1  0.5436470000000  0.4588190000000  0.5423630000000 1.0
C      1  0.4988280000000  0.4942490000000  0.5006040000000 1.0
END
