TITL C-3577077-324-90 2.9743695828461e-06 125000 -795.254520904934 0 0 126 (C2) n - 1
REM
REM in /home/bkarasulu/work/CARBON/AIRSS/Generating-Clusters/EDIP-Nigel-Params/with-SteepDescent/Higher-Symm/SD-CG/HFTN-CG
REM
REM
REM
REM
REM
REM ./C.cell (12c818d87b63d06a65506943cc24bca4)
REM
REM compiler GCC version 9.2.1 20190827 (Red Hat 9.2.1-1)
REM options -cpp -mtune=generic -march=x86-64 -g -O0 -fpre-include=/usr/include/finclude/math-vector-fortran.h
REM seed 239399726 1887634680 -798326143 -1501585620 1842337900 -8574370 -531166278 -758435252 236639632 1220666681 1879755823 -1847933306 -1917044780 771004982 957317173 1574012209 1271324046 1928186995 1880140705 -688927682 703546430 -1349430171 -1822099020 -799400354 1311811356 1744905260 1012012952 505727925 -887109221 -1727490804 336069423 -488588073 -1765800689
REM
CELL 1.54180   50.00000   50.00000   50.00000   90.00000   90.00000   90.00000
LATT -1
SFAC C  
C      1  0.4235790000000  0.4902210000000  0.4430330000000 1.0
C      1  0.4243780000000  0.5108260000000  0.5572100000000 1.0
C      1  0.5753110000000  0.5107030000000  0.4406070000000 1.0
C      1  0.5756140000000  0.4881760000000  0.5588750000000 1.0
C      1  0.5223490000000  0.5969600000000  0.5191700000000 1.0
C      1  0.5207540000000  0.4027650000000  0.4806660000000 1.0
C      1  0.4771320000000  0.4066160000000  0.5167760000000 1.0
C      1  0.4784380000000  0.5938820000000  0.4833630000000 1.0
C      1  0.4657120000000  0.4839950000000  0.4827760000000 1.0
C      1  0.4659550000000  0.5161990000000  0.5172940000000 1.0
C      1  0.5321650000000  0.5146930000000  0.4821920000000 1.0
C      1  0.5320940000000  0.4848080000000  0.5175860000000 1.0
C      1  0.5346950000000  0.5175380000000  0.5806300000000 1.0
C      1  0.5337960000000  0.4819820000000  0.4191510000000 1.0
C      1  0.4696870000000  0.4881310000000  0.5757430000000 1.0
C      1  0.4692390000000  0.5123830000000  0.4244580000000 1.0
C      1  0.5133710000000  0.5275950000000  0.5027280000000 1.0
C      1  0.5130050000000  0.4721350000000  0.4971920000000 1.0
C      1  0.4840560000000  0.4708960000000  0.5056110000000 1.0
C      1  0.4843790000000  0.5291140000000  0.4945340000000 1.0
C      1  0.4368000000000  0.5466660000000  0.4763070000000 1.0
C      1  0.4362670000000  0.4547640000000  0.5239580000000 1.0
C      1  0.5631490000000  0.4519420000000  0.4721180000000 1.0
C      1  0.5640390000000  0.5471100000000  0.5274370000000 1.0
C      1  0.5513630000000  0.4372770000000  0.5442430000000 1.0
C      1  0.5519710000000  0.5619540000000  0.4554040000000 1.0
C      1  0.4503030000000  0.5572390000000  0.5482200000000 1.0
C      1  0.4490590000000  0.4434270000000  0.4519990000000 1.0
C      1  0.4131400000000  0.4621260000000  0.4827100000000 1.0
C      1  0.4137910000000  0.5393330000000  0.5179660000000 1.0
C      1  0.5847140000000  0.5374990000000  0.4846470000000 1.0
C      1  0.5842690000000  0.4612440000000  0.5147600000000 1.0
C      1  0.5539910000000  0.4909970000000  0.5779260000000 1.0
C      1  0.5535100000000  0.5082000000000  0.4217160000000 1.0
C      1  0.4459940000000  0.5067000000000  0.5747560000000 1.0
C      1  0.4452450000000  0.4941750000000  0.4254820000000 1.0
C      1  0.4851530000000  0.4231030000000  0.5703770000000 1.0
C      1  0.4858330000000  0.5771850000000  0.4297250000000 1.0
C      1  0.5167150000000  0.5834220000000  0.5737620000000 1.0
C      1  0.5149530000000  0.4163930000000  0.4261070000000 1.0
C      1  0.5501110000000  0.4252200000000  0.5167710000000 1.0
C      1  0.5510960000000  0.5740290000000  0.4828800000000 1.0
C      1  0.4521900000000  0.5694730000000  0.5206910000000 1.0
C      1  0.4510160000000  0.4313490000000  0.4795740000000 1.0
C      1  0.5143220000000  0.5084950000000  0.5266680000000 1.0
C      1  0.5140210000000  0.4912330000000  0.4732240000000 1.0
C      1  0.4853990000000  0.4945140000000  0.5263170000000 1.0
C      1  0.4852780000000  0.5055670000000  0.4737320000000 1.0
C      1  0.4941260000000  0.4091340000000  0.4708220000000 1.0
C      1  0.4956980000000  0.5909680000000  0.5291910000000 1.0
C      1  0.5055210000000  0.5908690000000  0.4734530000000 1.0
C      1  0.5043250000000  0.4091360000000  0.5265000000000 1.0
C      1  0.5397740000000  0.5785720000000  0.5556450000000 1.0
C      1  0.5382170000000  0.4208570000000  0.4440610000000 1.0
C      1  0.4620610000000  0.4281340000000  0.5525000000000 1.0
C      1  0.4628100000000  0.5725150000000  0.4477910000000 1.0
C      1  0.5768270000000  0.5209990000000  0.5294000000000 1.0
C      1  0.5763080000000  0.4778570000000  0.4700640000000 1.0
C      1  0.4188110000000  0.4776660000000  0.5284620000000 1.0
C      1  0.4204080000000  0.5226770000000  0.4728140000000 1.0
C      1  0.5335150000000  0.5732690000000  0.4338230000000 1.0
C      1  0.5328650000000  0.4262590000000  0.5659420000000 1.0
C      1  0.4676330000000  0.4284200000000  0.4310240000000 1.0
C      1  0.4691860000000  0.5720190000000  0.5691350000000 1.0
C      1  0.5333930000000  0.4570640000000  0.4035570000000 1.0
C      1  0.5347300000000  0.5424940000000  0.5961780000000 1.0
C      1  0.4736540000000  0.5348820000000  0.4063880000000 1.0
C      1  0.4738110000000  0.4655800000000  0.5938210000000 1.0
C      1  0.5899520000000  0.5147230000000  0.5037070000000 1.0
C      1  0.5896960000000  0.4839440000000  0.4956620000000 1.0
C      1  0.4070080000000  0.4848300000000  0.5028580000000 1.0
C      1  0.4073420000000  0.5163620000000  0.4983490000000 1.0
C      1  0.5093340000000  0.5857280000000  0.4450370000000 1.0
C      1  0.5084080000000  0.4142080000000  0.5548880000000 1.0
C      1  0.4901590000000  0.4126490000000  0.4422290000000 1.0
C      1  0.4918530000000  0.5875290000000  0.5578110000000 1.0
C      1  0.4080440000000  0.4887610000000  0.5518740000000 1.0
C      1  0.4081200000000  0.5127090000000  0.4493010000000 1.0
C      1  0.5894300000000  0.5115980000000  0.5525810000000 1.0
C      1  0.5888530000000  0.4870910000000  0.4467850000000 1.0
C      1  0.5392580000000  0.5518940000000  0.5429030000000 1.0
C      1  0.5381970000000  0.4475310000000  0.4568150000000 1.0
C      1  0.4644680000000  0.4530600000000  0.5344070000000 1.0
C      1  0.4650340000000  0.5476320000000  0.4659500000000 1.0
C      1  0.4864560000000  0.5525120000000  0.5846100000000 1.0
C      1  0.4850360000000  0.4477050000000  0.4154220000000 1.0
C      1  0.5231670000000  0.4480510000000  0.5846420000000 1.0
C      1  0.5233380000000  0.5516290000000  0.4152020000000 1.0
C      1  0.4738400000000  0.5865650000000  0.5112340000000 1.0
C      1  0.4724800000000  0.4139690000000  0.4889270000000 1.0
C      1  0.5260300000000  0.4113050000000  0.5079220000000 1.0
C      1  0.5273100000000  0.5883420000000  0.4918840000000 1.0
C      1  0.4564180000000  0.4059030000000  0.5359030000000 1.0
C      1  0.4576050000000  0.5948770000000  0.4643680000000 1.0
C      1  0.5437260000000  0.5997990000000  0.5374000000000 1.0
C      1  0.5419500000000  0.3995680000000  0.4622830000000 1.0
C      1  0.5139080000000  0.5009510000000  0.5934910000000 1.0
C      1  0.5131520000000  0.4988740000000  0.4064670000000 1.0
C      1  0.4894560000000  0.5081460000000  0.5830100000000 1.0
C      1  0.4886480000000  0.4920390000000  0.4170610000000 1.0
C      1  0.4894110000000  0.4695460000000  0.4349440000000 1.0
C      1  0.4904640000000  0.5305970000000  0.5650770000000 1.0
C      1  0.5293010000000  0.5253930000000  0.4290020000000 1.0
C      1  0.5294600000000  0.4741950000000  0.5708080000000 1.0
C      1  0.4324170000000  0.5567240000000  0.5036190000000 1.0
C      1  0.4317940000000  0.4447190000000  0.4967680000000 1.0
C      1  0.5663410000000  0.4432240000000  0.5002130000000 1.0
C      1  0.5671630000000  0.5557810000000  0.4993230000000 1.0
C      1  0.4747940000000  0.5222770000000  0.4518860000000 1.0
C      1  0.4749450000000  0.4781080000000  0.5483300000000 1.0
C      1  0.5214390000000  0.4723230000000  0.4469720000000 1.0
C      1  0.5222480000000  0.5273330000000  0.5528870000000 1.0
C      1  0.4637140000000  0.5285670000000  0.5479580000000 1.0
C      1  0.4627400000000  0.4719570000000  0.4521350000000 1.0
C      1  0.5402940000000  0.4672080000000  0.5429080000000 1.0
C      1  0.5404270000000  0.5322050000000  0.4568260000000 1.0
C      1  0.5118740000000  0.4379810000000  0.4058420000000 1.0
C      1  0.5134660000000  0.5618790000000  0.5940510000000 1.0
C      1  0.4932700000000  0.5554490000000  0.4110600000000 1.0
C      1  0.4930680000000  0.4447050000000  0.5890040000000 1.0
C      1  0.5790870000000  0.5373850000000  0.4550660000000 1.0
C      1  0.5788770000000  0.4614430000000  0.5443830000000 1.0
C      1  0.4200360000000  0.4630830000000  0.4538440000000 1.0
C      1  0.4211150000000  0.5381170000000  0.5466870000000 1.0
C      1  0.5540800000000  0.4995990000000  0.4998110000000 1.0
C      1  0.4429600000000  0.5000910000000  0.4999680000000 1.0
END
