TITL C-3578196-9646-80 -4.57059067988499e-06 125000 -419.835874127696 0 0 70 (C1) n - 1
REM
REM in /home/bkarasulu/work/CARBON/AIRSS/Generating-Clusters/EDIP-Nigel-Params/with-SteepDescent/Higher-Symm/SD-CG/HFTN-CG
REM
REM
REM
REM
REM
REM ./C.cell (12c818d87b63d06a65506943cc24bca4)
REM
REM compiler GCC version 9.2.1 20190827 (Red Hat 9.2.1-1)
REM options -cpp -mtune=generic -march=x86-64 -g -O0 -fpre-include=/usr/include/finclude/math-vector-fortran.h
REM seed 947909035 1717558636 238517666 19400487 1264101483 -1694160324 1885699212 -888480787 1769363208 1191015407 -371316977 -302112591 -814726448 -505332418 731257998 1466385023 2013347020 1802165795 648233666 -799010276 -1950090129 1878770260 -357501920 -684840504 -1083883481 -77783296 -135962965 1588102466 -1059060363 -1605169758 -2050036947 -758805362 -125335725
REM
CELL 1.54180   50.00000   50.00000   50.00000   90.00000   90.00000   90.00000
LATT -1
SFAC C  
C      1  0.5591980000000  0.4396960000000  0.4941700000000 1.0
C      1  0.5424750000000  0.4374170000000  0.5419610000000 1.0
C      1  0.4938240000000  0.4394310000000  0.5599270000000 1.0
C      1  0.4497890000000  0.4378880000000  0.5328270000000 1.0
C      1  0.4431780000000  0.4395430000000  0.4818520000000 1.0
C      1  0.4792680000000  0.4374090000000  0.4440950000000 1.0
C      1  0.5296850000000  0.4393790000000  0.4485320000000 1.0
C      1  0.4714350000000  0.4225300000000  0.5188390000000 1.0
C      1  0.4689810000000  0.4306950000000  0.4902120000000 1.0
C      1  0.4879090000000  0.4222480000000  0.4684820000000 1.0
C      1  0.5174780000000  0.4277070000000  0.4713130000000 1.0
C      1  0.5326650000000  0.4299680000000  0.4964950000000 1.0
C      1  0.5238140000000  0.4221860000000  0.5241090000000 1.0
C      1  0.4964690000000  0.4307900000000  0.5328570000000 1.0
C      1  0.5675110000000  0.5106250000000  0.5221810000000 1.0
C      1  0.5247640000000  0.5107430000000  0.5662860000000 1.0
C      1  0.4637020000000  0.5111230000000  0.5606970000000 1.0
C      1  0.4298360000000  0.5112500000000  0.5092650000000 1.0
C      1  0.4488690000000  0.5109610000000  0.4509420000000 1.0
C      1  0.5063410000000  0.5107160000000  0.4291650000000 1.0
C      1  0.5593900000000  0.5115510000000  0.4608820000000 1.0
C      1  0.5330280000000  0.5157290000000  0.4957230000000 1.0
C      1  0.5231740000000  0.5093350000000  0.5220020000000 1.0
C      1  0.4971200000000  0.5155520000000  0.5325680000000 1.0
C      1  0.4733230000000  0.5097590000000  0.5174930000000 1.0
C      1  0.4688720000000  0.5156850000000  0.4896880000000 1.0
C      1  0.4888930000000  0.5094620000000  0.4699330000000 1.0
C      1  0.5169730000000  0.5156250000000  0.4713220000000 1.0
C      1  0.4463940000000  0.5384740000000  0.4481620000000 1.0
C      1  0.5065210000000  0.5383620000000  0.4260890000000 1.0
C      1  0.5617910000000  0.5391290000000  0.4593180000000 1.0
C      1  0.5704770000000  0.5382560000000  0.5233300000000 1.0
C      1  0.5263530000000  0.5382440000000  0.5697500000000 1.0
C      1  0.4616640000000  0.5386440000000  0.5637100000000 1.0
C      1  0.4263130000000  0.5387750000000  0.5100310000000 1.0
C      1  0.4728810000000  0.4653870000000  0.5176960000000 1.0
C      1  0.4685570000000  0.4759430000000  0.4898180000000 1.0
C      1  0.4883790000000  0.4651290000000  0.4699420000000 1.0
C      1  0.5167260000000  0.4756650000000  0.4707760000000 1.0
C      1  0.5332640000000  0.4757710000000  0.4958200000000 1.0
C      1  0.5229350000000  0.4649260000000  0.5221690000000 1.0
C      1  0.4968270000000  0.4758230000000  0.5326260000000 1.0
C      1  0.5508550000000  0.5633750000000  0.4665790000000 1.0
C      1  0.5581420000000  0.5626660000000  0.5193170000000 1.0
C      1  0.5216780000000  0.5626660000000  0.5577630000000 1.0
C      1  0.4687050000000  0.5628480000000  0.5524640000000 1.0
C      1  0.4395020000000  0.5629410000000  0.5080540000000 1.0
C      1  0.4556030000000  0.5628430000000  0.4572850000000 1.0
C      1  0.5053380000000  0.5627710000000  0.4390140000000 1.0
C      1  0.5620280000000  0.4678420000000  0.4911300000000 1.0
C      1  0.5445780000000  0.4677400000000  0.5433120000000 1.0
C      1  0.4941090000000  0.4679770000000  0.5615510000000 1.0
C      1  0.4476290000000  0.4683190000000  0.5343430000000 1.0
C      1  0.4408550000000  0.4680680000000  0.4808530000000 1.0
C      1  0.4776040000000  0.4677410000000  0.4416520000000 1.0
C      1  0.5324570000000  0.4676090000000  0.4462790000000 1.0
C      1  0.5276730000000  0.5705140000000  0.4533410000000 1.0
C      1  0.5538310000000  0.5704230000000  0.4931360000000 1.0
C      1  0.5397510000000  0.5703810000000  0.5383920000000 1.0
C      1  0.4952500000000  0.5701350000000  0.5547590000000 1.0
C      1  0.4548450000000  0.5703640000000  0.5297870000000 1.0
C      1  0.4479460000000  0.5702360000000  0.4827820000000 1.0
C      1  0.4805540000000  0.5705240000000  0.4483500000000 1.0
C      1  0.5433810000000  0.4996930000000  0.5417540000000 1.0
C      1  0.4937490000000  0.4996430000000  0.5678390000000 1.0
C      1  0.4496110000000  0.5002970000000  0.5330910000000 1.0
C      1  0.4350890000000  0.4998860000000  0.4787830000000 1.0
C      1  0.4787480000000  0.4998110000000  0.4435220000000 1.0
C      1  0.5353560000000  0.4995590000000  0.4410120000000 1.0
C      1  0.5680840000000  0.4995980000000  0.4907990000000 1.0
END
