TITL C-3578197-9521-301 -4.94566097423663e-06 125000 -775.305823592604 0 0 127 (C1) n - 1
REM
REM in /home/bkarasulu/work/CARBON/AIRSS/Generating-Clusters/EDIP-Nigel-Params/with-SteepDescent/Higher-Symm/SD-CG/HFTN-CG
REM
REM
REM
REM
REM
REM ./C.cell (12c818d87b63d06a65506943cc24bca4)
REM
REM compiler GCC version 9.2.1 20190827 (Red Hat 9.2.1-1)
REM options -cpp -mtune=generic -march=x86-64 -g -O0 -fpre-include=/usr/include/finclude/math-vector-fortran.h
REM seed 801197594 -1460566912 909632171 -893683582 -979425280 1923452188 -466786764 -1360486512 -2144524420 1108395506 973274120 -1838863840 -491191530 1313860854 1232505122 -332389935 1418009852 2020318275 650645977 481416299 1875447320 950522501 -466705195 -864036291 1547710376 580310587 574882772 417411364 645933635 -1637260276 1863298271 -158581634 -1660102009
REM
CELL 1.54180   50.00000   50.00000   50.00000   90.00000   90.00000   90.00000
LATT -1
SFAC C  
C      1  0.4370280000000  0.4801480000000  0.4605370000000 1.0
C      1  0.4394650000000  0.5320450000000  0.4669640000000 1.0
C      1  0.4398310000000  0.5398130000000  0.5192110000000 1.0
C      1  0.4417470000000  0.4926740000000  0.5454550000000 1.0
C      1  0.4372330000000  0.4567360000000  0.5073530000000 1.0
C      1  0.5108130000000  0.5213490000000  0.5068260000000 1.0
C      1  0.5163590000000  0.5001720000000  0.5256040000000 1.0
C      1  0.5178030000000  0.4743000000000  0.5070770000000 1.0
C      1  0.5133490000000  0.4828570000000  0.4780090000000 1.0
C      1  0.5116410000000  0.5128090000000  0.4791960000000 1.0
C      1  0.4747510000000  0.5733660000000  0.5658540000000 1.0
C      1  0.4897970000000  0.4479270000000  0.5883680000000 1.0
C      1  0.4748220000000  0.4036690000000  0.4849550000000 1.0
C      1  0.4722060000000  0.4850870000000  0.4009570000000 1.0
C      1  0.4820820000000  0.5864300000000  0.4528920000000 1.0
C      1  0.5069090000000  0.4881720000000  0.5816040000000 1.0
C      1  0.5124210000000  0.4183050000000  0.5041550000000 1.0
C      1  0.5139590000000  0.4623100000000  0.4189400000000 1.0
C      1  0.5144340000000  0.5594720000000  0.4395250000000 1.0
C      1  0.5152390000000  0.5643700000000  0.5391500000000 1.0
C      1  0.4554290000000  0.5297190000000  0.5666550000000 1.0
C      1  0.4583890000000  0.4443180000000  0.5494520000000 1.0
C      1  0.4514310000000  0.4378880000000  0.4618700000000 1.0
C      1  0.4517010000000  0.5185210000000  0.4264440000000 1.0
C      1  0.4550760000000  0.5734090000000  0.4910630000000 1.0
C      1  0.4178370000000  0.5139180000000  0.4592560000000 1.0
C      1  0.4193970000000  0.5428640000000  0.4987330000000 1.0
C      1  0.4204540000000  0.5117940000000  0.5387920000000 1.0
C      1  0.4196510000000  0.4646910000000  0.5292910000000 1.0
C      1  0.4162220000000  0.4667810000000  0.4762540000000 1.0
C      1  0.4663510000000  0.5956160000000  0.4757490000000 1.0
C      1  0.4598790000000  0.5550560000000  0.5849590000000 1.0
C      1  0.4687010000000  0.4318840000000  0.5752020000000 1.0
C      1  0.4600000000000  0.4098490000000  0.4600020000000 1.0
C      1  0.4597520000000  0.5119040000000  0.3990840000000 1.0
C      1  0.5438240000000  0.5091830000000  0.5386300000000 1.0
C      1  0.5435660000000  0.4558160000000  0.5051050000000 1.0
C      1  0.5369260000000  0.4767530000000  0.4595640000000 1.0
C      1  0.5361660000000  0.5265400000000  0.4707750000000 1.0
C      1  0.5588890000000  0.5467850000000  0.5233530000000 1.0
C      1  0.4659890000000  0.4766330000000  0.4286220000000 1.0
C      1  0.4731410000000  0.5572720000000  0.4541780000000 1.0
C      1  0.4711500000000  0.5636250000000  0.5371710000000 1.0
C      1  0.4781090000000  0.4821350000000  0.5751000000000 1.0
C      1  0.4698620000000  0.4288260000000  0.5011870000000 1.0
C      1  0.5034060000000  0.5189040000000  0.4099460000000 1.0
C      1  0.5077290000000  0.5882780000000  0.4920440000000 1.0
C      1  0.5003010000000  0.5374870000000  0.5789200000000 1.0
C      1  0.5071320000000  0.4251600000000  0.5538190000000 1.0
C      1  0.5023940000000  0.4220920000000  0.4514530000000 1.0
C      1  0.4935650000000  0.4567570000000  0.5148820000000 1.0
C      1  0.4883240000000  0.4718720000000  0.4662350000000 1.0
C      1  0.4885260000000  0.5222840000000  0.4622720000000 1.0
C      1  0.4901670000000  0.5411870000000  0.5115740000000 1.0
C      1  0.4894610000000  0.5006390000000  0.5430880000000 1.0
C      1  0.5249790000000  0.5835750000000  0.5179920000000 1.0
C      1  0.5195870000000  0.5144010000000  0.5836780000000 1.0
C      1  0.5257230000000  0.4171880000000  0.5311310000000 1.0
C      1  0.5222050000000  0.4369580000000  0.4324740000000 1.0
C      1  0.5249400000000  0.5397420000000  0.4208650000000 1.0
C      1  0.5746430000000  0.4728010000000  0.5435600000000 1.0
C      1  0.5847250000000  0.4493710000000  0.4789030000000 1.0
C      1  0.5788240000000  0.4964500000000  0.4508260000000 1.0
C      1  0.5841970000000  0.5553700000000  0.4852290000000 1.0
C      1  0.5897820000000  0.5352090000000  0.5619090000000 1.0
C      1  0.5688650000000  0.4684580000000  0.4919270000000 1.0
C      1  0.5609840000000  0.4903190000000  0.4725390000000 1.0
C      1  0.5822690000000  0.5275580000000  0.4907910000000 1.0
C      1  0.5870200000000  0.5407910000000  0.5345640000000 1.0
C      1  0.5685380000000  0.4953600000000  0.5271550000000 1.0
C      1  0.4321910000000  0.5594740000000  0.4797820000000 1.0
C      1  0.4317260000000  0.5355850000000  0.5484630000000 1.0
C      1  0.4355000000000  0.4632800000000  0.5526900000000 1.0
C      1  0.4287240000000  0.4415520000000  0.4805900000000 1.0
C      1  0.4298320000000  0.5013130000000  0.4366550000000 1.0
C      1  0.5012640000000  0.4888100000000  0.3966880000000 1.0
C      1  0.5114580000000  0.5945330000000  0.4552880000000 1.0
C      1  0.5039260000000  0.5663830000000  0.5665890000000 1.0
C      1  0.5175490000000  0.4341900000000  0.5814470000000 1.0
C      1  0.5034930000000  0.4007950000000  0.4809230000000 1.0
C      1  0.5519750000000  0.5332400000000  0.4300330000000 1.0
C      1  0.5535790000000  0.5748220000000  0.5138400000000 1.0
C      1  0.5464100000000  0.5123310000000  0.5704810000000 1.0
C      1  0.5477080000000  0.4373660000000  0.5286630000000 1.0
C      1  0.5452810000000  0.4483030000000  0.4480540000000 1.0
C      1  0.4665430000000  0.4298910000000  0.4178580000000 1.0
C      1  0.4700480000000  0.5569760000000  0.4068080000000 1.0
C      1  0.4696690000000  0.6055780000000  0.5211740000000 1.0
C      1  0.4680140000000  0.5149430000000  0.6090930000000 1.0
C      1  0.4661480000000  0.3993890000000  0.5395050000000 1.0
C      1  0.5688600000000  0.5321160000000  0.5798010000000 1.0
C      1  0.5601270000000  0.4497800000000  0.5525270000000 1.0
C      1  0.5707860000000  0.4335910000000  0.4606240000000 1.0
C      1  0.5695120000000  0.5097990000000  0.4277340000000 1.0
C      1  0.5652840000000  0.5767190000000  0.4872470000000 1.0
C      1  0.4556570000000  0.5811350000000  0.5193640000000 1.0
C      1  0.4584160000000  0.5040040000000  0.5846170000000 1.0
C      1  0.4564550000000  0.4230480000000  0.5279100000000 1.0
C      1  0.4545240000000  0.4497060000000  0.4340920000000 1.0
C      1  0.4569890000000  0.5478580000000  0.4302740000000 1.0
C      1  0.5243880000000  0.5540870000000  0.4670830000000 1.0
C      1  0.5386400000000  0.5472810000000  0.5458070000000 1.0
C      1  0.5185780000000  0.4724870000000  0.5601430000000 1.0
C      1  0.5297500000000  0.4357470000000  0.4866060000000 1.0
C      1  0.5255420000000  0.4867770000000  0.4330660000000 1.0
C      1  0.4962690000000  0.5591980000000  0.4853140000000 1.0
C      1  0.4833260000000  0.5297140000000  0.5529140000000 1.0
C      1  0.4963180000000  0.4540620000000  0.5462120000000 1.0
C      1  0.4931980000000  0.4429490000000  0.4738800000000 1.0
C      1  0.4917680000000  0.5037470000000  0.4363450000000 1.0
C      1  0.4643410000000  0.5235490000000  0.5089550000000 1.0
C      1  0.4649090000000  0.4966880000000  0.5255240000000 1.0
C      1  0.4646000000000  0.4727730000000  0.5060710000000 1.0
C      1  0.4632940000000  0.4849720000000  0.4772620000000 1.0
C      1  0.4635720000000  0.5159530000000  0.4789320000000 1.0
C      1  0.5388810000000  0.4551660000000  0.5736590000000 1.0
C      1  0.5494650000000  0.4187820000000  0.4728560000000 1.0
C      1  0.5463540000000  0.4976830000000  0.4155260000000 1.0
C      1  0.5431010000000  0.5771830000000  0.4686410000000 1.0
C      1  0.5487120000000  0.5511630000000  0.5731830000000 1.0
C      1  0.4780110000000  0.4121010000000  0.4366130000000 1.0
C      1  0.4803140000000  0.5330940000000  0.3955680000000 1.0
C      1  0.4837890000000  0.6070340000000  0.4967190000000 1.0
C      1  0.4798580000000  0.5397610000000  0.6023440000000 1.0
C      1  0.4821210000000  0.4084250000000  0.5608170000000 1.0
C      1  0.5534140000000  0.5212190000000  0.4945340000000 1.0
C      1  0.5903440000000  0.5160580000000  0.5181430000000 1.0
END
