TITL C-3578204-4308-665 -2.32291335037896e-06 125000 -549.370060395809 0 0 90 (C2) n - 1
REM
REM in /home/bkarasulu/work/CARBON/AIRSS/Generating-Clusters/EDIP-Nigel-Params/with-SteepDescent/Higher-Symm/SD-CG/HFTN-CG
REM
REM
REM
REM
REM
REM ./C.cell (12c818d87b63d06a65506943cc24bca4)
REM
REM compiler GCC version 9.2.1 20190827 (Red Hat 9.2.1-1)
REM options -cpp -mtune=generic -march=x86-64 -g -O0 -fpre-include=/usr/include/finclude/math-vector-fortran.h
REM seed -405569312 1834852793 1928094263 -1529602558 -489706955 983178724 1954208807 -532102290 -1442147660 1075751646 37776107 419290352 1272385596 -921279959 -578960956 950425786 1568804198 180737286 1654528463 -875325074 -1648932580 1582753311 115550243 1513172229 1540970315 2136675176 -1733668084 -1890038969 2146560265 -1817016646 -500063498 -107047641 -1126082260
REM
CELL 1.54180   50.00000   50.00000   50.00000   90.00000   90.00000   90.00000
LATT -1
SFAC C  
C      1  0.4609930000000  0.5366960000000  0.5593540000000 1.0
C      1  0.5382710000000  0.5370860000000  0.4410750000000 1.0
C      1  0.4617020000000  0.4617240000000  0.4410870000000 1.0
C      1  0.5390340000000  0.4620960000000  0.5593300000000 1.0
C      1  0.5586990000000  0.5367570000000  0.4616310000000 1.0
C      1  0.4404340000000  0.5369990000000  0.5389330000000 1.0
C      1  0.4412830000000  0.4620490000000  0.4616520000000 1.0
C      1  0.5595840000000  0.4617960000000  0.5389000000000 1.0
C      1  0.4501980000000  0.4380790000000  0.5066430000000 1.0
C      1  0.5418820000000  0.4380710000000  0.4970310000000 1.0
C      1  0.4581170000000  0.5607310000000  0.4970600000000 1.0
C      1  0.5498050000000  0.5607210000000  0.5066290000000 1.0
C      1  0.5064830000000  0.4377150000000  0.4503520000000 1.0
C      1  0.4969330000000  0.4383900000000  0.5419660000000 1.0
C      1  0.4934940000000  0.5610930000000  0.4503640000000 1.0
C      1  0.5030870000000  0.5604040000000  0.5419740000000 1.0
C      1  0.4848620000000  0.5829830000000  0.4651730000000 1.0
C      1  0.5096540000000  0.5834580000000  0.5261390000000 1.0
C      1  0.4903580000000  0.4153390000000  0.5261310000000 1.0
C      1  0.5151210000000  0.4158240000000  0.4651530000000 1.0
C      1  0.4740820000000  0.5837240000000  0.4906100000000 1.0
C      1  0.5350830000000  0.5826450000000  0.5153400000000 1.0
C      1  0.5259140000000  0.4150790000000  0.4905850000000 1.0
C      1  0.4649240000000  0.4161540000000  0.5153430000000 1.0
C      1  0.5303290000000  0.5096750000000  0.4901270000000 1.0
C      1  0.4695440000000  0.5102190000000  0.5095870000000 1.0
C      1  0.5304610000000  0.4885800000000  0.5095710000000 1.0
C      1  0.4696660000000  0.4891280000000  0.4901400000000 1.0
C      1  0.4902860000000  0.5099840000000  0.5302030000000 1.0
C      1  0.5096790000000  0.5099380000000  0.4693620000000 1.0
C      1  0.5097280000000  0.4888120000000  0.5301970000000 1.0
C      1  0.4903070000000  0.4888680000000  0.4693650000000 1.0
C      1  0.4372340000000  0.5157780000000  0.4638970000000 1.0
C      1  0.5638900000000  0.5141630000000  0.5354020000000 1.0
C      1  0.4361260000000  0.4846330000000  0.5354290000000 1.0
C      1  0.5627490000000  0.4830290000000  0.4638660000000 1.0
C      1  0.4645400000000  0.5146030000000  0.4361040000000 1.0
C      1  0.5360510000000  0.5153260000000  0.5627500000000 1.0
C      1  0.5354300000000  0.4842080000000  0.4360860000000 1.0
C      1  0.4639780000000  0.4834650000000  0.5627640000000 1.0
C      1  0.4741340000000  0.4574490000000  0.5468190000000 1.0
C      1  0.5259260000000  0.4604270000000  0.4539520000000 1.0
C      1  0.4740530000000  0.5383810000000  0.4539700000000 1.0
C      1  0.5258880000000  0.5413450000000  0.5468140000000 1.0
C      1  0.5467660000000  0.4570520000000  0.4741640000000 1.0
C      1  0.4539200000000  0.4608250000000  0.5260010000000 1.0
C      1  0.4532220000000  0.5417530000000  0.4741920000000 1.0
C      1  0.5460920000000  0.5379720000000  0.5259850000000 1.0
C      1  0.3949190000000  0.5065720000000  0.5213450000000 1.0
C      1  0.6044840000000  0.5057590000000  0.4769830000000 1.0
C      1  0.3955050000000  0.4930460000000  0.4770300000000 1.0
C      1  0.6050900000000  0.4922250000000  0.5212960000000 1.0
C      1  0.5220210000000  0.5058230000000  0.3946490000000 1.0
C      1  0.4778140000000  0.5063480000000  0.6043250000000 1.0
C      1  0.4779310000000  0.4929940000000  0.3946580000000 1.0
C      1  0.5222340000000  0.4924370000000  0.6043140000000 1.0
C      1  0.5500680000000  0.5595430000000  0.4774550000000 1.0
C      1  0.4484260000000  0.5610530000000  0.5244740000000 1.0
C      1  0.5515850000000  0.4377450000000  0.5244410000000 1.0
C      1  0.4499210000000  0.4392610000000  0.4774690000000 1.0
C      1  0.4756770000000  0.5607380000000  0.5516740000000 1.0
C      1  0.5226690000000  0.5598750000000  0.4500310000000 1.0
C      1  0.5243470000000  0.4380550000000  0.5516540000000 1.0
C      1  0.4773080000000  0.4389340000000  0.4500320000000 1.0
C      1  0.4929410000000  0.4766650000000  0.4133080000000 1.0
C      1  0.5065500000000  0.4765270000000  0.5859290000000 1.0
C      1  0.4934890000000  0.5222610000000  0.5859360000000 1.0
C      1  0.5070190000000  0.5221490000000  0.4133080000000 1.0
C      1  0.4134790000000  0.4768510000000  0.4928770000000 1.0
C      1  0.5861170000000  0.4762550000000  0.5063180000000 1.0
C      1  0.5865170000000  0.5219510000000  0.4928410000000 1.0
C      1  0.4138860000000  0.5225450000000  0.5063620000000 1.0
C      1  0.4786560000000  0.4863050000000  0.4414810000000 1.0
C      1  0.5215600000000  0.4865320000000  0.5578080000000 1.0
C      1  0.4784670000000  0.5122600000000  0.5578190000000 1.0
C      1  0.5213170000000  0.5125050000000  0.4414740000000 1.0
C      1  0.4421590000000  0.4869900000000  0.4783010000000 1.0
C      1  0.5584350000000  0.4859210000000  0.5211990000000 1.0
C      1  0.5578310000000  0.5118150000000  0.4782760000000 1.0
C      1  0.4415750000000  0.5128770000000  0.5212280000000 1.0
C      1  0.4091710000000  0.4816190000000  0.5219850000000 1.0
C      1  0.5900220000000  0.4809520000000  0.4770840000000 1.0
C      1  0.4099670000000  0.5178530000000  0.4771290000000 1.0
C      1  0.5908400000000  0.5171790000000  0.5219450000000 1.0
C      1  0.5222000000000  0.4809980000000  0.4091380000000 1.0
C      1  0.4774150000000  0.4814390000000  0.5900350000000 1.0
C      1  0.4777590000000  0.5178170000000  0.4091510000000 1.0
C      1  0.5226270000000  0.5173480000000  0.5900270000000 1.0
C      1  0.5106890000000  0.4038720000000  0.5109950000000 1.0
C      1  0.4893160000000  0.5949280000000  0.5110140000000 1.0
END
