TITL C-3578205-846-388 -1.38710592557625e-07 125000 -1186.19638181737 0 0 188 (C1) n - 1
REM
REM in /home/bkarasulu/work/CARBON/AIRSS/Generating-Clusters/EDIP-Nigel-Params/with-SteepDescent/Higher-Symm/SD-CG/HFTN-CG
REM
REM
REM
REM
REM
REM ./C.cell (12c818d87b63d06a65506943cc24bca4)
REM
REM compiler GCC version 9.2.1 20190827 (Red Hat 9.2.1-1)
REM options -cpp -mtune=generic -march=x86-64 -g -O0 -fpre-include=/usr/include/finclude/math-vector-fortran.h
REM seed -307118143 -1940711167 -522630854 -1736348391 -1402103228 -2028552784 872667118 1661035987 1262898667 -553937284 -2059465427 971483391 -314612519 746350881 -379003187 345410742 -1504458731 2041183965 837129465 20850447 -1444951642 -1901358866 864060198 1962067059 1899867334 160628169 101577473 -1426548414 -1484616062 1215481149 715296904 -1988890398 -1606650185
REM
CELL 1.54180   50.00000   50.00000   50.00000   90.00000   90.00000   90.00000
LATT -1
SFAC C  
C      1  0.3950360000000  0.4926910000000  0.5239430000000 1.0
C      1  0.5251530000000  0.4924220000000  0.6107550000000 1.0
C      1  0.6118170000000  0.4922450000000  0.4759550000000 1.0
C      1  0.4767180000000  0.4910530000000  0.3909020000000 1.0
C      1  0.4002770000000  0.5125290000000  0.4695130000000 1.0
C      1  0.5291150000000  0.5152310000000  0.4098950000000 1.0
C      1  0.5915080000000  0.5135760000000  0.5284100000000 1.0
C      1  0.4729600000000  0.5150610000000  0.5920810000000 1.0
C      1  0.4968560000000  0.4766650000000  0.4081870000000 1.0
C      1  0.4072580000000  0.4781650000000  0.4995630000000 1.0
C      1  0.5050910000000  0.4771960000000  0.5930910000000 1.0
C      1  0.5943190000000  0.4759140000000  0.4955780000000 1.0
C      1  0.4988240000000  0.5281950000000  0.5883160000000 1.0
C      1  0.4079650000000  0.5262720000000  0.4962440000000 1.0
C      1  0.5022170000000  0.5273550000000  0.4121500000000 1.0
C      1  0.5886190000000  0.5269990000000  0.5021940000000 1.0
C      1  0.4895840000000  0.5145130000000  0.4364420000000 1.0
C      1  0.4355290000000  0.5092480000000  0.5173700000000 1.0
C      1  0.5121870000000  0.5152080000000  0.5641900000000 1.0
C      1  0.5652850000000  0.5135250000000  0.4886800000000 1.0
C      1  0.5121130000000  0.4850940000000  0.5647020000000 1.0
C      1  0.4347030000000  0.4914530000000  0.4926390000000 1.0
C      1  0.4885250000000  0.4842770000000  0.4364850000000 1.0
C      1  0.5661640000000  0.4837140000000  0.4877770000000 1.0
C      1  0.4537580000000  0.5528980000000  0.4127980000000 1.0
C      1  0.4110580000000  0.5562190000000  0.5444160000000 1.0
C      1  0.5444050000000  0.5531200000000  0.5845260000000 1.0
C      1  0.5887610000000  0.5559040000000  0.4554780000000 1.0
C      1  0.4561980000000  0.4445550000000  0.5862610000000 1.0
C      1  0.4149200000000  0.4463840000000  0.4537020000000 1.0
C      1  0.5434200000000  0.4441410000000  0.4175480000000 1.0
C      1  0.5839990000000  0.4425770000000  0.5433620000000 1.0
C      1  0.4869940000000  0.5300650000000  0.4607500000000 1.0
C      1  0.4594530000000  0.5290700000000  0.5185550000000 1.0
C      1  0.5169230000000  0.5291170000000  0.5383050000000 1.0
C      1  0.5400840000000  0.5271980000000  0.4828730000000 1.0
C      1  0.4926660000000  0.4728870000000  0.5444570000000 1.0
C      1  0.4572360000000  0.4717720000000  0.4910860000000 1.0
C      1  0.5042720000000  0.4712450000000  0.4591750000000 1.0
C      1  0.5456820000000  0.4710230000000  0.5056320000000 1.0
C      1  0.4510070000000  0.6033990000000  0.4457980000000 1.0
C      1  0.4458000000000  0.6062030000000  0.5440730000000 1.0
C      1  0.5463600000000  0.6041450000000  0.5528080000000 1.0
C      1  0.5509550000000  0.6040260000000  0.4537640000000 1.0
C      1  0.4627010000000  0.3975220000000  0.5548890000000 1.0
C      1  0.4443080000000  0.3971930000000  0.4616150000000 1.0
C      1  0.5367990000000  0.3965830000000  0.4431230000000 1.0
C      1  0.5556930000000  0.3960530000000  0.5364980000000 1.0
C      1  0.5911270000000  0.4697360000000  0.5470100000000 1.0
C      1  0.5476920000000  0.4709430000000  0.4095480000000 1.0
C      1  0.3994770000000  0.4717110000000  0.4514210000000 1.0
C      1  0.4534610000000  0.4716940000000  0.5941420000000 1.0
C      1  0.6074520000000  0.5323980000000  0.4575630000000 1.0
C      1  0.5435560000000  0.5323430000000  0.6056220000000 1.0
C      1  0.3935630000000  0.5324010000000  0.5434340000000 1.0
C      1  0.4568150000000  0.5304020000000  0.3937800000000 1.0
C      1  0.5288940000000  0.6058590000000  0.4850350000000 1.0
C      1  0.4827170000000  0.6069530000000  0.4669700000000 1.0
C      1  0.4658850000000  0.6096940000000  0.5122490000000 1.0
C      1  0.5149420000000  0.6073910000000  0.5309070000000 1.0
C      1  0.5328640000000  0.3943870000000  0.5064800000000 1.0
C      1  0.4933090000000  0.3945710000000  0.5335650000000 1.0
C      1  0.4664100000000  0.3965560000000  0.4927930000000 1.0
C      1  0.5065200000000  0.3935880000000  0.4649980000000 1.0
C      1  0.5731610000000  0.5675260000000  0.5287470000000 1.0
C      1  0.5273890000000  0.5682240000000  0.4276820000000 1.0
C      1  0.4268560000000  0.5662510000000  0.4713810000000 1.0
C      1  0.4705930000000  0.5684770000000  0.5730080000000 1.0
C      1  0.5900550000000  0.4360050000000  0.4688240000000 1.0
C      1  0.5309490000000  0.4371620000000  0.5886040000000 1.0
C      1  0.4188040000000  0.4409130000000  0.5277440000000 1.0
C      1  0.4692520000000  0.4390440000000  0.4092830000000 1.0
C      1  0.5044460000000  0.3667760000000  0.4784520000000 1.0
C      1  0.4780600000000  0.3685490000000  0.4943410000000 1.0
C      1  0.4939370000000  0.3673870000000  0.5208200000000 1.0
C      1  0.5202960000000  0.3669140000000  0.5050380000000 1.0
C      1  0.5099980000000  0.6341890000000  0.5177460000000 1.0
C      1  0.4795790000000  0.6363280000000  0.5114430000000 1.0
C      1  0.4864890000000  0.6337460000000  0.4809810000000 1.0
C      1  0.5162800000000  0.6328990000000  0.4879020000000 1.0
C      1  0.4724660000000  0.5914880000000  0.5529660000000 1.0
C      1  0.5560590000000  0.5914150000000  0.5279120000000 1.0
C      1  0.5254080000000  0.5927600000000  0.4430140000000 1.0
C      1  0.4415250000000  0.5916100000000  0.4717240000000 1.0
C      1  0.4667600000000  0.4147590000000  0.4515840000000 1.0
C      1  0.5456280000000  0.4147580000000  0.4667150000000 1.0
C      1  0.5331280000000  0.4146780000000  0.5462680000000 1.0
C      1  0.4547320000000  0.4154460000000  0.5311640000000 1.0
C      1  0.4430550000000  0.5163560000000  0.4637890000000 1.0
C      1  0.4557320000000  0.5214480000000  0.5685520000000 1.0
C      1  0.5672710000000  0.5197010000000  0.5453660000000 1.0
C      1  0.5448430000000  0.5196200000000  0.4354680000000 1.0
C      1  0.4430990000000  0.4813730000000  0.5418380000000 1.0
C      1  0.4610410000000  0.4720590000000  0.4473230000000 1.0
C      1  0.5580750000000  0.4748260000000  0.4593800000000 1.0
C      1  0.5405630000000  0.4756910000000  0.5564600000000 1.0
C      1  0.4226160000000  0.5604820000000  0.5691820000000 1.0
C      1  0.5700720000000  0.5603650000000  0.5768100000000 1.0
C      1  0.5744160000000  0.5578600000000  0.4316120000000 1.0
C      1  0.4310800000000  0.5493810000000  0.4284460000000 1.0
C      1  0.4277790000000  0.4378780000000  0.4304040000000 1.0
C      1  0.5664210000000  0.4325250000000  0.4283170000000 1.0
C      1  0.5720190000000  0.4320810000000  0.5662810000000 1.0
C      1  0.4333490000000  0.4383480000000  0.5716600000000 1.0
C      1  0.4496730000000  0.5014050000000  0.4051400000000 1.0
C      1  0.4069880000000  0.5054310000000  0.5507660000000 1.0
C      1  0.5531690000000  0.5030110000000  0.5987060000000 1.0
C      1  0.5996490000000  0.5028610000000  0.4480070000000 1.0
C      1  0.4287510000000  0.4843300000000  0.5903480000000 1.0
C      1  0.4129400000000  0.4953000000000  0.4395110000000 1.0
C      1  0.5727940000000  0.4827410000000  0.4126470000000 1.0
C      1  0.5877660000000  0.4816250000000  0.5719710000000 1.0
C      1  0.5734090000000  0.5492750000000  0.5514530000000 1.0
C      1  0.5475820000000  0.5503980000000  0.4403050000000 1.0
C      1  0.4418170000000  0.5469750000000  0.4550850000000 1.0
C      1  0.4479020000000  0.5502980000000  0.5740200000000 1.0
C      1  0.5645010000000  0.4391210000000  0.4563440000000 1.0
C      1  0.5442580000000  0.4392990000000  0.5635040000000 1.0
C      1  0.4396570000000  0.4484580000000  0.5452330000000 1.0
C      1  0.4560320000000  0.4412180000000  0.4345190000000 1.0
C      1  0.4983450000000  0.6081660000000  0.5574210000000 1.0
C      1  0.5552880000000  0.6064140000000  0.5020630000000 1.0
C      1  0.4997770000000  0.6085530000000  0.4402880000000 1.0
C      1  0.4390240000000  0.6083070000000  0.4962470000000 1.0
C      1  0.4890200000000  0.3965900000000  0.4396840000000 1.0
C      1  0.5577490000000  0.3967020000000  0.4887350000000 1.0
C      1  0.5105020000000  0.3974880000000  0.5590210000000 1.0
C      1  0.4403820000000  0.3987540000000  0.5090800000000 1.0
C      1  0.4738190000000  0.5962490000000  0.4263650000000 1.0
C      1  0.4257390000000  0.5969040000000  0.5221930000000 1.0
C      1  0.5236370000000  0.5966590000000  0.5716820000000 1.0
C      1  0.5699610000000  0.5961430000000  0.4766790000000 1.0
C      1  0.4843990000000  0.4060230000000  0.5746610000000 1.0
C      1  0.4254880000000  0.4069050000000  0.4826000000000 1.0
C      1  0.5146960000000  0.4053800000000  0.4239420000000 1.0
C      1  0.5745820000000  0.4041410000000  0.5140940000000 1.0
C      1  0.5159230000000  0.4234280000000  0.4758680000000 1.0
C      1  0.4768090000000  0.4248690000000  0.4792720000000 1.0
C      1  0.4848400000000  0.4249940000000  0.5215150000000 1.0
C      1  0.5234350000000  0.4239260000000  0.5184160000000 1.0
C      1  0.5079960000000  0.5781540000000  0.5198940000000 1.0
C      1  0.4768160000000  0.5798910000000  0.5242370000000 1.0
C      1  0.4880540000000  0.5782720000000  0.4762480000000 1.0
C      1  0.5156580000000  0.5770540000000  0.4888180000000 1.0
C      1  0.4957130000000  0.5574190000000  0.5831170000000 1.0
C      1  0.5822780000000  0.5559870000000  0.5040350000000 1.0
C      1  0.5032630000000  0.5567410000000  0.4163090000000 1.0
C      1  0.4139850000000  0.5558060000000  0.4951420000000 1.0
C      1  0.4953720000000  0.4474010000000  0.4065080000000 1.0
C      1  0.5944920000000  0.4459270000000  0.4942720000000 1.0
C      1  0.5056640000000  0.4474800000000  0.5928250000000 1.0
C      1  0.4100980000000  0.4488920000000  0.5029420000000 1.0
C      1  0.5250000000000  0.4871010000000  0.4035150000000 1.0
C      1  0.3906580000000  0.4851410000000  0.4761580000000 1.0
C      1  0.4770510000000  0.4872330000000  0.5981070000000 1.0
C      1  0.5978560000000  0.4856470000000  0.5242220000000 1.0
C      1  0.5159590000000  0.5221600000000  0.6124300000000 1.0
C      1  0.3856800000000  0.5212540000000  0.5155930000000 1.0
C      1  0.4852960000000  0.5206390000000  0.3878460000000 1.0
C      1  0.6132560000000  0.5217270000000  0.4854550000000 1.0
C      1  0.4741860000000  0.5185200000000  0.5420080000000 1.0
C      1  0.5410170000000  0.5160010000000  0.5255350000000 1.0
C      1  0.5273530000000  0.5132500000000  0.4595390000000 1.0
C      1  0.4703160000000  0.5142280000000  0.4784800000000 1.0
C      1  0.4792920000000  0.4856650000000  0.4799780000000 1.0
C      1  0.5294780000000  0.4845640000000  0.4626220000000 1.0
C      1  0.5371840000000  0.4864990000000  0.5279460000000 1.0
C      1  0.4711970000000  0.4898950000000  0.5357420000000 1.0
C      1  0.4258400000000  0.5666750000000  0.5202020000000 1.0
C      1  0.5207380000000  0.5665560000000  0.5704440000000 1.0
C      1  0.5718550000000  0.5661810000000  0.4784040000000 1.0
C      1  0.4772060000000  0.5662200000000  0.4267890000000 1.0
C      1  0.4253540000000  0.4369160000000  0.4805150000000 1.0
C      1  0.5154530000000  0.4352350000000  0.4251370000000 1.0
C      1  0.5760100000000  0.4340520000000  0.5153390000000 1.0
C      1  0.4831920000000  0.4359810000000  0.5756830000000 1.0
C      1  0.5198680000000  0.5583170000000  0.5406480000000 1.0
C      1  0.5425250000000  0.5556500000000  0.4736400000000 1.0
C      1  0.4749320000000  0.5571030000000  0.4565880000000 1.0
C      1  0.4549740000000  0.5580810000000  0.5206090000000 1.0
C      1  0.5081590000000  0.4425320000000  0.4539020000000 1.0
C      1  0.5472030000000  0.4425950000000  0.5102900000000 1.0
C      1  0.4839290000000  0.4451510000000  0.5463200000000 1.0
C      1  0.4539850000000  0.4455090000000  0.4816300000000 1.0
C      1  0.4430020000000  0.4961810000000  0.4369930000000 1.0
C      1  0.4329730000000  0.4989030000000  0.5654500000000 1.0
C      1  0.5707510000000  0.4954520000000  0.4386640000000 1.0
C      1  0.5623420000000  0.4954020000000  0.5695350000000 1.0
END
