TITL C-3577090-796-705 1.10548721935371e-06 125000 -323.262699887731 0 0 53 (C1) n - 1
REM
REM in /home/bkarasulu/work/CARBON/AIRSS/Generating-Clusters/EDIP-Nigel-Params/with-SteepDescent/Higher-Symm/SD-CG/HFTN-CG
REM
REM
REM
REM
REM
REM ./C.cell (12c818d87b63d06a65506943cc24bca4)
REM
REM compiler GCC version 9.2.1 20190827 (Red Hat 9.2.1-1)
REM options -cpp -mtune=generic -march=x86-64 -g -O0 -fpre-include=/usr/include/finclude/math-vector-fortran.h
REM seed 1062699776 1801337222 1408018573 1687917529 -1413669081 1051818836 -1894275467 -1148016071 1374960015 916981107 -1338404166 -1558856079 956000396 -5367268 862053904 -1190692039 1322430323 380187166 -1441591780 -2029877433 -282947284 858870807 -107623919 167174646 1200892011 -460003281 -1841454137 -1072531104 -2097749759 931739313 2040017861 -1960935394 2092802513
REM
CELL 1.54180   50.00000   50.00000   50.00000   90.00000   90.00000   90.00000
LATT -1
SFAC C  
C      1  0.4866800000000  0.4745030000000  0.4912370000000 1.0
C      1  0.5027900000000  0.4643040000000  0.5155300000000 1.0
C      1  0.5016110000000  0.4891540000000  0.5387130000000 1.0
C      1  0.4912610000000  0.5117070000000  0.5199900000000 1.0
C      1  0.5055310000000  0.5540860000000  0.5023370000000 1.0
C      1  0.5025100000000  0.5163050000000  0.4723600000000 1.0
C      1  0.5002230000000  0.4870800000000  0.4672610000000 1.0
C      1  0.5253160000000  0.5211630000000  0.4276670000000 1.0
C      1  0.5309510000000  0.4675090000000  0.4482400000000 1.0
C      1  0.5298850000000  0.4435110000000  0.4972210000000 1.0
C      1  0.5272070000000  0.4548310000000  0.5508720000000 1.0
C      1  0.5270050000000  0.5044050000000  0.5677260000000 1.0
C      1  0.5339700000000  0.5465980000000  0.5390850000000 1.0
C      1  0.5294310000000  0.5604540000000  0.4667050000000 1.0
C      1  0.4448850000000  0.4898680000000  0.4667560000000 1.0
C      1  0.4439000000000  0.4637910000000  0.4824880000000 1.0
C      1  0.4421010000000  0.4644760000000  0.5125690000000 1.0
C      1  0.4487180000000  0.4918030000000  0.5252980000000 1.0
C      1  0.4450700000000  0.5258460000000  0.5263600000000 1.0
C      1  0.4465390000000  0.5372400000000  0.4993890000000 1.0
C      1  0.4570410000000  0.5143380000000  0.4820440000000 1.0
C      1  0.4749720000000  0.5128860000000  0.5637680000000 1.0
C      1  0.4825930000000  0.5589500000000  0.5330710000000 1.0
C      1  0.4782510000000  0.5576570000000  0.4682310000000 1.0
C      1  0.4755830000000  0.5146380000000  0.4355590000000 1.0
C      1  0.4787900000000  0.4551280000000  0.4475930000000 1.0
C      1  0.4788860000000  0.4303460000000  0.5015080000000 1.0
C      1  0.4750330000000  0.4563640000000  0.5484980000000 1.0
C      1  0.5008610000000  0.5091660000000  0.5743960000000 1.0
C      1  0.5134410000000  0.5632380000000  0.5300510000000 1.0
C      1  0.5036940000000  0.5684210000000  0.4619670000000 1.0
C      1  0.4994030000000  0.5172880000000  0.4214200000000 1.0
C      1  0.5068760000000  0.4552110000000  0.4424570000000 1.0
C      1  0.5080090000000  0.4277610000000  0.5085430000000 1.0
C      1  0.5012250000000  0.4492740000000  0.5561570000000 1.0
C      1  0.5418320000000  0.4727720000000  0.5349760000000 1.0
C      1  0.5431640000000  0.5004880000000  0.5449350000000 1.0
C      1  0.5474100000000  0.5244530000000  0.5283570000000 1.0
C      1  0.5455430000000  0.5376010000000  0.4716030000000 1.0
C      1  0.5413340000000  0.5167930000000  0.4504690000000 1.0
C      1  0.5436660000000  0.4895260000000  0.4611290000000 1.0
C      1  0.5448460000000  0.4671440000000  0.5065850000000 1.0
C      1  0.4679300000000  0.4859480000000  0.4464070000000 1.0
C      1  0.4711200000000  0.4516380000000  0.4781400000000 1.0
C      1  0.4632190000000  0.4455280000000  0.5232730000000 1.0
C      1  0.4647850000000  0.4856030000000  0.5510950000000 1.0
C      1  0.4733700000000  0.5297540000000  0.5376870000000 1.0
C      1  0.4674460000000  0.5591220000000  0.4971580000000 1.0
C      1  0.4774550000000  0.5276140000000  0.4632120000000 1.0
C      1  0.4708140000000  0.4973220000000  0.5034210000000 1.0
C      1  0.5469440000000  0.4911120000000  0.4898750000000 1.0
C      1  0.5419010000000  0.5197420000000  0.4988940000000 1.0
C      1  0.5108670000000  0.5246620000000  0.4994400000000 1.0
END
