TITL C-3577078-809-746 0.00215717914106733 125000 -430.765436408209 0 0 71 (C1) n - 1
REM
REM in /home/bkarasulu/work/CARBON/AIRSS/Generating-Clusters/EDIP-Nigel-Params/with-SteepDescent/Higher-Symm/SD-CG/HFTN-CG
REM
REM
REM
REM
REM
REM ./C.cell (12c818d87b63d06a65506943cc24bca4)
REM
REM compiler GCC version 9.2.1 20190827 (Red Hat 9.2.1-1)
REM options -cpp -mtune=generic -march=x86-64 -g -O0 -fpre-include=/usr/include/finclude/math-vector-fortran.h
REM seed 505366983 -1329738145 149722293 -328496235 182686142 1159609968 1887583009 1232458790 1079665946 -4903701 1845268584 1089221351 -928062596 1097033661 1902201840 65587602 755306728 279452480 1668711866 -1460179667 721366616 2122621924 1690936116 2123513295 -2128998948 1908200164 -1106864667 1884103089 -435200757 -963472034 1379929184 1217911660 -229412060
REM
CELL 1.54180   50.00000   50.00000   50.00000   90.00000   90.00000   90.00000
LATT -1
SFAC C  
C      1  0.4799020000000  0.4360090000000  0.4673910000000 1.0
C      1  0.4525530000000  0.5517960000000  0.4641300000000 1.0
C      1  0.5684830000000  0.5170900000000  0.4572370000000 1.0
C      1  0.4540350000000  0.4685300000000  0.5446510000000 1.0
C      1  0.4951520000000  0.5568210000000  0.5405160000000 1.0
C      1  0.5508290000000  0.4735170000000  0.5429890000000 1.0
C      1  0.5061640000000  0.5415800000000  0.5636440000000 1.0
C      1  0.5319930000000  0.4748640000000  0.5661610000000 1.0
C      1  0.4627440000000  0.4858590000000  0.5671570000000 1.0
C      1  0.5695510000000  0.5192760000000  0.4869250000000 1.0
C      1  0.4756570000000  0.4352620000000  0.4975480000000 1.0
C      1  0.4535930000000  0.5563070000000  0.4950840000000 1.0
C      1  0.5661120000000  0.4938240000000  0.5020510000000 1.0
C      1  0.4480740000000  0.4436560000000  0.5036890000000 1.0
C      1  0.4756160000000  0.5751430000000  0.5007430000000 1.0
C      1  0.5251870000000  0.5141140000000  0.4486700000000 1.0
C      1  0.5002150000000  0.4740770000000  0.4586460000000 1.0
C      1  0.4768910000000  0.5155230000000  0.4505560000000 1.0
C      1  0.5455880000000  0.4678690000000  0.4622920000000 1.0
C      1  0.4539180000000  0.4829170000000  0.4741240000000 1.0
C      1  0.5062740000000  0.5521120000000  0.4681620000000 1.0
C      1  0.5025890000000  0.5681500000000  0.4938170000000 1.0
C      1  0.5486810000000  0.4704340000000  0.4930980000000 1.0
C      1  0.4411940000000  0.4709720000000  0.4984070000000 1.0
C      1  0.4531480000000  0.5086330000000  0.4338310000000 1.0
C      1  0.5267130000000  0.5360990000000  0.4284220000000 1.0
C      1  0.5191070000000  0.4604440000000  0.4219780000000 1.0
C      1  0.5300310000000  0.5584800000000  0.4471180000000 1.0
C      1  0.5289480000000  0.4477300000000  0.4457400000000 1.0
C      1  0.4355610000000  0.4993950000000  0.4551440000000 1.0
C      1  0.5198430000000  0.5256510000000  0.4777690000000 1.0
C      1  0.5108470000000  0.4768670000000  0.4872280000000 1.0
C      1  0.4727750000000  0.5070490000000  0.4826740000000 1.0
C      1  0.5424390000000  0.4559810000000  0.5202080000000 1.0
C      1  0.4482220000000  0.4855900000000  0.5219260000000 1.0
C      1  0.5128220000000  0.5552080000000  0.5176280000000 1.0
C      1  0.4531900000000  0.5301990000000  0.5440200000000 1.0
C      1  0.5461880000000  0.5237710000000  0.5382750000000 1.0
C      1  0.4985670000000  0.4442300000000  0.5462080000000 1.0
C      1  0.4866060000000  0.5261140000000  0.5798520000000 1.0
C      1  0.5289870000000  0.5013110000000  0.5789050000000 1.0
C      1  0.4868360000000  0.4768830000000  0.5814160000000 1.0
C      1  0.5218500000000  0.5173040000000  0.5537020000000 1.0
C      1  0.5036300000000  0.4721180000000  0.5561670000000 1.0
C      1  0.4739640000000  0.5118880000000  0.5556540000000 1.0
C      1  0.5583430000000  0.5447160000000  0.4486050000000 1.0
C      1  0.5076170000000  0.4326470000000  0.4591230000000 1.0
C      1  0.4327660000000  0.5296040000000  0.4591450000000 1.0
C      1  0.4977750000000  0.4550470000000  0.5034450000000 1.0
C      1  0.4577470000000  0.5265970000000  0.5001300000000 1.0
C      1  0.5459350000000  0.5368600000000  0.4905100000000 1.0
C      1  0.5546300000000  0.4916280000000  0.4472130000000 1.0
C      1  0.4720350000000  0.4635230000000  0.4585720000000 1.0
C      1  0.4801510000000  0.5449960000000  0.4532170000000 1.0
C      1  0.4433140000000  0.5144120000000  0.5218910000000 1.0
C      1  0.5399920000000  0.5443250000000  0.5179960000000 1.0
C      1  0.5159150000000  0.4422760000000  0.5221350000000 1.0
C      1  0.4698030000000  0.4431500000000  0.5354570000000 1.0
C      1  0.4653900000000  0.5556780000000  0.5323990000000 1.0
C      1  0.5617150000000  0.4990260000000  0.5310580000000 1.0
C      1  0.5054770000000  0.4841640000000  0.4154690000000 1.0
C      1  0.5171600000000  0.5243390000000  0.3481780000000 1.0
C      1  0.5035410000000  0.5055460000000  0.6726920000000 1.0
C      1  0.5014780000000  0.5038990000000  0.4975920000000 1.0
C      1  0.4997280000000  0.5009000000000  0.5353790000000 1.0
C      1  0.5023810000000  0.5027720000000  0.6207800000000 1.0
C      1  0.5026170000000  0.5045820000000  0.6471560000000 1.0
C      1  0.5135810000000  0.5113650000000  0.3699210000000 1.0
C      1  0.5011910000000  0.5018860000000  0.5923820000000 1.0
C      1  0.5012520000000  0.4986100000000  0.4413570000000 1.0
C      1  0.5116590000000  0.4979120000000  0.3925900000000 1.0
END
