TITL C-3577085-527-612 -1.75846660740434e-06 125000 -739.972152054156 0 0 117 (C1) n - 1
REM
REM in /home/bkarasulu/work/CARBON/AIRSS/Generating-Clusters/EDIP-Nigel-Params/with-SteepDescent/Higher-Symm/SD-CG/HFTN-CG
REM
REM
REM
REM
REM
REM ./C.cell (12c818d87b63d06a65506943cc24bca4)
REM
REM compiler GCC version 9.2.1 20190827 (Red Hat 9.2.1-1)
REM options -cpp -mtune=generic -march=x86-64 -g -O0 -fpre-include=/usr/include/finclude/math-vector-fortran.h
REM seed 425733458 -161979164 559685157 -1352019578 -1710328245 277591913 -893907370 1172341077 -1895527367 1916348355 -1225265165 871705064 -1959549255 283171816 1688166008 -1959882654 1912952 1100203450 984768481 1955983462 -224924618 1114865325 -1658658163 -1394566218 301434474 -1090557972 276453218 -1980579254 -1764012522 141245782 -80135504 2030788236 -465905591
REM
CELL 1.54180   50.00000   50.00000   50.00000   90.00000   90.00000   90.00000
LATT -1
SFAC C  
C      1  0.5603430000000  0.5176680000000  0.4329150000000 1.0
C      1  0.5541190000000  0.4417420000000  0.5165910000000 1.0
C      1  0.5590360000000  0.5478900000000  0.5438150000000 1.0
C      1  0.5508110000000  0.5146690000000  0.4835130000000 1.0
C      1  0.5488050000000  0.4872220000000  0.4948900000000 1.0
C      1  0.5435340000000  0.4912380000000  0.5235110000000 1.0
C      1  0.4726330000000  0.5280360000000  0.5667650000000 1.0
C      1  0.4758110000000  0.5383920000000  0.4455740000000 1.0
C      1  0.4692430000000  0.4195710000000  0.4894070000000 1.0
C      1  0.4500600000000  0.4357550000000  0.5082480000000 1.0
C      1  0.4467440000000  0.5416000000000  0.5579940000000 1.0
C      1  0.4490370000000  0.5310430000000  0.4300450000000 1.0
C      1  0.4531420000000  0.4627440000000  0.4228470000000 1.0
C      1  0.4578920000000  0.4531290000000  0.5781140000000 1.0
C      1  0.4553740000000  0.5870970000000  0.5007940000000 1.0
C      1  0.5805800000000  0.5051050000000  0.4533310000000 1.0
C      1  0.5766380000000  0.4619510000000  0.5177380000000 1.0
C      1  0.5780130000000  0.5365350000000  0.5237000000000 1.0
C      1  0.5333880000000  0.4716820000000  0.4248510000000 1.0
C      1  0.5347530000000  0.4499970000000  0.5641100000000 1.0
C      1  0.5345390000000  0.5832200000000  0.5119080000000 1.0
C      1  0.4714720000000  0.5011020000000  0.5814760000000 1.0
C      1  0.4722570000000  0.5660560000000  0.4589860000000 1.0
C      1  0.4718880000000  0.4374430000000  0.4625210000000 1.0
C      1  0.5059500000000  0.4560250000000  0.5206880000000 1.0
C      1  0.5120380000000  0.5426750000000  0.5320450000000 1.0
C      1  0.5176070000000  0.4878380000000  0.4562640000000 1.0
C      1  0.4601600000000  0.4643570000000  0.5046510000000 1.0
C      1  0.4706650000000  0.5193700000000  0.5288220000000 1.0
C      1  0.4795510000000  0.5164560000000  0.4697860000000 1.0
C      1  0.4528330000000  0.5146270000000  0.4814920000000 1.0
C      1  0.4350330000000  0.4840500000000  0.5085680000000 1.0
C      1  0.4450670000000  0.5131090000000  0.5103130000000 1.0
C      1  0.5196180000000  0.5030880000000  0.5942730000000 1.0
C      1  0.5193320000000  0.5798820000000  0.4515860000000 1.0
C      1  0.5172120000000  0.4192900000000  0.4553800000000 1.0
C      1  0.5710690000000  0.5625030000000  0.4517330000000 1.0
C      1  0.5670610000000  0.4310770000000  0.4715310000000 1.0
C      1  0.5710690000000  0.5120360000000  0.5750850000000 1.0
C      1  0.5296840000000  0.5162490000000  0.4564800000000 1.0
C      1  0.5086660000000  0.4547480000000  0.4903420000000 1.0
C      1  0.5185480000000  0.5182600000000  0.5481280000000 1.0
C      1  0.5803930000000  0.5437500000000  0.4948890000000 1.0
C      1  0.5774200000000  0.4772420000000  0.4640690000000 1.0
C      1  0.5708200000000  0.4865840000000  0.5353860000000 1.0
C      1  0.4971620000000  0.5464520000000  0.5742160000000 1.0
C      1  0.5031030000000  0.5368560000000  0.4292700000000 1.0
C      1  0.4967780000000  0.4126230000000  0.5021320000000 1.0
C      1  0.4198350000000  0.4394530000000  0.5039150000000 1.0
C      1  0.4244280000000  0.5259770000000  0.5467890000000 1.0
C      1  0.4256320000000  0.5229580000000  0.4479230000000 1.0
C      1  0.4532100000000  0.4281830000000  0.5357110000000 1.0
C      1  0.4492290000000  0.5666660000000  0.5458690000000 1.0
C      1  0.4521550000000  0.5103440000000  0.4116850000000 1.0
C      1  0.5385060000000  0.4246750000000  0.4377680000000 1.0
C      1  0.5405290000000  0.4848380000000  0.5988590000000 1.0
C      1  0.5393320000000  0.5950690000000  0.4643190000000 1.0
C      1  0.4647500000000  0.4857170000000  0.4112020000000 1.0
C      1  0.4656960000000  0.4325580000000  0.5601840000000 1.0
C      1  0.4632350000000  0.5826360000000  0.5277880000000 1.0
C      1  0.4883820000000  0.5388870000000  0.5143130000000 1.0
C      1  0.4877510000000  0.4883910000000  0.4608130000000 1.0
C      1  0.4793460000000  0.4693870000000  0.5256290000000 1.0
C      1  0.5393520000000  0.5702220000000  0.5385140000000 1.0
C      1  0.5400980000000  0.5007910000000  0.4168450000000 1.0
C      1  0.5382770000000  0.4332860000000  0.5397710000000 1.0
C      1  0.4110100000000  0.5321190000000  0.4957050000000 1.0
C      1  0.4194350000000  0.4828530000000  0.4830810000000 1.0
C      1  0.4062600000000  0.4805360000000  0.5335290000000 1.0
C      1  0.5084120000000  0.4267180000000  0.5318330000000 1.0
C      1  0.5069710000000  0.5668280000000  0.5518250000000 1.0
C      1  0.5116120000000  0.5113570000000  0.4158650000000 1.0
C      1  0.4957940000000  0.4398940000000  0.4191710000000 1.0
C      1  0.4970300000000  0.4607890000000  0.5941380000000 1.0
C      1  0.4942960000000  0.5994260000000  0.4874950000000 1.0
C      1  0.4982200000000  0.5244610000000  0.4915500000000 1.0
C      1  0.4809600000000  0.4631490000000  0.4778490000000 1.0
C      1  0.4886520000000  0.4959650000000  0.5243010000000 1.0
C      1  0.5276920000000  0.4737750000000  0.4797140000000 1.0
C      1  0.5164810000000  0.4898120000000  0.5370500000000 1.0
C      1  0.5242490000000  0.5318410000000  0.4832620000000 1.0
C      1  0.4950040000000  0.5815400000000  0.4659230000000 1.0
C      1  0.4927530000000  0.4275910000000  0.4440120000000 1.0
C      1  0.4957600000000  0.4884350000000  0.5894000000000 1.0
C      1  0.5882820000000  0.5226080000000  0.4760080000000 1.0
C      1  0.5849590000000  0.4733740000000  0.4918760000000 1.0
C      1  0.5864190000000  0.5100970000000  0.5284540000000 1.0
C      1  0.5235360000000  0.5271280000000  0.5763620000000 1.0
C      1  0.5252840000000  0.5552700000000  0.4369580000000 1.0
C      1  0.5190740000000  0.4256430000000  0.4845420000000 1.0
C      1  0.5102900000000  0.4421320000000  0.5775800000000 1.0
C      1  0.5079070000000  0.5954350000000  0.5119170000000 1.0
C      1  0.5085080000000  0.4633570000000  0.4110930000000 1.0
C      1  0.4489240000000  0.4446440000000  0.4441020000000 1.0
C      1  0.4511630000000  0.4805380000000  0.5787960000000 1.0
C      1  0.4500760000000  0.5738950000000  0.4762020000000 1.0
C      1  0.5710730000000  0.4856420000000  0.5650860000000 1.0
C      1  0.5715070000000  0.5668830000000  0.4796550000000 1.0
C      1  0.5712660000000  0.4513190000000  0.4522080000000 1.0
C      1  0.4200630000000  0.4975400000000  0.5521930000000 1.0
C      1  0.4197700000000  0.5421110000000  0.4704900000000 1.0
C      1  0.4134240000000  0.4540960000000  0.4787570000000 1.0
C      1  0.5489810000000  0.4258100000000  0.4926330000000 1.0
C      1  0.5538670000000  0.5338890000000  0.5699290000000 1.0
C      1  0.5536340000000  0.5471750000000  0.4356410000000 1.0
C      1  0.4239040000000  0.5695960000000  0.4670780000000 1.0
C      1  0.4239550000000  0.4434670000000  0.4552920000000 1.0
C      1  0.4244860000000  0.4878280000000  0.5777360000000 1.0
C      1  0.4140270000000  0.5365850000000  0.5226080000000 1.0
C      1  0.4351760000000  0.4982350000000  0.4634280000000 1.0
C      1  0.4091150000000  0.4538510000000  0.5258360000000 1.0
C      1  0.4940120000000  0.4270900000000  0.5587180000000 1.0
C      1  0.4912210000000  0.5865030000000  0.5342850000000 1.0
C      1  0.4935270000000  0.4878540000000  0.4126290000000 1.0
C      1  0.5513840000000  0.5859160000000  0.4880750000000 1.0
C      1  0.5519380000000  0.4484720000000  0.4307890000000 1.0
C      1  0.5519630000000  0.4688570000000  0.5786660000000 1.0
END
