TITL C-3578204-4308-275 1.86511847473841e-06 125000 -797.068034377471 0 0 128 (C1) n - 1
REM
REM in /home/bkarasulu/work/CARBON/AIRSS/Generating-Clusters/EDIP-Nigel-Params/with-SteepDescent/Higher-Symm/SD-CG/HFTN-CG
REM
REM
REM
REM
REM
REM ./C.cell (12c818d87b63d06a65506943cc24bca4)
REM
REM compiler GCC version 9.2.1 20190827 (Red Hat 9.2.1-1)
REM options -cpp -mtune=generic -march=x86-64 -g -O0 -fpre-include=/usr/include/finclude/math-vector-fortran.h
REM seed -1949098072 1508327371 483468757 -517851289 -1531353746 -537971140 -1044819295 -500236955 1629811078 -1555675764 596041867 613977868 2073884173 -1621511225 1692483836 2141291430 640646228 -2093198663 1026953745 -1466367067 1449906472 -1132066164 117824711 1042244539 1393252974 -6846303 2087253297 -2032233415 125960372 220224823 1790481353 1624492437 442563679
REM
CELL 1.54180   50.00000   50.00000   50.00000   90.00000   90.00000   90.00000
LATT -1
SFAC C  
C      1  0.5630470000000  0.5370370000000  0.5779490000000 1.0
C      1  0.4380100000000  0.5367120000000  0.5738260000000 1.0
C      1  0.5883320000000  0.5014800000000  0.5043570000000 1.0
C      1  0.4162670000000  0.4982530000000  0.4982790000000 1.0
C      1  0.6030010000000  0.4739990000000  0.5052420000000 1.0
C      1  0.3932250000000  0.4685880000000  0.5070860000000 1.0
C      1  0.4545940000000  0.4897250000000  0.4116480000000 1.0
C      1  0.5452450000000  0.4903490000000  0.4112630000000 1.0
C      1  0.4875180000000  0.4243690000000  0.5429870000000 1.0
C      1  0.5170530000000  0.4324270000000  0.5447000000000 1.0
C      1  0.4343670000000  0.4887230000000  0.5563680000000 1.0
C      1  0.5662430000000  0.4875210000000  0.5595670000000 1.0
C      1  0.4855860000000  0.4268990000000  0.4429560000000 1.0
C      1  0.5139610000000  0.4228510000000  0.4436750000000 1.0
C      1  0.4716660000000  0.4320850000000  0.4681090000000 1.0
C      1  0.5276150000000  0.4209520000000  0.4690190000000 1.0
C      1  0.5202010000000  0.5307810000000  0.4191950000000 1.0
C      1  0.4818570000000  0.5282850000000  0.4184030000000 1.0
C      1  0.4741910000000  0.5388410000000  0.5874600000000 1.0
C      1  0.5324220000000  0.5409420000000  0.5870230000000 1.0
C      1  0.4295130000000  0.5471060000000  0.5477770000000 1.0
C      1  0.5650990000000  0.5466880000000  0.5473690000000 1.0
C      1  0.5475600000000  0.4968810000000  0.5374920000000 1.0
C      1  0.4533630000000  0.4979550000000  0.5341870000000 1.0
C      1  0.4840460000000  0.4467790000000  0.4208340000000 1.0
C      1  0.5129030000000  0.4492790000000  0.4159500000000 1.0
C      1  0.4910270000000  0.4960910000000  0.4829420000000 1.0
C      1  0.5174150000000  0.4792710000000  0.4849680000000 1.0
C      1  0.5124580000000  0.4174210000000  0.4962450000000 1.0
C      1  0.4833430000000  0.4231930000000  0.4928590000000 1.0
C      1  0.5873980000000  0.5242860000000  0.4820010000000 1.0
C      1  0.4132750000000  0.5231490000000  0.4798250000000 1.0
C      1  0.4671360000000  0.4794080000000  0.4893640000000 1.0
C      1  0.5494850000000  0.4787610000000  0.4906160000000 1.0
C      1  0.4486660000000  0.5694400000000  0.4699750000000 1.0
C      1  0.5514900000000  0.5695340000000  0.4705460000000 1.0
C      1  0.5271250000000  0.4574680000000  0.5589720000000 1.0
C      1  0.4719750000000  0.4561430000000  0.5594400000000 1.0
C      1  0.5637010000000  0.4513100000000  0.4895890000000 1.0
C      1  0.4287800000000  0.4398420000000  0.4905340000000 1.0
C      1  0.4720190000000  0.4727820000000  0.4288540000000 1.0
C      1  0.5233730000000  0.4750870000000  0.4244120000000 1.0
C      1  0.5118660000000  0.5471100000000  0.4616900000000 1.0
C      1  0.4827960000000  0.5432200000000  0.4605320000000 1.0
C      1  0.4169950000000  0.5453530000000  0.4998210000000 1.0
C      1  0.5830040000000  0.5475680000000  0.5015120000000 1.0
C      1  0.4789750000000  0.5434790000000  0.4897190000000 1.0
C      1  0.5183620000000  0.5501300000000  0.4920760000000 1.0
C      1  0.5596870000000  0.4970030000000  0.5102320000000 1.0
C      1  0.4458060000000  0.4948990000000  0.5049780000000 1.0
C      1  0.5609230000000  0.4453090000000  0.4413300000000 1.0
C      1  0.4327690000000  0.4541430000000  0.4490080000000 1.0
C      1  0.5141110000000  0.5305880000000  0.5363570000000 1.0
C      1  0.4913850000000  0.5151980000000  0.5485960000000 1.0
C      1  0.5254570000000  0.4373360000000  0.5165000000000 1.0
C      1  0.4728250000000  0.4361080000000  0.5171600000000 1.0
C      1  0.5696080000000  0.5229080000000  0.4550790000000 1.0
C      1  0.4285520000000  0.5247750000000  0.4530780000000 1.0
C      1  0.4837470000000  0.4892330000000  0.6002000000000 1.0
C      1  0.5148030000000  0.4889930000000  0.6007640000000 1.0
C      1  0.5931060000000  0.4557970000000  0.4850250000000 1.0
C      1  0.4069100000000  0.4582980000000  0.4846970000000 1.0
C      1  0.4661930000000  0.5556000000000  0.4268330000000 1.0
C      1  0.5353170000000  0.5566310000000  0.4258890000000 1.0
C      1  0.4420630000000  0.5071440000000  0.5785350000000 1.0
C      1  0.5589830000000  0.5056200000000  0.5824940000000 1.0
C      1  0.5993410000000  0.5122440000000  0.5297850000000 1.0
C      1  0.4029110000000  0.5084050000000  0.5245220000000 1.0
C      1  0.4784090000000  0.4795570000000  0.5396570000000 1.0
C      1  0.5224250000000  0.4797520000000  0.5383500000000 1.0
C      1  0.5977560000000  0.4645150000000  0.5337870000000 1.0
C      1  0.4015570000000  0.4637020000000  0.5345360000000 1.0
C      1  0.4722170000000  0.5859680000000  0.4631500000000 1.0
C      1  0.5295210000000  0.5876120000000  0.4637490000000 1.0
C      1  0.5174450000000  0.5780530000000  0.5074080000000 1.0
C      1  0.4831610000000  0.5718290000000  0.5035300000000 1.0
C      1  0.4623540000000  0.5279800000000  0.5426630000000 1.0
C      1  0.5407280000000  0.5244770000000  0.5474180000000 1.0
C      1  0.5160230000000  0.5777720000000  0.4385880000000 1.0
C      1  0.4843300000000  0.5790830000000  0.4370590000000 1.0
C      1  0.4427230000000  0.4319460000000  0.4669030000000 1.0
C      1  0.5527320000000  0.4356700000000  0.4669720000000 1.0
C      1  0.4677570000000  0.5114200000000  0.3998560000000 1.0
C      1  0.5354310000000  0.5142470000000  0.4013120000000 1.0
C      1  0.4863120000000  0.6033340000000  0.4810980000000 1.0
C      1  0.5147600000000  0.5993500000000  0.4864300000000 1.0
C      1  0.4827790000000  0.4646350000000  0.5138800000000 1.0
C      1  0.5132140000000  0.4655680000000  0.5126620000000 1.0
C      1  0.4870350000000  0.5550570000000  0.5673500000000 1.0
C      1  0.5168320000000  0.5599890000000  0.5693660000000 1.0
C      1  0.4417850000000  0.5522160000000  0.4469730000000 1.0
C      1  0.5576230000000  0.5516190000000  0.4475270000000 1.0
C      1  0.4286130000000  0.4970240000000  0.4261280000000 1.0
C      1  0.5685460000000  0.4938820000000  0.4299980000000 1.0
C      1  0.4600460000000  0.5670630000000  0.5222320000000 1.0
C      1  0.5436380000000  0.5769560000000  0.5231130000000 1.0
C      1  0.5145820000000  0.4607240000000  0.5869590000000 1.0
C      1  0.4841280000000  0.4603660000000  0.5870550000000 1.0
C      1  0.5950870000000  0.4900610000000  0.5504430000000 1.0
C      1  0.4055610000000  0.4901220000000  0.5477180000000 1.0
C      1  0.5151910000000  0.5261780000000  0.5086130000000 1.0
C      1  0.4893020000000  0.5179940000000  0.5016570000000 1.0
C      1  0.5293920000000  0.5098150000000  0.5857750000000 1.0
C      1  0.4718810000000  0.5097270000000  0.5819860000000 1.0
C      1  0.4422590000000  0.4596200000000  0.5613360000000 1.0
C      1  0.5574670000000  0.4582760000000  0.5619730000000 1.0
C      1  0.5210210000000  0.5214990000000  0.4485020000000 1.0
C      1  0.4771920000000  0.5173270000000  0.4467370000000 1.0
C      1  0.5560020000000  0.4384050000000  0.5149460000000 1.0
C      1  0.4422250000000  0.4371490000000  0.5163990000000 1.0
C      1  0.4932380000000  0.3972220000000  0.5325930000000 1.0
C      1  0.5107410000000  0.3924530000000  0.5115870000000 1.0
C      1  0.5590480000000  0.5641760000000  0.4986850000000 1.0
C      1  0.4404780000000  0.5624090000000  0.4976660000000 1.0
C      1  0.3986670000000  0.4686990000000  0.4588760000000 1.0
C      1  0.5982770000000  0.4661790000000  0.4596300000000 1.0
C      1  0.5787910000000  0.4678100000000  0.4398570000000 1.0
C      1  0.4125080000000  0.4727700000000  0.4332680000000 1.0
C      1  0.5431620000000  0.5054220000000  0.4599420000000 1.0
C      1  0.4522950000000  0.5037750000000  0.4554780000000 1.0
C      1  0.5724870000000  0.4470840000000  0.5385620000000 1.0
C      1  0.4268250000000  0.4474110000000  0.5393220000000 1.0
C      1  0.5363250000000  0.4734260000000  0.4510810000000 1.0
C      1  0.4571290000000  0.4718060000000  0.4544090000000 1.0
C      1  0.5317340000000  0.5747310000000  0.5495570000000 1.0
C      1  0.4684660000000  0.5682580000000  0.5497330000000 1.0
C      1  0.4117890000000  0.5364800000000  0.5273720000000 1.0
C      1  0.5889570000000  0.5405670000000  0.5303040000000 1.0
END
