TITL C-3578208-4450-592 -1.06407102699391e-06 125000 -101.217371745614 0 0 18 (C2) n - 1
REM
REM in /home/bkarasulu/work/CARBON/AIRSS/Generating-Clusters/EDIP-Nigel-Params/with-SteepDescent/Higher-Symm/SD-CG/HFTN-CG
REM
REM
REM
REM
REM
REM ./C.cell (12c818d87b63d06a65506943cc24bca4)
REM
REM compiler GCC version 9.2.1 20190827 (Red Hat 9.2.1-1)
REM options -cpp -mtune=generic -march=x86-64 -g -O0 -fpre-include=/usr/include/finclude/math-vector-fortran.h
REM seed 2022446369 585264153 833630712 -222494133 -140726271 -1150727077 -999398836 1787176823 -235746833 -531991168 -1317790756 -892616128 -1908716122 -1785061547 -834878586 324859432 1737964025 78004826 1589055125 -792096668 -1381169631 -801369975 -578888987 -715592420 -253223785 341818359 595621830 1109684508 -243284880 1696704407 -221512545 -576464651 -992861196
REM
CELL 1.54180   50.00000   50.00000   50.00000   90.00000   90.00000   90.00000
LATT -1
SFAC C  
C      1  0.5168490000000  0.4819040000000  0.4597610000000 1.0
C      1  0.4571230000000  0.5173660000000  0.4812740000000 1.0
C      1  0.4768890000000  0.4638820000000  0.5047570000000 1.0
C      1  0.5167370000000  0.5161590000000  0.5377520000000 1.0
C      1  0.4742450000000  0.5066510000000  0.4617230000000 1.0
C      1  0.4742910000000  0.4911410000000  0.5357870000000 1.0
C      1  0.4572400000000  0.4803180000000  0.5162340000000 1.0
C      1  0.5476560000000  0.4772150000000  0.4832620000000 1.0
C      1  0.5475160000000  0.5210440000000  0.5142530000000 1.0
C      1  0.4766670000000  0.5339270000000  0.4927520000000 1.0
C      1  0.5213400000000  0.5333120000000  0.5148620000000 1.0
C      1  0.5215590000000  0.4647800000000  0.4826510000000 1.0
C      1  0.4458640000000  0.4988060000000  0.4987530000000 1.0
C      1  0.5044450000000  0.4688800000000  0.5057260000000 1.0
C      1  0.5023400000000  0.5061340000000  0.4616480000000 1.0
C      1  0.5526980000000  0.4991450000000  0.4987580000000 1.0
C      1  0.5042550000000  0.5291030000000  0.4917860000000 1.0
C      1  0.5023830000000  0.4918370000000  0.5358630000000 1.0
END
