TITL C-3578199-7832-359 1.144982781768e-06 125000 -1203.84821488468 0 0 193 (C1) n - 1
REM
REM in /home/bkarasulu/work/CARBON/AIRSS/Generating-Clusters/EDIP-Nigel-Params/with-SteepDescent/Higher-Symm/SD-CG/HFTN-CG
REM
REM
REM
REM
REM
REM ./C.cell (12c818d87b63d06a65506943cc24bca4)
REM
REM compiler GCC version 9.2.1 20190827 (Red Hat 9.2.1-1)
REM options -cpp -mtune=generic -march=x86-64 -g -O0 -fpre-include=/usr/include/finclude/math-vector-fortran.h
REM seed 2123135760 330720771 584619297 -1920303841 1598874128 -2109330071 -298875451 1406858665 511299823 1507568057 342871857 -622418434 -2003362321 -34906591 1993861416 -18422450 -1323015700 642529700 1034895081 1643250048 1309718547 1026890595 672221547 820230732 1928730809 1080332228 481506298 -482229187 1970966829 1961105822 2114471676 346979113 1850317631
REM
CELL 1.54180   50.00000   50.00000   50.00000   90.00000   90.00000   90.00000
LATT -1
SFAC C  
C      1  0.5766110000000  0.5498180000000  0.4282720000000 1.0
C      1  0.4531680000000  0.5480740000000  0.4086540000000 1.0
C      1  0.3959070000000  0.5488660000000  0.5177780000000 1.0
C      1  0.4841540000000  0.5509870000000  0.6017000000000 1.0
C      1  0.5892920000000  0.5482750000000  0.5472840000000 1.0
C      1  0.4803860000000  0.4728370000000  0.4295300000000 1.0
C      1  0.4266450000000  0.4712630000000  0.4976640000000 1.0
C      1  0.4721490000000  0.4707420000000  0.5691810000000 1.0
C      1  0.5593700000000  0.4731230000000  0.5473740000000 1.0
C      1  0.5635700000000  0.4703880000000  0.4563880000000 1.0
C      1  0.5892160000000  0.4426600000000  0.5454830000000 1.0
C      1  0.5736790000000  0.4420940000000  0.4272240000000 1.0
C      1  0.4560120000000  0.4436840000000  0.4094160000000 1.0
C      1  0.4001690000000  0.4420810000000  0.5150560000000 1.0
C      1  0.4828100000000  0.4422090000000  0.5994360000000 1.0
C      1  0.4679390000000  0.4904500000000  0.4921100000000 1.0
C      1  0.4804350000000  0.4979090000000  0.5329970000000 1.0
C      1  0.5206890000000  0.4827370000000  0.5291060000000 1.0
C      1  0.5333600000000  0.4818790000000  0.4861200000000 1.0
C      1  0.4977830000000  0.4945190000000  0.4640090000000 1.0
C      1  0.5062710000000  0.5386710000000  0.3860090000000 1.0
C      1  0.3938020000000  0.5356400000000  0.4620120000000 1.0
C      1  0.4308150000000  0.5406690000000  0.5883050000000 1.0
C      1  0.5588570000000  0.5396390000000  0.5948230000000 1.0
C      1  0.6081160000000  0.5347310000000  0.4754060000000 1.0
C      1  0.5785090000000  0.4134440000000  0.5043250000000 1.0
C      1  0.5293130000000  0.4163520000000  0.4276780000000 1.0
C      1  0.4407390000000  0.4167570000000  0.4503460000000 1.0
C      1  0.4341260000000  0.4133830000000  0.5415360000000 1.0
C      1  0.5193090000000  0.4142580000000  0.5751960000000 1.0
C      1  0.5120850000000  0.4418700000000  0.5181810000000 1.0
C      1  0.5187910000000  0.4411210000000  0.4895530000000 1.0
C      1  0.4959450000000  0.4519660000000  0.4749230000000 1.0
C      1  0.4741160000000  0.4605310000000  0.4942930000000 1.0
C      1  0.4865410000000  0.4557680000000  0.5217340000000 1.0
C      1  0.4807630000000  0.6037080000000  0.4532510000000 1.0
C      1  0.4510400000000  0.6038330000000  0.5027520000000 1.0
C      1  0.4907650000000  0.6040870000000  0.5448490000000 1.0
C      1  0.5428010000000  0.6051260000000  0.5256980000000 1.0
C      1  0.5381000000000  0.6044090000000  0.4689050000000 1.0
C      1  0.4951140000000  0.3938650000000  0.4746440000000 1.0
C      1  0.4759680000000  0.3955400000000  0.4969650000000 1.0
C      1  0.4908910000000  0.3937530000000  0.5221390000000 1.0
C      1  0.5197490000000  0.3917060000000  0.5157870000000 1.0
C      1  0.5225030000000  0.3918580000000  0.4860730000000 1.0
C      1  0.4082100000000  0.5684120000000  0.4989200000000 1.0
C      1  0.4728090000000  0.5681730000000  0.5808150000000 1.0
C      1  0.5690620000000  0.5682940000000  0.5536850000000 1.0
C      1  0.5793770000000  0.5711210000000  0.4497510000000 1.0
C      1  0.4731100000000  0.5703570000000  0.4104580000000 1.0
C      1  0.4340040000000  0.4529790000000  0.5838070000000 1.0
C      1  0.5580630000000  0.4542690000000  0.5874170000000 1.0
C      1  0.6020410000000  0.4539740000000  0.4709080000000 1.0
C      1  0.5046190000000  0.4553360000000  0.3936340000000 1.0
C      1  0.4010710000000  0.4556100000000  0.4637620000000 1.0
C      1  0.5693050000000  0.5046680000000  0.3912680000000 1.0
C      1  0.4191810000000  0.5011860000000  0.4048690000000 1.0
C      1  0.3833440000000  0.5018380000000  0.5505220000000 1.0
C      1  0.5078610000000  0.5012450000000  0.6282720000000 1.0
C      1  0.6265470000000  0.5066630000000  0.5380280000000 1.0
C      1  0.4516400000000  0.5664810000000  0.4722230000000 1.0
C      1  0.4608280000000  0.5680760000000  0.5342740000000 1.0
C      1  0.5198660000000  0.5643640000000  0.5434060000000 1.0
C      1  0.5506690000000  0.5667430000000  0.4953290000000 1.0
C      1  0.5146500000000  0.5675340000000  0.4481270000000 1.0
C      1  0.6029210000000  0.4991000000000  0.5502330000000 1.0
C      1  0.5774050000000  0.4985640000000  0.4168090000000 1.0
C      1  0.4464270000000  0.4976710000000  0.4034090000000 1.0
C      1  0.3901350000000  0.4972150000000  0.5242590000000 1.0
C      1  0.4858740000000  0.4974920000000  0.6121640000000 1.0
C      1  0.4773250000000  0.4699880000000  0.6078010000000 1.0
C      1  0.5978160000000  0.4704470000000  0.5512690000000 1.0
C      1  0.5821250000000  0.4703350000000  0.4220690000000 1.0
C      1  0.4558990000000  0.4709570000000  0.3992200000000 1.0
C      1  0.3916950000000  0.4700120000000  0.5149000000000 1.0
C      1  0.5641170000000  0.5290060000000  0.5168720000000 1.0
C      1  0.5406690000000  0.5348350000000  0.4324420000000 1.0
C      1  0.4481590000000  0.5315850000000  0.4439670000000 1.0
C      1  0.4310570000000  0.5358060000000  0.5306450000000 1.0
C      1  0.5068290000000  0.5317410000000  0.5701080000000 1.0
C      1  0.5667090000000  0.3954670000000  0.5215410000000 1.0
C      1  0.5414990000000  0.3969510000000  0.4429470000000 1.0
C      1  0.4599420000000  0.3983850000000  0.4433550000000 1.0
C      1  0.4345380000000  0.3959710000000  0.5202560000000 1.0
C      1  0.4996080000000  0.3960950000000  0.5690140000000 1.0
C      1  0.4054500000000  0.5405790000000  0.5732590000000 1.0
C      1  0.5350150000000  0.5391690000000  0.6121000000000 1.0
C      1  0.6120210000000  0.5310930000000  0.5040750000000 1.0
C      1  0.5356940000000  0.5397880000000  0.3841650000000 1.0
C      1  0.3995800000000  0.5347190000000  0.4332490000000 1.0
C      1  0.4354410000000  0.4223620000000  0.4796580000000 1.0
C      1  0.4603820000000  0.4212050000000  0.5545340000000 1.0
C      1  0.5402420000000  0.4205270000000  0.5541100000000 1.0
C      1  0.5651050000000  0.4202100000000  0.4779220000000 1.0
C      1  0.5000140000000  0.4228740000000  0.4315440000000 1.0
C      1  0.5637910000000  0.5918400000000  0.5389210000000 1.0
C      1  0.5599340000000  0.5921620000000  0.4546720000000 1.0
C      1  0.4719750000000  0.5914210000000  0.4295040000000 1.0
C      1  0.4260690000000  0.5901020000000  0.5049960000000 1.0
C      1  0.4851870000000  0.5911810000000  0.5694810000000 1.0
C      1  0.4727080000000  0.5925970000000  0.5224320000000 1.0
C      1  0.5150810000000  0.5912780000000  0.5308840000000 1.0
C      1  0.5365960000000  0.5927400000000  0.4974770000000 1.0
C      1  0.5086710000000  0.5929270000000  0.4635260000000 1.0
C      1  0.4669340000000  0.5916790000000  0.4787880000000 1.0
C      1  0.6089370000000  0.4477500000000  0.4975570000000 1.0
C      1  0.5322880000000  0.4496460000000  0.3957480000000 1.0
C      1  0.4117420000000  0.4502130000000  0.4380030000000 1.0
C      1  0.4134120000000  0.4472470000000  0.5652570000000 1.0
C      1  0.5347240000000  0.4481810000000  0.6021640000000 1.0
C      1  0.5298820000000  0.5158750000000  0.6260470000000 1.0
C      1  0.6345510000000  0.5189150000000  0.5155050000000 1.0
C      1  0.5492810000000  0.5163900000000  0.3782870000000 1.0
C      1  0.3995950000000  0.5101480000000  0.4205100000000 1.0
C      1  0.3920570000000  0.5164810000000  0.5709460000000 1.0
C      1  0.4681830000000  0.5341040000000  0.4983090000000 1.0
C      1  0.4833910000000  0.5267270000000  0.5247910000000 1.0
C      1  0.5182990000000  0.5313740000000  0.4979880000000 1.0
C      1  0.5375530000000  0.5296460000000  0.4762420000000 1.0
C      1  0.4946710000000  0.5452730000000  0.4560670000000 1.0
C      1  0.4648580000000  0.5205080000000  0.4051970000000 1.0
C      1  0.3987300000000  0.5198030000000  0.5075280000000 1.0
C      1  0.4774070000000  0.5203370000000  0.5936810000000 1.0
C      1  0.5829460000000  0.5203230000000  0.5558540000000 1.0
C      1  0.5817430000000  0.5206590000000  0.4360080000000 1.0
C      1  0.4416320000000  0.5207000000000  0.4734970000000 1.0
C      1  0.4494340000000  0.5190320000000  0.5492460000000 1.0
C      1  0.5311090000000  0.5157710000000  0.5611840000000 1.0
C      1  0.5629280000000  0.5168150000000  0.4870380000000 1.0
C      1  0.5114550000000  0.5217060000000  0.4324600000000 1.0
C      1  0.5142170000000  0.5511330000000  0.5935120000000 1.0
C      1  0.5897410000000  0.5461610000000  0.5173610000000 1.0
C      1  0.5438470000000  0.5547880000000  0.4089260000000 1.0
C      1  0.4250740000000  0.5505240000000  0.4330440000000 1.0
C      1  0.4129370000000  0.5551370000000  0.5479890000000 1.0
C      1  0.4871500000000  0.3997210000000  0.4468070000000 1.0
C      1  0.4469200000000  0.3995010000000  0.4960050000000 1.0
C      1  0.4810480000000  0.3995990000000  0.5491230000000 1.0
C      1  0.5423630000000  0.3972890000000  0.5341770000000 1.0
C      1  0.5469870000000  0.3969210000000  0.4698870000000 1.0
C      1  0.4982050000000  0.4818970000000  0.4062820000000 1.0
C      1  0.4116670000000  0.4821060000000  0.4737290000000 1.0
C      1  0.4450850000000  0.4806040000000  0.5789150000000 1.0
C      1  0.5559500000000  0.4819170000000  0.5758490000000 1.0
C      1  0.5887410000000  0.4812820000000  0.4691510000000 1.0
C      1  0.5932680000000  0.4345910000000  0.5166210000000 1.0
C      1  0.5459370000000  0.4363070000000  0.4161940000000 1.0
C      1  0.4361580000000  0.4378640000000  0.4318180000000 1.0
C      1  0.4143010000000  0.4339730000000  0.5406450000000 1.0
C      1  0.5116540000000  0.4357550000000  0.5924910000000 1.0
C      1  0.5578990000000  0.4896630000000  0.4997690000000 1.0
C      1  0.5181110000000  0.4946850000000  0.4435860000000 1.0
C      1  0.4535560000000  0.4943370000000  0.4664320000000 1.0
C      1  0.4506680000000  0.4922320000000  0.5364850000000 1.0
C      1  0.5167780000000  0.4907250000000  0.5574290000000 1.0
C      1  0.5661410000000  0.4334760000000  0.5655430000000 1.0
C      1  0.5852570000000  0.4320610000000  0.4563830000000 1.0
C      1  0.4858610000000  0.4331930000000  0.4054780000000 1.0
C      1  0.4058520000000  0.4327690000000  0.4850660000000 1.0
C      1  0.4570070000000  0.4316700000000  0.5843550000000 1.0
C      1  0.5559690000000  0.5657080000000  0.5792320000000 1.0
C      1  0.5945890000000  0.5623370000000  0.4736520000000 1.0
C      1  0.4996560000000  0.5650780000000  0.3994000000000 1.0
C      1  0.4023740000000  0.5634590000000  0.4709720000000 1.0
C      1  0.4441250000000  0.5667930000000  0.5801410000000 1.0
C      1  0.4097460000000  0.5153580000000  0.4790390000000 1.0
C      1  0.4488540000000  0.5166690000000  0.5804140000000 1.0
C      1  0.5589610000000  0.5159540000000  0.5745150000000 1.0
C      1  0.5880030000000  0.5141770000000  0.4650180000000 1.0
C      1  0.4953960000000  0.5165080000000  0.4047860000000 1.0
C      1  0.4740310000000  0.4961360000000  0.4474720000000 1.0
C      1  0.4429740000000  0.4933480000000  0.5092700000000 1.0
C      1  0.4884660000000  0.4935100000000  0.5603750000000 1.0
C      1  0.5497480000000  0.4934400000000  0.5276580000000 1.0
C      1  0.5415470000000  0.4898320000000  0.4585160000000 1.0
C      1  0.4670260000000  0.5529460000000  0.4505180000000 1.0
C      1  0.4480660000000  0.5532980000000  0.5100530000000 1.0
C      1  0.4916640000000  0.5479980000000  0.5461230000000 1.0
C      1  0.5385840000000  0.5472730000000  0.5171460000000 1.0
C      1  0.5406200000000  0.5537560000000  0.4596280000000 1.0
C      1  0.5471150000000  0.4451790000000  0.4808390000000 1.0
C      1  0.4942290000000  0.4497560000000  0.4457300000000 1.0
C      1  0.4467300000000  0.4489640000000  0.4899360000000 1.0
C      1  0.4697930000000  0.4498450000000  0.5458710000000 1.0
C      1  0.5332920000000  0.4461520000000  0.5384430000000 1.0
C      1  0.5211540000000  0.5721790000000  0.4180680000000 1.0
C      1  0.4261060000000  0.5707070000000  0.4557030000000 1.0
C      1  0.4365270000000  0.5737450000000  0.5528620000000 1.0
C      1  0.5274160000000  0.5705640000000  0.5741290000000 1.0
C      1  0.5807400000000  0.5685120000000  0.4991760000000 1.0
C      1  0.4943950000000  0.5479200000000  0.4872130000000 1.0
C      1  0.5089420000000  0.5004230000000  0.5004330000000 1.0
C      1  0.4961800000000  0.5792750000000  0.4941570000000 1.0
END
