TITL C-3578207-9274-790 2.3859995716171e-06 125000 -173.492103516525 0 0 30 (C1) n - 1
REM
REM in /home/bkarasulu/work/CARBON/AIRSS/Generating-Clusters/EDIP-Nigel-Params/with-SteepDescent/Higher-Symm/SD-CG/HFTN-CG
REM
REM
REM
REM
REM
REM ./C.cell (12c818d87b63d06a65506943cc24bca4)
REM
REM compiler GCC version 9.2.1 20190827 (Red Hat 9.2.1-1)
REM options -cpp -mtune=generic -march=x86-64 -g -O0 -fpre-include=/usr/include/finclude/math-vector-fortran.h
REM seed 2135316241 1656928665 2002794672 -2147076119 943588418 467706118 1904302099 642429863 1172639743 2074450717 -1321084808 -532954206 482045348 -1896850524 -1086349907 1364892938 -843009097 1564396882 -640360183 -1576157553 -1523748581 130345234 -1979883120 1599414002 408720092 -88582355 2026656111 1879595981 1123859327 -1145676006 261346747 -361840474 -194112441
REM
CELL 1.54180   50.00000   50.00000   50.00000   90.00000   90.00000   90.00000
LATT -1
SFAC C  
C      1  0.4840430000000  0.4684080000000  0.5219380000000 1.0
C      1  0.4764530000000  0.5289770000000  0.5165560000000 1.0
C      1  0.5393910000000  0.5007370000000  0.5182880000000 1.0
C      1  0.4866020000000  0.5560820000000  0.5113160000000 1.0
C      1  0.5568570000000  0.4792100000000  0.5083100000000 1.0
C      1  0.4558330000000  0.4642140000000  0.5144450000000 1.0
C      1  0.5067910000000  0.5655770000000  0.5288940000000 1.0
C      1  0.5564260000000  0.4550340000000  0.5231980000000 1.0
C      1  0.4364630000000  0.4797500000000  0.5285150000000 1.0
C      1  0.4997870000000  0.4759280000000  0.4974400000000 1.0
C      1  0.4805520000000  0.5119140000000  0.4918740000000 1.0
C      1  0.5216140000000  0.5108590000000  0.4959840000000 1.0
C      1  0.5489360000000  0.5173660000000  0.5366490000000 1.0
C      1  0.4947110000000  0.4540980000000  0.5416050000000 1.0
C      1  0.4518100000000  0.5259280000000  0.5295820000000 1.0
C      1  0.4995710000000  0.5531160000000  0.4841280000000 1.0
C      1  0.5447380000000  0.4725860000000  0.4809970000000 1.0
C      1  0.4544400000000  0.4717170000000  0.4852630000000 1.0
C      1  0.4817080000000  0.4710690000000  0.4742790000000 1.0
C      1  0.4857870000000  0.5317680000000  0.4687940000000 1.0
C      1  0.5331300000000  0.4982160000000  0.4708420000000 1.0
C      1  0.5008160000000  0.5230480000000  0.4454280000000 1.0
C      1  0.5143420000000  0.4971150000000  0.4469070000000 1.0
C      1  0.4869780000000  0.4870330000000  0.4512650000000 1.0
C      1  0.5249800000000  0.5413900000000  0.4947910000000 1.0
C      1  0.5226390000000  0.4559490000000  0.4929000000000 1.0
C      1  0.4520460000000  0.5008420000000  0.4892870000000 1.0
C      1  0.4389470000000  0.5050980000000  0.5156960000000 1.0
C      1  0.5301940000000  0.5547300000000  0.5194190000000 1.0
C      1  0.5334170000000  0.4422400000000  0.5154100000000 1.0
END
