TITL C-3577083-591-393 -3.65525623382513e-07 125000 -664.862755947309 0 0 107 (C1) n - 1
REM
REM in /home/bkarasulu/work/CARBON/AIRSS/Generating-Clusters/EDIP-Nigel-Params/with-SteepDescent/Higher-Symm/SD-CG/HFTN-CG
REM
REM
REM
REM
REM
REM ./C.cell (12c818d87b63d06a65506943cc24bca4)
REM
REM compiler GCC version 9.2.1 20190827 (Red Hat 9.2.1-1)
REM options -cpp -mtune=generic -march=x86-64 -g -O0 -fpre-include=/usr/include/finclude/math-vector-fortran.h
REM seed 943474628 -1560986593 561810776 -2024568 346068204 -475048452 -870437195 -725116580 -2103734375 1796637102 306049174 817424119 1544611832 1850328223 -2119157276 -1919696489 -947253049 -556678144 1514188571 -1137087786 -627680542 -1642258563 1160615200 1562491013 164216162 433547045 88890370 -852042721 -1504747991 1741600300 -1703923861 727514872 1343380813
REM
CELL 1.54180   50.00000   50.00000   50.00000   90.00000   90.00000   90.00000
LATT -1
SFAC C  
C      1  0.5266010000000  0.5812120000000  0.4548490000000 1.0
C      1  0.5847570000000  0.4983710000000  0.4528350000000 1.0
C      1  0.5283110000000  0.4219080000000  0.4511140000000 1.0
C      1  0.4369680000000  0.4496070000000  0.4529240000000 1.0
C      1  0.4322880000000  0.5364490000000  0.4551450000000 1.0
C      1  0.5104430000000  0.4390440000000  0.5287030000000 1.0
C      1  0.5676620000000  0.4984280000000  0.5333610000000 1.0
C      1  0.5207860000000  0.5551410000000  0.5279640000000 1.0
C      1  0.4490210000000  0.5426280000000  0.5356480000000 1.0
C      1  0.4385010000000  0.4658470000000  0.5347150000000 1.0
C      1  0.4313050000000  0.5636540000000  0.4970530000000 1.0
C      1  0.5461160000000  0.5823190000000  0.4977200000000 1.0
C      1  0.5925600000000  0.4800160000000  0.4964610000000 1.0
C      1  0.5114140000000  0.4051080000000  0.4951610000000 1.0
C      1  0.4066910000000  0.4553560000000  0.4996440000000 1.0
C      1  0.4369170000000  0.4138680000000  0.4829120000000 1.0
C      1  0.5608340000000  0.4099230000000  0.4850230000000 1.0
C      1  0.6146290000000  0.5257620000000  0.4821460000000 1.0
C      1  0.5073580000000  0.6154160000000  0.4861550000000 1.0
C      1  0.3966270000000  0.5291690000000  0.4864050000000 1.0
C      1  0.5245520000000  0.4448570000000  0.4333050000000 1.0
C      1  0.4561820000000  0.4654090000000  0.4379770000000 1.0
C      1  0.4535750000000  0.5188510000000  0.4441430000000 1.0
C      1  0.5135530000000  0.5587950000000  0.4424320000000 1.0
C      1  0.5609100000000  0.5053460000000  0.4381450000000 1.0
C      1  0.5259630000000  0.5470190000000  0.5567130000000 1.0
C      1  0.4531700000000  0.5466940000000  0.5672750000000 1.0
C      1  0.4423700000000  0.4759680000000  0.5633340000000 1.0
C      1  0.5022840000000  0.4491700000000  0.5556830000000 1.0
C      1  0.5619500000000  0.4891680000000  0.5636410000000 1.0
C      1  0.4493200000000  0.5211140000000  0.5826530000000 1.0
C      1  0.5057770000000  0.5509680000000  0.5776440000000 1.0
C      1  0.5485730000000  0.5116020000000  0.5778440000000 1.0
C      1  0.5228580000000  0.4594470000000  0.5742770000000 1.0
C      1  0.4672230000000  0.4666500000000  0.5762330000000 1.0
C      1  0.4513790000000  0.4893040000000  0.4217720000000 1.0
C      1  0.4979920000000  0.4501520000000  0.4226510000000 1.0
C      1  0.5462140000000  0.4829140000000  0.4274570000000 1.0
C      1  0.5313780000000  0.5379800000000  0.4334910000000 1.0
C      1  0.4759980000000  0.5354250000000  0.4374560000000 1.0
C      1  0.4801810000000  0.4819050000000  0.5988790000000 1.0
C      1  0.4768120000000  0.5121850000000  0.5954630000000 1.0
C      1  0.5047710000000  0.5285190000000  0.5993130000000 1.0
C      1  0.5277740000000  0.5067230000000  0.5999800000000 1.0
C      1  0.5119280000000  0.4791850000000  0.5958520000000 1.0
C      1  0.4879880000000  0.5229150000000  0.4137070000000 1.0
C      1  0.4760650000000  0.4962250000000  0.4067370000000 1.0
C      1  0.4994000000000  0.4757640000000  0.4053260000000 1.0
C      1  0.5253480000000  0.4923950000000  0.4081750000000 1.0
C      1  0.5174230000000  0.5210300000000  0.4131440000000 1.0
C      1  0.5800890000000  0.4743530000000  0.4703070000000 1.0
C      1  0.5039620000000  0.4164830000000  0.4683580000000 1.0
C      1  0.4216380000000  0.4656970000000  0.4742930000000 1.0
C      1  0.4430200000000  0.5604620000000  0.4701430000000 1.0
C      1  0.5511000000000  0.5726230000000  0.4704240000000 1.0
C      1  0.5800930000000  0.5218730000000  0.5186380000000 1.0
C      1  0.5018990000000  0.5776850000000  0.5198680000000 1.0
C      1  0.4269710000000  0.5244720000000  0.5247000000000 1.0
C      1  0.4536820000000  0.4459290000000  0.5168170000000 1.0
C      1  0.5394270000000  0.4357390000000  0.5206300000000 1.0
C      1  0.5909150000000  0.5251150000000  0.4660370000000 1.0
C      1  0.5538180000000  0.4288060000000  0.4656840000000 1.0
C      1  0.4524650000000  0.4262270000000  0.4630830000000 1.0
C      1  0.4150620000000  0.5169430000000  0.4693820000000 1.0
C      1  0.5017820000000  0.5938870000000  0.4680450000000 1.0
C      1  0.5738070000000  0.4730800000000  0.5177920000000 1.0
C      1  0.5477780000000  0.5595420000000  0.5159590000000 1.0
C      1  0.4525690000000  0.5661690000000  0.5175100000000 1.0
C      1  0.4121550000000  0.4750000000000  0.5212540000000 1.0
C      1  0.4935400000000  0.4183620000000  0.5148020000000 1.0
C      1  0.4831140000000  0.5240410000000  0.5332470000000 1.0
C      1  0.5087670000000  0.5292890000000  0.5160330000000 1.0
C      1  0.5370680000000  0.5064980000000  0.5274170000000 1.0
C      1  0.5266070000000  0.4785100000000  0.5203610000000 1.0
C      1  0.4704620000000  0.4955580000000  0.5346390000000 1.0
C      1  0.4770400000000  0.4887940000000  0.5064630000000 1.0
C      1  0.5053390000000  0.4809890000000  0.4989780000000 1.0
C      1  0.5161580000000  0.5011370000000  0.4752410000000 1.0
C      1  0.4998170000000  0.5252980000000  0.4849810000000 1.0
C      1  0.4733630000000  0.5121880000000  0.4894770000000 1.0
C      1  0.4831010000000  0.5375260000000  0.5618900000000 1.0
C      1  0.5278620000000  0.5167700000000  0.5561440000000 1.0
C      1  0.5410190000000  0.4705400000000  0.5557480000000 1.0
C      1  0.4860270000000  0.4752230000000  0.5544060000000 1.0
C      1  0.4426510000000  0.5039980000000  0.5605990000000 1.0
C      1  0.4835680000000  0.4590120000000  0.4473220000000 1.0
C      1  0.5316310000000  0.4693020000000  0.4498900000000 1.0
C      1  0.5430550000000  0.5217820000000  0.4561890000000 1.0
C      1  0.4920470000000  0.5477430000000  0.4598770000000 1.0
C      1  0.4615880000000  0.4990550000000  0.4661430000000 1.0
C      1  0.5525680000000  0.4589370000000  0.4724830000000 1.0
C      1  0.4805730000000  0.4368100000000  0.4703360000000 1.0
C      1  0.4328770000000  0.4943410000000  0.4800230000000 1.0
C      1  0.4775500000000  0.5717820000000  0.4739340000000 1.0
C      1  0.5626750000000  0.5399320000000  0.4734040000000 1.0
C      1  0.5591710000000  0.5358720000000  0.5032340000000 1.0
C      1  0.4786050000000  0.5681090000000  0.5042920000000 1.0
C      1  0.4337680000000  0.4969170000000  0.5118990000000 1.0
C      1  0.4814790000000  0.4454860000000  0.5029140000000 1.0
C      1  0.5486720000000  0.4610730000000  0.5069640000000 1.0
C      1  0.4314110000000  0.4369970000000  0.4996750000000 1.0
C      1  0.4124150000000  0.5419400000000  0.5059680000000 1.0
C      1  0.5193810000000  0.5955810000000  0.5034130000000 1.0
C      1  0.6002880000000  0.5091470000000  0.5008980000000 1.0
C      1  0.5401360000000  0.4112730000000  0.5041100000000 1.0
C      1  0.4968300000000  0.4854600000000  0.4563460000000 1.0
C      1  0.5015080000000  0.5007300000000  0.5654960000000 1.0
END
