TITL C-3578201-9217-337 -3.84941116351076e-07 125000 -467.566613271581 0 0 77 (C1) n - 1
REM
REM in /home/bkarasulu/work/CARBON/AIRSS/Generating-Clusters/EDIP-Nigel-Params/with-SteepDescent/Higher-Symm/SD-CG/HFTN-CG
REM
REM
REM
REM
REM
REM ./C.cell (12c818d87b63d06a65506943cc24bca4)
REM
REM compiler GCC version 9.2.1 20190827 (Red Hat 9.2.1-1)
REM options -cpp -mtune=generic -march=x86-64 -g -O0 -fpre-include=/usr/include/finclude/math-vector-fortran.h
REM seed 530155281 295568973 -1384840620 15057735 -982826323 -1384673922 979185545 67164840 480679764 1410609903 -1188182903 -779567681 348077889 -1573916884 731090433 1295470402 2077252452 2111377587 14819349 -1258256124 1212639365 -1233646332 1753475655 -571661955 -1591998344 1098686363 -595884182 1577528657 -89096761 -2033805767 894760818 -1033176067 1312176022
REM
CELL 1.54180   50.00000   50.00000   50.00000   90.00000   90.00000   90.00000
LATT -1
SFAC C  
C      1  0.4841140000000  0.5342070000000  0.4823510000000 1.0
C      1  0.4885000000000  0.4840220000000  0.4644450000000 1.0
C      1  0.4694970000000  0.4630440000000  0.5116120000000 1.0
C      1  0.4779730000000  0.5127710000000  0.5320570000000 1.0
C      1  0.4829890000000  0.4589050000000  0.4840950000000 1.0
C      1  0.4741000000000  0.5106290000000  0.4691820000000 1.0
C      1  0.4932610000000  0.5330300000000  0.5112790000000 1.0
C      1  0.4852550000000  0.4817110000000  0.5291710000000 1.0
C      1  0.5538030000000  0.5486950000000  0.4736700000000 1.0
C      1  0.5452320000000  0.4863650000000  0.4664760000000 1.0
C      1  0.5556100000000  0.4539870000000  0.5258610000000 1.0
C      1  0.5523170000000  0.5199950000000  0.5396190000000 1.0
C      1  0.5503470000000  0.4623870000000  0.4813210000000 1.0
C      1  0.5512830000000  0.5280900000000  0.4530350000000 1.0
C      1  0.5474240000000  0.5349490000000  0.5153830000000 1.0
C      1  0.5568270000000  0.4744740000000  0.5474560000000 1.0
C      1  0.4397250000000  0.4663980000000  0.4791400000000 1.0
C      1  0.4418720000000  0.4898850000000  0.5312840000000 1.0
C      1  0.4494160000000  0.5378800000000  0.5096100000000 1.0
C      1  0.4299550000000  0.5118960000000  0.4690060000000 1.0
C      1  0.4396510000000  0.5351210000000  0.4824570000000 1.0
C      1  0.4396850000000  0.5186100000000  0.5288700000000 1.0
C      1  0.4333670000000  0.4748990000000  0.5070130000000 1.0
C      1  0.4395090000000  0.4869530000000  0.4573090000000 1.0
C      1  0.5263700000000  0.4493450000000  0.5189300000000 1.0
C      1  0.5279760000000  0.5119990000000  0.5529020000000 1.0
C      1  0.5240880000000  0.5521440000000  0.4781710000000 1.0
C      1  0.5185150000000  0.4923660000000  0.4534410000000 1.0
C      1  0.5209250000000  0.5481970000000  0.5088620000000 1.0
C      1  0.5282210000000  0.4826010000000  0.5536820000000 1.0
C      1  0.5256540000000  0.4501510000000  0.4893790000000 1.0
C      1  0.5211410000000  0.5235140000000  0.4513060000000 1.0
C      1  0.4600870000000  0.5661220000000  0.4487730000000 1.0
C      1  0.4695010000000  0.4475550000000  0.4331640000000 1.0
C      1  0.4608210000000  0.4353980000000  0.5519050000000 1.0
C      1  0.4563520000000  0.5466750000000  0.5683880000000 1.0
C      1  0.4539510000000  0.4311340000000  0.4474010000000 1.0
C      1  0.4486990000000  0.5434770000000  0.4399400000000 1.0
C      1  0.4622810000000  0.5641510000000  0.5491360000000 1.0
C      1  0.4514190000000  0.4534720000000  0.5691330000000 1.0
C      1  0.5164510000000  0.4331890000000  0.4459530000000 1.0
C      1  0.5111350000000  0.4433180000000  0.5767510000000 1.0
C      1  0.5179670000000  0.5731450000000  0.5503100000000 1.0
C      1  0.5063890000000  0.5604690000000  0.4235250000000 1.0
C      1  0.5109500000000  0.5800100000000  0.4414010000000 1.0
C      1  0.5162620000000  0.5552750000000  0.5702010000000 1.0
C      1  0.5116390000000  0.4243030000000  0.5577870000000 1.0
C      1  0.5203980000000  0.4524610000000  0.4275420000000 1.0
C      1  0.4623120000000  0.4784500000000  0.5606120000000 1.0
C      1  0.4680720000000  0.5607220000000  0.5217120000000 1.0
C      1  0.4611900000000  0.5177540000000  0.4415770000000 1.0
C      1  0.4560630000000  0.4403710000000  0.4744370000000 1.0
C      1  0.4691980000000  0.5223510000000  0.5618900000000 1.0
C      1  0.4669200000000  0.4360230000000  0.5248670000000 1.0
C      1  0.4719600000000  0.4753010000000  0.4387220000000 1.0
C      1  0.4684600000000  0.5602470000000  0.4758970000000 1.0
C      1  0.5137760000000  0.4239210000000  0.5298150000000 1.0
C      1  0.5157500000000  0.5275360000000  0.5738070000000 1.0
C      1  0.5132990000000  0.5786820000000  0.4692380000000 1.0
C      1  0.5169750000000  0.4801700000000  0.4259000000000 1.0
C      1  0.5162050000000  0.5746850000000  0.5225540000000 1.0
C      1  0.5133570000000  0.4712110000000  0.5777360000000 1.0
C      1  0.5138290000000  0.4295910000000  0.4734070000000 1.0
C      1  0.5082960000000  0.5327080000000  0.4259030000000 1.0
C      1  0.4889950000000  0.5821550000000  0.5127620000000 1.0
C      1  0.4836990000000  0.5165080000000  0.4196470000000 1.0
C      1  0.4884340000000  0.4207460000000  0.4851110000000 1.0
C      1  0.4870170000000  0.4857610000000  0.5799510000000 1.0
C      1  0.4880320000000  0.4176670000000  0.5151800000000 1.0
C      1  0.4894390000000  0.4875410000000  0.4172840000000 1.0
C      1  0.4872810000000  0.5832060000000  0.4833070000000 1.0
C      1  0.4895300000000  0.5153950000000  0.5818630000000 1.0
C      1  0.5654940000000  0.5043750000000  0.4595540000000 1.0
C      1  0.5693090000000  0.4619420000000  0.5023520000000 1.0
C      1  0.5705140000000  0.4981560000000  0.5395310000000 1.0
C      1  0.5677320000000  0.5403030000000  0.4968970000000 1.0
C      1  0.5134780000000  0.4740120000000  0.5300550000000 1.0
END
