TITL C-3577090-796-619 -1.96870453807953e-06 125000 -755.255640866048 0 0 121 (C1) n - 1
REM
REM in /home/bkarasulu/work/CARBON/AIRSS/Generating-Clusters/EDIP-Nigel-Params/with-SteepDescent/Higher-Symm/SD-CG/HFTN-CG
REM
REM
REM
REM
REM
REM ./C.cell (12c818d87b63d06a65506943cc24bca4)
REM
REM compiler GCC version 9.2.1 20190827 (Red Hat 9.2.1-1)
REM options -cpp -mtune=generic -march=x86-64 -g -O0 -fpre-include=/usr/include/finclude/math-vector-fortran.h
REM seed -883842218 -1799458673 451294471 -2046631588 1333571001 13733720 -1307945433 1768545249 1683857736 2081457433 1333952048 -1760327369 -213539666 -1485228297 2001186371 1047889661 896161229 -1219464539 1343829975 443646011 -1830426117 1568138323 1114336028 112777438 -2041649362 -1051425619 1763050668 -1171981730 -1428270607 -202619920 -423813583 -2037109961 -29382514
REM
CELL 1.54180   50.00000   50.00000   50.00000   90.00000   90.00000   90.00000
LATT -1
SFAC C  
C      1  0.4200590000000  0.5438070000000  0.5505590000000 1.0
C      1  0.5832190000000  0.5435800000000  0.5448570000000 1.0
C      1  0.4970480000000  0.5456760000000  0.4092980000000 1.0
C      1  0.5263900000000  0.4303990000000  0.4489300000000 1.0
C      1  0.4429000000000  0.4304870000000  0.5024710000000 1.0
C      1  0.5309000000000  0.4299110000000  0.5482270000000 1.0
C      1  0.4214020000000  0.4986670000000  0.5643140000000 1.0
C      1  0.5946170000000  0.4986120000000  0.5365660000000 1.0
C      1  0.4847270000000  0.5003540000000  0.4004230000000 1.0
C      1  0.5298740000000  0.4249300000000  0.4986440000000 1.0
C      1  0.4840520000000  0.4251360000000  0.4745690000000 1.0
C      1  0.4861550000000  0.4248740000000  0.5263430000000 1.0
C      1  0.5156870000000  0.5894020000000  0.5471130000000 1.0
C      1  0.5263970000000  0.5849150000000  0.4578460000000 1.0
C      1  0.4522320000000  0.5902860000000  0.4905310000000 1.0
C      1  0.5679170000000  0.4246370000000  0.4683270000000 1.0
C      1  0.4387830000000  0.4251720000000  0.4567620000000 1.0
C      1  0.4934100000000  0.4241980000000  0.5744820000000 1.0
C      1  0.5368180000000  0.4526040000000  0.5301090000000 1.0
C      1  0.5077190000000  0.4529920000000  0.4530970000000 1.0
C      1  0.4558450000000  0.4529430000000  0.5168620000000 1.0
C      1  0.5354340000000  0.4811900000000  0.4246120000000 1.0
C      1  0.4172210000000  0.4811650000000  0.5074560000000 1.0
C      1  0.5476540000000  0.4806390000000  0.5684990000000 1.0
C      1  0.5766360000000  0.5238170000000  0.4340460000000 1.0
C      1  0.4060360000000  0.5240890000000  0.4689030000000 1.0
C      1  0.5195400000000  0.5233050000000  0.5977470000000 1.0
C      1  0.5181990000000  0.5724520000000  0.5698220000000 1.0
C      1  0.5514680000000  0.5740090000000  0.4467940000000 1.0
C      1  0.4317010000000  0.5726890000000  0.4818020000000 1.0
C      1  0.4171110000000  0.5573760000000  0.5029280000000 1.0
C      1  0.5437160000000  0.5569190000000  0.5717110000000 1.0
C      1  0.5418130000000  0.5569120000000  0.4247340000000 1.0
C      1  0.5122750000000  0.5613490000000  0.4296790000000 1.0
C      1  0.4315280000000  0.5592440000000  0.5289180000000 1.0
C      1  0.5588620000000  0.5591450000000  0.5461110000000 1.0
C      1  0.5534420000000  0.4402690000000  0.4500970000000 1.0
C      1  0.4303070000000  0.4406160000000  0.4785840000000 1.0
C      1  0.5164340000000  0.4398390000000  0.5711550000000 1.0
C      1  0.4300850000000  0.4648590000000  0.5275270000000 1.0
C      1  0.5587640000000  0.4644910000000  0.5472890000000 1.0
C      1  0.5114930000000  0.4650940000000  0.4254470000000 1.0
C      1  0.4782060000000  0.5266020000000  0.4488250000000 1.0
C      1  0.4664470000000  0.5267560000000  0.5453720000000 1.0
C      1  0.5550860000000  0.5264770000000  0.5077260000000 1.0
C      1  0.5011760000000  0.5868400000000  0.5227450000000 1.0
C      1  0.5198240000000  0.5866350000000  0.4864730000000 1.0
C      1  0.4807570000000  0.5872140000000  0.4894740000000 1.0
C      1  0.4705500000000  0.4187020000000  0.5009710000000 1.0
C      1  0.5157750000000  0.4184720000000  0.5247810000000 1.0
C      1  0.5137520000000  0.4186860000000  0.4736890000000 1.0
C      1  0.4711320000000  0.4745130000000  0.4954020000000 1.0
C      1  0.5102510000000  0.4740020000000  0.5281450000000 1.0
C      1  0.5185980000000  0.4741910000000  0.4773930000000 1.0
C      1  0.4384710000000  0.5154930000000  0.4324560000000 1.0
C      1  0.4717750000000  0.5146820000000  0.5877700000000 1.0
C      1  0.5889500000000  0.5151520000000  0.4812710000000 1.0
C      1  0.5789510000000  0.4863830000000  0.4755080000000 1.0
C      1  0.4386440000000  0.4867620000000  0.4442140000000 1.0
C      1  0.4819230000000  0.4859520000000  0.5816610000000 1.0
C      1  0.5811040000000  0.5340280000000  0.4598290000000 1.0
C      1  0.4242710000000  0.5341920000000  0.4502550000000 1.0
C      1  0.4943090000000  0.5334820000000  0.5912250000000 1.0
C      1  0.5032440000000  0.5456360000000  0.4548770000000 1.0
C      1  0.4579630000000  0.5456100000000  0.5216440000000 1.0
C      1  0.5391320000000  0.5460470000000  0.5267350000000 1.0
C      1  0.4429540000000  0.4547220000000  0.5732990000000 1.0
C      1  0.5918700000000  0.4548890000000  0.5130780000000 1.0
C      1  0.4653110000000  0.4560840000000  0.4139540000000 1.0
C      1  0.5317860000000  0.5638980000000  0.5006980000000 1.0
C      1  0.4851340000000  0.5625380000000  0.4740230000000 1.0
C      1  0.4835910000000  0.5636080000000  0.5267870000000 1.0
C      1  0.5805310000000  0.4812440000000  0.4467540000000 1.0
C      1  0.4129430000000  0.4815520000000  0.4572550000000 1.0
C      1  0.5062230000000  0.4806670000000  0.5970940000000 1.0
C      1  0.5153660000000  0.5034510000000  0.5177840000000 1.0
C      1  0.5075420000000  0.5016070000000  0.4743740000000 1.0
C      1  0.4773260000000  0.5028620000000  0.5067190000000 1.0
C      1  0.4874370000000  0.4742460000000  0.4118040000000 1.0
C      1  0.4299690000000  0.4729970000000  0.5554770000000 1.0
C      1  0.5829660000000  0.4728490000000  0.5335160000000 1.0
C      1  0.5588590000000  0.4207350000000  0.4945310000000 1.0
C      1  0.4660020000000  0.4213670000000  0.4513990000000 1.0
C      1  0.4752190000000  0.4205350000000  0.5535140000000 1.0
C      1  0.4138780000000  0.5169050000000  0.5438490000000 1.0
C      1  0.5806200000000  0.5166460000000  0.5534940000000 1.0
C      1  0.5060530000000  0.5186740000000  0.4054260000000 1.0
C      1  0.4193290000000  0.4681720000000  0.4809580000000 1.0
C      1  0.5237270000000  0.4674100000000  0.5797490000000 1.0
C      1  0.5571470000000  0.4678190000000  0.4395480000000 1.0
C      1  0.4723590000000  0.4323490000000  0.4267760000000 1.0
C      1  0.4506700000000  0.4311920000000  0.5605310000000 1.0
C      1  0.5771070000000  0.4312720000000  0.5124650000000 1.0
C      1  0.5571470000000  0.5084050000000  0.5688600000000 1.0
C      1  0.5315200000000  0.5091530000000  0.4165520000000 1.0
C      1  0.4122350000000  0.5088730000000  0.5157710000000 1.0
C      1  0.4482560000000  0.5253230000000  0.5702560000000 1.0
C      1  0.5856620000000  0.5252130000000  0.5104770000000 1.0
C      1  0.4653940000000  0.5263500000000  0.4208500000000 1.0
C      1  0.4720070000000  0.5002690000000  0.5351010000000 1.0
C      1  0.5428390000000  0.5003260000000  0.5076590000000 1.0
C      1  0.4843400000000  0.4999890000000  0.4581680000000 1.0
C      1  0.4881280000000  0.4821160000000  0.5507560000000 1.0
C      1  0.5488900000000  0.4821700000000  0.4857580000000 1.0
C      1  0.4624480000000  0.4825100000000  0.4651510000000 1.0
C      1  0.4943220000000  0.5608590000000  0.5820460000000 1.0
C      1  0.5713740000000  0.5610490000000  0.4645140000000 1.0
C      1  0.4328960000000  0.5612340000000  0.4550810000000 1.0
C      1  0.5512550000000  0.5292100000000  0.4233620000000 1.0
C      1  0.4077210000000  0.5299070000000  0.4962300000000 1.0
C      1  0.5424150000000  0.5292600000000  0.5827390000000 1.0
C      1  0.4933560000000  0.5431960000000  0.5481750000000 1.0
C      1  0.5444610000000  0.5419240000000  0.4829960000000 1.0
C      1  0.4620820000000  0.5425710000000  0.4713040000000 1.0
C      1  0.5965600000000  0.4677600000000  0.4888960000000 1.0
C      1  0.4417320000000  0.4683020000000  0.4221770000000 1.0
C      1  0.4615460000000  0.4671200000000  0.5898710000000 1.0
C      1  0.5167770000000  0.5279360000000  0.5364830000000 1.0
C      1  0.5223010000000  0.5270230000000  0.4684820000000 1.0
C      1  0.4608290000000  0.5273460000000  0.4975870000000 1.0
C      1  0.5002040000000  0.4658150000000  0.5000410000000 1.0
END
