TITL C-3577077-324-116 1.92454279860856e-06 125000 -506.262116325943 0 0 85 (C1) n - 1
REM
REM in /home/bkarasulu/work/CARBON/AIRSS/Generating-Clusters/EDIP-Nigel-Params/with-SteepDescent/Higher-Symm/SD-CG/HFTN-CG
REM
REM
REM
REM
REM
REM ./C.cell (12c818d87b63d06a65506943cc24bca4)
REM
REM compiler GCC version 9.2.1 20190827 (Red Hat 9.2.1-1)
REM options -cpp -mtune=generic -march=x86-64 -g -O0 -fpre-include=/usr/include/finclude/math-vector-fortran.h
REM seed 231944956 -1311408691 -1604938015 -1118271720 101069650 1695371233 -410078006 77898188 1832161145 189419071 -1834543937 -1681272296 1640113938 1303559865 -1883710902 763054872 1585482336 2019186418 -2018242069 1389493297 2006694023 96520163 1734604536 -1152321519 1753832428 1882874074 250920498 416453486 -1364662395 721761498 442699551 746405871 -412810426
REM
CELL 1.54180   50.00000   50.00000   50.00000   90.00000   90.00000   90.00000
LATT -1
SFAC C  
C      1  0.5681450000000  0.4711680000000  0.4790630000000 1.0
C      1  0.4919760000000  0.5740780000000  0.4708160000000 1.0
C      1  0.4406680000000  0.4563330000000  0.4713370000000 1.0
C      1  0.5681640000000  0.4717900000000  0.5176800000000 1.0
C      1  0.4921980000000  0.5743270000000  0.5283050000000 1.0
C      1  0.4400970000000  0.4567450000000  0.5279170000000 1.0
C      1  0.5121580000000  0.5419650000000  0.5641190000000 1.0
C      1  0.4570600000000  0.4880690000000  0.5640560000000 1.0
C      1  0.5362100000000  0.4650540000000  0.5633880000000 1.0
C      1  0.5120660000000  0.5427820000000  0.4352100000000 1.0
C      1  0.4575450000000  0.4877500000000  0.4352280000000 1.0
C      1  0.5343830000000  0.4676870000000  0.4391470000000 1.0
C      1  0.4397860000000  0.5363470000000  0.4340260000000 1.0
C      1  0.5005730000000  0.4290860000000  0.4371010000000 1.0
C      1  0.5630210000000  0.5338900000000  0.4352300000000 1.0
C      1  0.4397140000000  0.5368070000000  0.5651300000000 1.0
C      1  0.4987480000000  0.4285670000000  0.5627190000000 1.0
C      1  0.5626920000000  0.5325310000000  0.5634660000000 1.0
C      1  0.4310150000000  0.4822650000000  0.4458300000000 1.0
C      1  0.5530020000000  0.4488390000000  0.4514080000000 1.0
C      1  0.5196800000000  0.5686850000000  0.4457570000000 1.0
C      1  0.4305340000000  0.4828020000000  0.5532830000000 1.0
C      1  0.5521680000000  0.4485570000000  0.5440680000000 1.0
C      1  0.5196270000000  0.5678790000000  0.5534400000000 1.0
C      1  0.5422010000000  0.4950000000000  0.4339830000000 1.0
C      1  0.4838380000000  0.5368960000000  0.4312440000000 1.0
C      1  0.4777870000000  0.4666810000000  0.4327730000000 1.0
C      1  0.5419840000000  0.4935880000000  0.5643490000000 1.0
C      1  0.4837770000000  0.5366310000000  0.5678970000000 1.0
C      1  0.4773280000000  0.4670730000000  0.5665820000000 1.0
C      1  0.5072270000000  0.5518740000000  0.5150950000000 1.0
C      1  0.4515810000000  0.4819500000000  0.5152760000000 1.0
C      1  0.5370990000000  0.4702160000000  0.5155800000000 1.0
C      1  0.5074290000000  0.5515990000000  0.4836160000000 1.0
C      1  0.4518320000000  0.4817260000000  0.4839350000000 1.0
C      1  0.5375430000000  0.4696680000000  0.4857040000000 1.0
C      1  0.4700150000000  0.4373630000000  0.4379660000000 1.0
C      1  0.5708220000000  0.5030540000000  0.4397210000000 1.0
C      1  0.4623830000000  0.5584160000000  0.4363420000000 1.0
C      1  0.4691070000000  0.4380400000000  0.5616490000000 1.0
C      1  0.5703370000000  0.5021540000000  0.5582240000000 1.0
C      1  0.4626490000000  0.5585500000000  0.5627360000000 1.0
C      1  0.4620200000000  0.5153320000000  0.4267410000000 1.0
C      1  0.5081270000000  0.4582850000000  0.4302880000000 1.0
C      1  0.5340020000000  0.5245390000000  0.4280360000000 1.0
C      1  0.4616400000000  0.5155630000000  0.5726860000000 1.0
C      1  0.5082000000000  0.4573180000000  0.5689370000000 1.0
C      1  0.5338930000000  0.5233390000000  0.5715590000000 1.0
C      1  0.4944020000000  0.4615620000000  0.5146800000000 1.0
C      1  0.5365270000000  0.5190590000000  0.5136860000000 1.0
C      1  0.4656600000000  0.5234480000000  0.5145480000000 1.0
C      1  0.4943890000000  0.4612010000000  0.4856620000000 1.0
C      1  0.5364000000000  0.5184310000000  0.4845760000000 1.0
C      1  0.4657670000000  0.5233110000000  0.4846380000000 1.0
C      1  0.4251430000000  0.5031870000000  0.5327430000000 1.0
C      1  0.5343750000000  0.4296470000000  0.5320990000000 1.0
C      1  0.5394220000000  0.5634620000000  0.5326540000000 1.0
C      1  0.4253190000000  0.5026870000000  0.4662800000000 1.0
C      1  0.5360600000000  0.4342940000000  0.4701770000000 1.0
C      1  0.5395910000000  0.5638730000000  0.4664600000000 1.0
C      1  0.4807180000000  0.4860280000000  0.5269120000000 1.0
C      1  0.5216480000000  0.4950850000000  0.5255210000000 1.0
C      1  0.4949160000000  0.5255330000000  0.5268240000000 1.0
C      1  0.4811420000000  0.4853390000000  0.4724980000000 1.0
C      1  0.5216410000000  0.4936960000000  0.4728830000000 1.0
C      1  0.4950890000000  0.5248430000000  0.4719900000000 1.0
C      1  0.5077730000000  0.4205240000000  0.5355080000000 1.0
C      1  0.5630180000000  0.5464570000000  0.5367450000000 1.0
C      1  0.4288430000000  0.5320450000000  0.5374730000000 1.0
C      1  0.5096170000000  0.4223810000000  0.4648790000000 1.0
C      1  0.5635530000000  0.5473320000000  0.4620990000000 1.0
C      1  0.4289010000000  0.5315960000000  0.4616550000000 1.0
C      1  0.5777200000000  0.4982360000000  0.5295950000000 1.0
C      1  0.4638220000000  0.5688670000000  0.5348340000000 1.0
C      1  0.4585250000000  0.4343240000000  0.5341030000000 1.0
C      1  0.5777830000000  0.4981970000000  0.4681950000000 1.0
C      1  0.4636000000000  0.5686620000000  0.4642800000000 1.0
C      1  0.4594200000000  0.4339510000000  0.4655750000000 1.0
C      1  0.4858690000000  0.4328450000000  0.4818180000000 1.0
C      1  0.5658390000000  0.5232600000000  0.4807590000000 1.0
C      1  0.4478070000000  0.5473430000000  0.4805990000000 1.0
C      1  0.4853560000000  0.4330580000000  0.5186230000000 1.0
C      1  0.5660880000000  0.5233730000000  0.5171280000000 1.0
C      1  0.4477930000000  0.5476520000000  0.5185240000000 1.0
C      1  0.4985600000000  0.5023620000000  0.4995160000000 1.0
END
