TITL C-3577081-279-530 -3.47862142137743e-06 125000 -1185.89270444422 0 0 188 (C1) n - 1
REM
REM in /home/bkarasulu/work/CARBON/AIRSS/Generating-Clusters/EDIP-Nigel-Params/with-SteepDescent/Higher-Symm/SD-CG/HFTN-CG
REM
REM
REM
REM
REM
REM ./C.cell (12c818d87b63d06a65506943cc24bca4)
REM
REM compiler GCC version 9.2.1 20190827 (Red Hat 9.2.1-1)
REM options -cpp -mtune=generic -march=x86-64 -g -O0 -fpre-include=/usr/include/finclude/math-vector-fortran.h
REM seed 398720493 2132758165 -1135012735 -376996772 1153692020 721864272 -1879459479 1554261337 -1624824697 1731344841 -1241470588 -1698838344 -1762108006 843851137 -1191080533 1944226115 2094393162 262173951 -213860705 689291172 -1657902089 606838808 -471723943 -64903196 1765804834 849182636 1658545665 -1304364920 -23075615 2128570194 -267257700 2052143905 973539007
REM
CELL 1.54180   50.00000   50.00000   50.00000   90.00000   90.00000   90.00000
LATT -1
SFAC C  
C      1  0.3955800000000  0.4618740000000  0.4329900000000 1.0
C      1  0.5113540000000  0.4103710000000  0.4408270000000 1.0
C      1  0.6043740000000  0.4806220000000  0.4391060000000 1.0
C      1  0.5628180000000  0.5899620000000  0.4327400000000 1.0
C      1  0.4325060000000  0.5757020000000  0.4466270000000 1.0
C      1  0.3941360000000  0.4629260000000  0.5619990000000 1.0
C      1  0.5027370000000  0.3873690000000  0.5660410000000 1.0
C      1  0.5956790000000  0.4803840000000  0.5636300000000 1.0
C      1  0.5624350000000  0.5955370000000  0.5591710000000 1.0
C      1  0.4369520000000  0.5858950000000  0.5621440000000 1.0
C      1  0.5197340000000  0.4394240000000  0.4484400000000 1.0
C      1  0.5699150000000  0.4949830000000  0.4496270000000 1.0
C      1  0.5137040000000  0.5532650000000  0.4610150000000 1.0
C      1  0.4420190000000  0.5476030000000  0.4495380000000 1.0
C      1  0.4405860000000  0.4686800000000  0.4670840000000 1.0
C      1  0.5174180000000  0.4386640000000  0.5443180000000 1.0
C      1  0.5716010000000  0.4976150000000  0.5597410000000 1.0
C      1  0.5235790000000  0.5579860000000  0.5395010000000 1.0
C      1  0.4529520000000  0.5332010000000  0.5311650000000 1.0
C      1  0.4317360000000  0.4637930000000  0.5273390000000 1.0
C      1  0.4916140000000  0.4500310000000  0.5493100000000 1.0
C      1  0.5438250000000  0.4814960000000  0.5592690000000 1.0
C      1  0.5398340000000  0.5348960000000  0.5480910000000 1.0
C      1  0.4798050000000  0.5332370000000  0.5446910000000 1.0
C      1  0.4456670000000  0.4796880000000  0.5475610000000 1.0
C      1  0.4951410000000  0.4557530000000  0.4527340000000 1.0
C      1  0.5452650000000  0.4750590000000  0.4479850000000 1.0
C      1  0.5328440000000  0.5311340000000  0.4531600000000 1.0
C      1  0.4706660000000  0.5446910000000  0.4425000000000 1.0
C      1  0.4442610000000  0.4964260000000  0.4596100000000 1.0
C      1  0.4681820000000  0.4922840000000  0.5333880000000 1.0
C      1  0.4818980000000  0.4677480000000  0.5247580000000 1.0
C      1  0.5323130000000  0.4783310000000  0.5312340000000 1.0
C      1  0.5488040000000  0.5188610000000  0.5240010000000 1.0
C      1  0.5020030000000  0.5209200000000  0.5295710000000 1.0
C      1  0.4560590000000  0.5134600000000  0.4821960000000 1.0
C      1  0.4886400000000  0.4639380000000  0.4789040000000 1.0
C      1  0.5322940000000  0.4700160000000  0.4762420000000 1.0
C      1  0.5429610000000  0.5198910000000  0.4797440000000 1.0
C      1  0.4868660000000  0.5420200000000  0.4669580000000 1.0
C      1  0.4674790000000  0.5613990000000  0.4017030000000 1.0
C      1  0.4367110000000  0.4925160000000  0.4118940000000 1.0
C      1  0.4874860000000  0.4402210000000  0.4115350000000 1.0
C      1  0.5571300000000  0.4724440000000  0.4052900000000 1.0
C      1  0.5412000000000  0.5453100000000  0.4082480000000 1.0
C      1  0.4722220000000  0.5534060000000  0.5865850000000 1.0
C      1  0.4345130000000  0.4885810000000  0.5893740000000 1.0
C      1  0.4876940000000  0.4352020000000  0.5925830000000 1.0
C      1  0.5559390000000  0.4659800000000  0.5993000000000 1.0
C      1  0.5463850000000  0.5428960000000  0.5911300000000 1.0
C      1  0.4252160000000  0.4260860000000  0.5495420000000 1.0
C      1  0.5473220000000  0.4076430000000  0.5546400000000 1.0
C      1  0.6079260000000  0.5184880000000  0.5445070000000 1.0
C      1  0.5155700000000  0.6002670000000  0.5503850000000 1.0
C      1  0.4106590000000  0.5468040000000  0.5480640000000 1.0
C      1  0.4257810000000  0.4264910000000  0.4489410000000 1.0
C      1  0.5543000000000  0.4064040000000  0.4490880000000 1.0
C      1  0.6029380000000  0.5248160000000  0.4369000000000 1.0
C      1  0.5189230000000  0.6010390000000  0.4489350000000 1.0
C      1  0.3981320000000  0.5484580000000  0.4417830000000 1.0
C      1  0.4725870000000  0.5068520000000  0.3781060000000 1.0
C      1  0.4840530000000  0.4796500000000  0.3802010000000 1.0
C      1  0.5137000000000  0.4815910000000  0.3786180000000 1.0
C      1  0.5205960000000  0.5103700000000  0.3765110000000 1.0
C      1  0.4953340000000  0.5261790000000  0.3762860000000 1.0
C      1  0.4730070000000  0.5052380000000  0.6196620000000 1.0
C      1  0.4836710000000  0.4774870000000  0.6214260000000 1.0
C      1  0.5130700000000  0.4795330000000  0.6219130000000 1.0
C      1  0.5210800000000  0.5082240000000  0.6214220000000 1.0
C      1  0.4963970000000  0.5240160000000  0.6197900000000 1.0
C      1  0.4968360000000  0.5449880000000  0.5996650000000 1.0
C      1  0.4523050000000  0.5097850000000  0.5991570000000 1.0
C      1  0.4723750000000  0.4580040000000  0.6027260000000 1.0
C      1  0.5296160000000  0.4578760000000  0.6097840000000 1.0
C      1  0.5443140000000  0.5161190000000  0.6053050000000 1.0
C      1  0.4939500000000  0.5503790000000  0.3936500000000 1.0
C      1  0.4519890000000  0.5132310000000  0.3977840000000 1.0
C      1  0.4726460000000  0.4622860000000  0.4008540000000 1.0
C      1  0.5294920000000  0.4652440000000  0.3972570000000 1.0
C      1  0.5417390000000  0.5194540000000  0.3946210000000 1.0
C      1  0.4143980000000  0.5732660000000  0.5554500000000 1.0
C      1  0.4073830000000  0.4482360000000  0.5415850000000 1.0
C      1  0.5287650000000  0.3874040000000  0.5590840000000 1.0
C      1  0.6165610000000  0.4912490000000  0.5474070000000 1.0
C      1  0.5434780000000  0.6084670000000  0.5434550000000 1.0
C      1  0.4053900000000  0.5761790000000  0.4371550000000 1.0
C      1  0.4009570000000  0.4370960000000  0.4421490000000 1.0
C      1  0.5303590000000  0.3905440000000  0.4489080000000 1.0
C      1  0.6183080000000  0.5025160000000  0.4287460000000 1.0
C      1  0.5440910000000  0.6077740000000  0.4394270000000 1.0
C      1  0.4521240000000  0.3973790000000  0.4855350000000 1.0
C      1  0.5837040000000  0.4268000000000  0.4869040000000 1.0
C      1  0.6004210000000  0.5589800000000  0.4810470000000 1.0
C      1  0.4844740000000  0.6095610000000  0.4845970000000 1.0
C      1  0.3890590000000  0.5160790000000  0.4822880000000 1.0
C      1  0.4500360000000  0.3946990000000  0.5157670000000 1.0
C      1  0.5815610000000  0.4261250000000  0.5174980000000 1.0
C      1  0.6017510000000  0.5561390000000  0.5114410000000 1.0
C      1  0.4814990000000  0.6090120000000  0.5140870000000 1.0
C      1  0.3895950000000  0.5177480000000  0.5117720000000 1.0
C      1  0.5869520000000  0.4526970000000  0.5289930000000 1.0
C      1  0.5787670000000  0.5698180000000  0.5247920000000 1.0
C      1  0.4633080000000  0.5881560000000  0.5232270000000 1.0
C      1  0.3947660000000  0.4919670000000  0.5241960000000 1.0
C      1  0.4764800000000  0.3967230000000  0.5287570000000 1.0
C      1  0.5881520000000  0.4543480000000  0.4760840000000 1.0
C      1  0.5721070000000  0.5658430000000  0.4730330000000 1.0
C      1  0.4647790000000  0.5899480000000  0.4736840000000 1.0
C      1  0.3927620000000  0.4887000000000  0.4700610000000 1.0
C      1  0.4801400000000  0.4040140000000  0.4769070000000 1.0
C      1  0.4823250000000  0.4079290000000  0.4478030000000 1.0
C      1  0.5902440000000  0.4561450000000  0.4457020000000 1.0
C      1  0.5690580000000  0.5652570000000  0.4439170000000 1.0
C      1  0.4573820000000  0.5917760000000  0.4446140000000 1.0
C      1  0.3975450000000  0.4886270000000  0.4410590000000 1.0
C      1  0.4786080000000  0.3989040000000  0.5578210000000 1.0
C      1  0.5851600000000  0.4532200000000  0.5587350000000 1.0
C      1  0.5757590000000  0.5716520000000  0.5540590000000 1.0
C      1  0.4626800000000  0.5850630000000  0.5517820000000 1.0
C      1  0.3980950000000  0.4898280000000  0.5538180000000 1.0
C      1  0.4739150000000  0.5616630000000  0.5136020000000 1.0
C      1  0.4204110000000  0.4850980000000  0.5101850000000 1.0
C      1  0.4828370000000  0.4241970000000  0.5214560000000 1.0
C      1  0.5682500000000  0.4730370000000  0.5171670000000 1.0
C      1  0.5594640000000  0.5472530000000  0.5163190000000 1.0
C      1  0.4674730000000  0.5608680000000  0.4848280000000 1.0
C      1  0.4148090000000  0.4728440000000  0.4832730000000 1.0
C      1  0.4906990000000  0.4281640000000  0.4928670000000 1.0
C      1  0.5653020000000  0.4728000000000  0.4878360000000 1.0
C      1  0.5501430000000  0.5505880000000  0.4890400000000 1.0
C      1  0.4451450000000  0.4489110000000  0.4410820000000 1.0
C      1  0.5501880000000  0.4271990000000  0.4273430000000 1.0
C      1  0.5735990000000  0.5170950000000  0.4300310000000 1.0
C      1  0.5082710000000  0.5740990000000  0.4370360000000 1.0
C      1  0.4229810000000  0.5327830000000  0.4307470000000 1.0
C      1  0.4466350000000  0.4397250000000  0.5664560000000 1.0
C      1  0.5349450000000  0.4326800000000  0.5672920000000 1.0
C      1  0.5855250000000  0.5238250000000  0.5657860000000 1.0
C      1  0.5110840000000  0.5717930000000  0.5621230000000 1.0
C      1  0.4340290000000  0.5294780000000  0.5567980000000 1.0
C      1  0.5613900000000  0.4937230000000  0.6030930000000 1.0
C      1  0.5209500000000  0.5585330000000  0.5892790000000 1.0
C      1  0.4488750000000  0.5349810000000  0.5846080000000 1.0
C      1  0.4458060000000  0.4600520000000  0.5900550000000 1.0
C      1  0.5176560000000  0.4356790000000  0.5937140000000 1.0
C      1  0.5637240000000  0.5023520000000  0.4041790000000 1.0
C      1  0.5167600000000  0.5613440000000  0.4093260000000 1.0
C      1  0.4446430000000  0.5411140000000  0.4020740000000 1.0
C      1  0.4465940000000  0.4651720000000  0.4136870000000 1.0
C      1  0.5182370000000  0.4406210000000  0.4096250000000 1.0
C      1  0.4421740000000  0.5426560000000  0.4795290000000 1.0
C      1  0.4615890000000  0.4605890000000  0.4859700000000 1.0
C      1  0.5210200000000  0.4366410000000  0.4920370000000 1.0
C      1  0.5697420000000  0.5022500000000  0.4781770000000 1.0
C      1  0.5229330000000  0.5633470000000  0.4884330000000 1.0
C      1  0.4485930000000  0.5066720000000  0.5123890000000 1.0
C      1  0.4570000000000  0.4506300000000  0.5129980000000 1.0
C      1  0.5321530000000  0.4479120000000  0.5213730000000 1.0
C      1  0.5706680000000  0.5008690000000  0.5295530000000 1.0
C      1  0.5063610000000  0.5557440000000  0.5139890000000 1.0
C      1  0.4754140000000  0.4371570000000  0.4394740000000 1.0
C      1  0.5624840000000  0.4553140000000  0.4313460000000 1.0
C      1  0.5542280000000  0.5406640000000  0.4346030000000 1.0
C      1  0.4762060000000  0.5714240000000  0.4305730000000 1.0
C      1  0.4244380000000  0.5025790000000  0.4368110000000 1.0
C      1  0.4749260000000  0.4286500000000  0.5660430000000 1.0
C      1  0.5558390000000  0.4561840000000  0.5705400000000 1.0
C      1  0.5640110000000  0.5450660000000  0.5654110000000 1.0
C      1  0.4811090000000  0.5620710000000  0.5597360000000 1.0
C      1  0.4264610000000  0.4978940000000  0.5613120000000 1.0
C      1  0.5067800000000  0.5987870000000  0.5222250000000 1.0
C      1  0.4047770000000  0.5417190000000  0.5190470000000 1.0
C      1  0.4309210000000  0.4161870000000  0.5216530000000 1.0
C      1  0.5532150000000  0.4181450000000  0.5248720000000 1.0
C      1  0.5969150000000  0.5262370000000  0.5157530000000 1.0
C      1  0.5139370000000  0.6055200000000  0.4790470000000 1.0
C      1  0.3987340000000  0.5417440000000  0.4714790000000 1.0
C      1  0.4300800000000  0.4161170000000  0.4773270000000 1.0
C      1  0.5577850000000  0.4183830000000  0.4757780000000 1.0
C      1  0.6085230000000  0.5316690000000  0.4676080000000 1.0
C      1  0.5392870000000  0.4112210000000  0.4975470000000 1.0
C      1  0.4099410000000  0.5570870000000  0.4943090000000 1.0
C      1  0.4121990000000  0.4189900000000  0.4997490000000 1.0
C      1  0.5297740000000  0.6091530000000  0.5074230000000 1.0
C      1  0.5966070000000  0.5130020000000  0.4877050000000 1.0
C      1  0.5091980000000  0.4945770000000  0.5176020000000 1.0
C      1  0.5148870000000  0.4986870000000  0.4873070000000 1.0
C      1  0.4877610000000  0.5134630000000  0.4770880000000 1.0
END
