TITL C-3577081-279-419 -5.88337143786658e-07 125000 -428.850602364486 0 0 69 (C1) n - 1
REM
REM in /home/bkarasulu/work/CARBON/AIRSS/Generating-Clusters/EDIP-Nigel-Params/with-SteepDescent/Higher-Symm/SD-CG/HFTN-CG
REM
REM
REM
REM
REM
REM ./C.cell (12c818d87b63d06a65506943cc24bca4)
REM
REM compiler GCC version 9.2.1 20190827 (Red Hat 9.2.1-1)
REM options -cpp -mtune=generic -march=x86-64 -g -O0 -fpre-include=/usr/include/finclude/math-vector-fortran.h
REM seed -372641837 1779052865 267064855 -12161001 1354421163 -1911564411 -757115224 545419824 -1392486265 -122368472 -1191223898 1648134305 -1664612630 -1278536852 1560039160 1917042758 2023575293 5986642 -302156150 427837885 -1261609060 202221986 860429765 859148575 331142005 1806932199 -649374908 -1413284076 1117631200 -13613827 694244091 1508097597 1539608325
REM
CELL 1.54180   50.00000   50.00000   50.00000   90.00000   90.00000   90.00000
LATT -1
SFAC C  
C      1  0.4759190000000  0.4696940000000  0.5143480000000 1.0
C      1  0.5251480000000  0.4830200000000  0.5146110000000 1.0
C      1  0.4998800000000  0.4706970000000  0.4721740000000 1.0
C      1  0.4756190000000  0.5275800000000  0.4854730000000 1.0
C      1  0.5247930000000  0.5263480000000  0.4868730000000 1.0
C      1  0.5000730000000  0.5241700000000  0.5283430000000 1.0
C      1  0.4519310000000  0.4322890000000  0.5224110000000 1.0
C      1  0.5407570000000  0.4389030000000  0.5264650000000 1.0
C      1  0.5033610000000  0.4326950000000  0.4474030000000 1.0
C      1  0.4525270000000  0.5658020000000  0.4765410000000 1.0
C      1  0.5427200000000  0.5653540000000  0.4701550000000 1.0
C      1  0.5029590000000  0.5647180000000  0.5505010000000 1.0
C      1  0.4774710000000  0.5839680000000  0.5139270000000 1.0
C      1  0.5235050000000  0.5827570000000  0.5107890000000 1.0
C      1  0.4976750000000  0.5837760000000  0.4725720000000 1.0
C      1  0.4774080000000  0.4143740000000  0.4846570000000 1.0
C      1  0.5233700000000  0.4159110000000  0.4877130000000 1.0
C      1  0.4975470000000  0.4167280000000  0.5260120000000 1.0
C      1  0.4483940000000  0.5009620000000  0.4390590000000 1.0
C      1  0.4734810000000  0.5007350000000  0.5758870000000 1.0
C      1  0.5789740000000  0.5022830000000  0.4866440000000 1.0
C      1  0.4489330000000  0.4972470000000  0.5609180000000 1.0
C      1  0.4734130000000  0.4976960000000  0.4249680000000 1.0
C      1  0.5794850000000  0.4994050000000  0.5154140000000 1.0
C      1  0.5015280000000  0.4160420000000  0.4701410000000 1.0
C      1  0.4729410000000  0.4160930000000  0.5124590000000 1.0
C      1  0.5233110000000  0.4199820000000  0.5154100000000 1.0
C      1  0.5015710000000  0.5816830000000  0.5281440000000 1.0
C      1  0.4730870000000  0.5826420000000  0.4862060000000 1.0
C      1  0.5238330000000  0.5820430000000  0.4827910000000 1.0
C      1  0.4490200000000  0.5368640000000  0.4765290000000 1.0
C      1  0.5053940000000  0.5361170000000  0.5548380000000 1.0
C      1  0.5455610000000  0.5364920000000  0.4679200000000 1.0
C      1  0.4490280000000  0.4612620000000  0.5232230000000 1.0
C      1  0.5054900000000  0.4615930000000  0.4447060000000 1.0
C      1  0.5454460000000  0.4669600000000  0.5321310000000 1.0
C      1  0.5005560000000  0.5266930000000  0.4716590000000 1.0
C      1  0.4754290000000  0.5273440000000  0.5138140000000 1.0
C      1  0.5253880000000  0.5156030000000  0.5149070000000 1.0
C      1  0.4999940000000  0.4754730000000  0.5290070000000 1.0
C      1  0.4750780000000  0.4713410000000  0.4860840000000 1.0
C      1  0.5243140000000  0.4730170000000  0.4865060000000 1.0
C      1  0.5344460000000  0.5272270000000  0.5596140000000 1.0
C      1  0.5351320000000  0.5259550000000  0.4403520000000 1.0
C      1  0.4308400000000  0.5265490000000  0.4997960000000 1.0
C      1  0.5346900000000  0.4719500000000  0.4406340000000 1.0
C      1  0.5348940000000  0.4742520000000  0.5600690000000 1.0
C      1  0.4307810000000  0.4722120000000  0.5002730000000 1.0
C      1  0.5464820000000  0.5289350000000  0.5326420000000 1.0
C      1  0.5060460000000  0.5309330000000  0.4432730000000 1.0
C      1  0.4481010000000  0.5310660000000  0.5235380000000 1.0
C      1  0.5463400000000  0.4690920000000  0.4677450000000 1.0
C      1  0.5059190000000  0.4685510000000  0.5570020000000 1.0
C      1  0.4478080000000  0.4675070000000  0.4764650000000 1.0
C      1  0.4396750000000  0.5198160000000  0.5477210000000 1.0
C      1  0.5734860000000  0.5218690000000  0.5305190000000 1.0
C      1  0.4894300000000  0.5203040000000  0.4234290000000 1.0
C      1  0.4390420000000  0.4784550000000  0.4522800000000 1.0
C      1  0.5718280000000  0.4796540000000  0.4723950000000 1.0
C      1  0.4895310000000  0.4780580000000  0.5776860000000 1.0
C      1  0.4863070000000  0.4729940000000  0.4264010000000 1.0
C      1  0.4434670000000  0.4723770000000  0.5493520000000 1.0
C      1  0.5725860000000  0.4748870000000  0.5265550000000 1.0
C      1  0.4865640000000  0.5254470000000  0.5740810000000 1.0
C      1  0.4428180000000  0.5257230000000  0.4506320000000 1.0
C      1  0.5716470000000  0.5267890000000  0.4755820000000 1.0
C      1  0.4225390000000  0.4993880000000  0.5001580000000 1.0
C      1  0.5389720000000  0.4988700000000  0.4327210000000 1.0
C      1  0.5383180000000  0.5008430000000  0.5687520000000 1.0
END
