TITL C-3577077-324-679 -2.10345075636296e-06 125000 -779.481761234119 0 0 124 (C1) n - 1
REM
REM in /home/bkarasulu/work/CARBON/AIRSS/Generating-Clusters/EDIP-Nigel-Params/with-SteepDescent/Higher-Symm/SD-CG/HFTN-CG
REM
REM
REM
REM
REM
REM ./C.cell (12c818d87b63d06a65506943cc24bca4)
REM
REM compiler GCC version 9.2.1 20190827 (Red Hat 9.2.1-1)
REM options -cpp -mtune=generic -march=x86-64 -g -O0 -fpre-include=/usr/include/finclude/math-vector-fortran.h
REM seed -383442062 -887631159 1569544680 -1151482940 1419748284 1299550250 -855291071 1250921066 -662067918 1697200131 1143998517 -593163641 -1396547497 474560717 373213529 -509695208 -111645114 52580905 -108344925 632432009 -1378011921 671181708 -1296421470 304465520 -2768757 354959563 1562459069 -1416147799 1569133925 1784942978 1794732458 -265541962 2025870503
REM
CELL 1.54180   50.00000   50.00000   50.00000   90.00000   90.00000   90.00000
LATT -1
SFAC C  
C      1  0.4994800000000  0.4690580000000  0.4798830000000 1.0
C      1  0.4759250000000  0.4737580000000  0.4979090000000 1.0
C      1  0.4645710000000  0.5001590000000  0.4881390000000 1.0
C      1  0.4871870000000  0.5262750000000  0.5264590000000 1.0
C      1  0.4905360000000  0.4797740000000  0.5257800000000 1.0
C      1  0.5054700000000  0.5232940000000  0.4770020000000 1.0
C      1  0.4817110000000  0.5237480000000  0.4960150000000 1.0
C      1  0.5235080000000  0.4784550000000  0.4931790000000 1.0
C      1  0.5435460000000  0.5196140000000  0.5068370000000 1.0
C      1  0.4780190000000  0.5019540000000  0.5394290000000 1.0
C      1  0.5193430000000  0.4826140000000  0.5217250000000 1.0
C      1  0.5314230000000  0.5067980000000  0.4821020000000 1.0
C      1  0.4562520000000  0.4488240000000  0.5117590000000 1.0
C      1  0.4487960000000  0.5103180000000  0.4625890000000 1.0
C      1  0.5068150000000  0.4601230000000  0.4518080000000 1.0
C      1  0.4639090000000  0.5483850000000  0.4889200000000 1.0
C      1  0.5425820000000  0.4546610000000  0.4886170000000 1.0
C      1  0.5444780000000  0.5496980000000  0.5093920000000 1.0
C      1  0.4486690000000  0.4938750000000  0.5438570000000 1.0
C      1  0.5386910000000  0.5035800000000  0.5323160000000 1.0
C      1  0.5528280000000  0.4907460000000  0.4583730000000 1.0
C      1  0.5072520000000  0.5413620000000  0.5453360000000 1.0
C      1  0.4868490000000  0.4589450000000  0.5470600000000 1.0
C      1  0.4957620000000  0.5371690000000  0.4518900000000 1.0
C      1  0.4738530000000  0.5951920000000  0.4891210000000 1.0
C      1  0.6017930000000  0.4959480000000  0.4765090000000 1.0
C      1  0.4900960000000  0.4690300000000  0.5947010000000 1.0
C      1  0.4777520000000  0.4009090000000  0.5039300000000 1.0
C      1  0.5269900000000  0.5970250000000  0.5044320000000 1.0
C      1  0.5300480000000  0.4050290000000  0.4892640000000 1.0
C      1  0.5953030000000  0.5102490000000  0.5278670000000 1.0
C      1  0.4033060000000  0.4929240000000  0.5320970000000 1.0
C      1  0.4007480000000  0.5050770000000  0.4810110000000 1.0
C      1  0.4943050000000  0.5258030000000  0.4071520000000 1.0
C      1  0.5057420000000  0.4731500000000  0.4063560000000 1.0
C      1  0.5041740000000  0.5220370000000  0.5958690000000 1.0
C      1  0.5684150000000  0.4417360000000  0.4556250000000 1.0
C      1  0.4254520000000  0.4644410000000  0.5725040000000 1.0
C      1  0.4671230000000  0.5665370000000  0.4247310000000 1.0
C      1  0.5650680000000  0.5840430000000  0.5378240000000 1.0
C      1  0.4297700000000  0.4424110000000  0.5527390000000 1.0
C      1  0.4342530000000  0.5590170000000  0.4578160000000 1.0
C      1  0.4471660000000  0.5487230000000  0.4335760000000 1.0
C      1  0.5553580000000  0.4508310000000  0.4306250000000 1.0
C      1  0.5540060000000  0.5411410000000  0.5600450000000 1.0
C      1  0.4560200000000  0.4301940000000  0.5591060000000 1.0
C      1  0.5453660000000  0.5695990000000  0.5531110000000 1.0
C      1  0.5349030000000  0.4327710000000  0.4221340000000 1.0
C      1  0.4779990000000  0.5614800000000  0.4615690000000 1.0
C      1  0.5658980000000  0.4661820000000  0.4735670000000 1.0
C      1  0.4567250000000  0.4735950000000  0.5669030000000 1.0
C      1  0.4733100000000  0.4352790000000  0.5346050000000 1.0
C      1  0.5247800000000  0.5623410000000  0.5321670000000 1.0
C      1  0.5258530000000  0.4367900000000  0.4594170000000 1.0
C      1  0.5717190000000  0.5479420000000  0.5258170000000 1.0
C      1  0.4355090000000  0.4625160000000  0.5295200000000 1.0
C      1  0.4369720000000  0.5357970000000  0.4768830000000 1.0
C      1  0.4651360000000  0.5246170000000  0.4406640000000 1.0
C      1  0.5366660000000  0.4742850000000  0.4381750000000 1.0
C      1  0.5296700000000  0.5222580000000  0.5557610000000 1.0
C      1  0.4131570000000  0.5276810000000  0.4956590000000 1.0
C      1  0.5288670000000  0.4905130000000  0.4142940000000 1.0
C      1  0.4938690000000  0.4133300000000  0.5251630000000 1.0
C      1  0.4107550000000  0.4698520000000  0.5147630000000 1.0
C      1  0.5929490000000  0.5327300000000  0.5093740000000 1.0
C      1  0.5892190000000  0.4741790000000  0.4919970000000 1.0
C      1  0.5228860000000  0.5054590000000  0.5807810000000 1.0
C      1  0.4682240000000  0.4891700000000  0.5901130000000 1.0
C      1  0.4717720000000  0.5080340000000  0.4166130000000 1.0
C      1  0.4944600000000  0.5857380000000  0.4691710000000 1.0
C      1  0.5102270000000  0.4124010000000  0.4683950000000 1.0
C      1  0.5079720000000  0.5865530000000  0.5249340000000 1.0
C      1  0.4263180000000  0.5131220000000  0.5671330000000 1.0
C      1  0.5142560000000  0.5617740000000  0.4290010000000 1.0
C      1  0.5654510000000  0.4288150000000  0.5056580000000 1.0
C      1  0.4272850000000  0.4942780000000  0.4474600000000 1.0
C      1  0.5746910000000  0.5057170000000  0.4430370000000 1.0
C      1  0.5652840000000  0.4950540000000  0.5582850000000 1.0
C      1  0.5058050000000  0.4342060000000  0.5699960000000 1.0
C      1  0.4940770000000  0.5555700000000  0.5689040000000 1.0
C      1  0.4871020000000  0.4369390000000  0.4290280000000 1.0
C      1  0.5664260000000  0.5738060000000  0.4902530000000 1.0
C      1  0.4429880000000  0.4268690000000  0.4954080000000 1.0
C      1  0.4380420000000  0.5725920000000  0.5048830000000 1.0
C      1  0.4822400000000  0.4811930000000  0.4223850000000 1.0
C      1  0.4836210000000  0.4173330000000  0.4803470000000 1.0
C      1  0.4159570000000  0.4804700000000  0.4878930000000 1.0
C      1  0.4794470000000  0.5156050000000  0.5815370000000 1.0
C      1  0.5128980000000  0.4775550000000  0.5777400000000 1.0
C      1  0.5193580000000  0.5176880000000  0.4206520000000 1.0
C      1  0.4808880000000  0.5806320000000  0.5138960000000 1.0
C      1  0.5209750000000  0.4193960000000  0.5137370000000 1.0
C      1  0.5211800000000  0.5805320000000  0.4808880000000 1.0
C      1  0.4182580000000  0.5170720000000  0.5227630000000 1.0
C      1  0.5818250000000  0.4852260000000  0.5183990000000 1.0
C      1  0.5866300000000  0.5205760000000  0.4830610000000 1.0
C      1  0.5570730000000  0.5925540000000  0.5107610000000 1.0
C      1  0.5830680000000  0.5171190000000  0.5531330000000 1.0
C      1  0.5088110000000  0.5499540000000  0.5926000000000 1.0
C      1  0.5574490000000  0.4154820000000  0.4809990000000 1.0
C      1  0.4459890000000  0.5868590000000  0.4809270000000 1.0
C      1  0.4496080000000  0.4023920000000  0.5083270000000 1.0
C      1  0.5991250000000  0.4920620000000  0.4482960000000 1.0
C      1  0.4028040000000  0.5078130000000  0.4526650000000 1.0
C      1  0.4092240000000  0.4891620000000  0.5626830000000 1.0
C      1  0.5095090000000  0.4429830000000  0.4112560000000 1.0
C      1  0.4913120000000  0.5560450000000  0.4122710000000 1.0
C      1  0.4814350000000  0.4414390000000  0.5850880000000 1.0
C      1  0.4575730000000  0.4285880000000  0.4699840000000 1.0
C      1  0.4280480000000  0.4686740000000  0.4622660000000 1.0
C      1  0.4677320000000  0.4576390000000  0.4320590000000 1.0
C      1  0.4564050000000  0.5699400000000  0.5266250000000 1.0
C      1  0.5450700000000  0.4304890000000  0.5255780000000 1.0
C      1  0.5463910000000  0.5695030000000  0.4702870000000 1.0
C      1  0.4274260000000  0.5322090000000  0.5455640000000 1.0
C      1  0.5677880000000  0.4722380000000  0.5413020000000 1.0
C      1  0.5749820000000  0.5312840000000  0.4575850000000 1.0
C      1  0.4677760000000  0.5425140000000  0.5704210000000 1.0
C      1  0.5261960000000  0.4541780000000  0.5663070000000 1.0
C      1  0.5339140000000  0.5414740000000  0.4305930000000 1.0
C      1  0.4526310000000  0.5466930000000  0.5450270000000 1.0
C      1  0.5448470000000  0.4536030000000  0.5431090000000 1.0
C      1  0.5495000000000  0.5449130000000  0.4550630000000 1.0
C      1  0.4533970000000  0.4545260000000  0.4572710000000 1.0
END
