TITL C-3577091-527-137 -3.62678930396319e-06 125000 -658.362940408992 0 0 107 (C1) n - 1
REM
REM in /home/bkarasulu/work/CARBON/AIRSS/Generating-Clusters/EDIP-Nigel-Params/with-SteepDescent/Higher-Symm/SD-CG/HFTN-CG
REM
REM
REM
REM
REM
REM ./C.cell (12c818d87b63d06a65506943cc24bca4)
REM
REM compiler GCC version 9.2.1 20190827 (Red Hat 9.2.1-1)
REM options -cpp -mtune=generic -march=x86-64 -g -O0 -fpre-include=/usr/include/finclude/math-vector-fortran.h
REM seed 501955544 1271756004 -753372955 -1647072986 1596114100 804254155 2064815603 402028111 -1277833300 995906706 1290873002 -1717358421 -1463551408 172493815 435498877 1998394790 873120538 -788251399 -231171664 518717654 -2131932167 -168629838 -4177838 1194870387 -624833752 1335333313 -1257986515 411568938 1104722006 -1153748957 149440955 601559293 95842485
REM
CELL 1.54180   50.00000   50.00000   50.00000   90.00000   90.00000   90.00000
LATT -1
SFAC C  
C      1  0.5168520000000  0.5338360000000  0.4448220000000 1.0
C      1  0.5087180000000  0.4561700000000  0.4508090000000 1.0
C      1  0.5173020000000  0.4318990000000  0.5243360000000 1.0
C      1  0.5082280000000  0.5034650000000  0.5621670000000 1.0
C      1  0.5183500000000  0.5667460000000  0.5186500000000 1.0
C      1  0.4832420000000  0.4957530000000  0.5904880000000 1.0
C      1  0.4738970000000  0.5851530000000  0.5297680000000 1.0
C      1  0.4865180000000  0.5653570000000  0.4338580000000 1.0
C      1  0.4828020000000  0.4498760000000  0.4227510000000 1.0
C      1  0.4767760000000  0.4133690000000  0.5240370000000 1.0
C      1  0.4960900000000  0.4417610000000  0.4755380000000 1.0
C      1  0.5033310000000  0.4507070000000  0.5454320000000 1.0
C      1  0.4983100000000  0.5308730000000  0.5517120000000 1.0
C      1  0.5117290000000  0.5650900000000  0.4893710000000 1.0
C      1  0.5028450000000  0.5076130000000  0.4365660000000 1.0
C      1  0.5468910000000  0.5749360000000  0.5170920000000 1.0
C      1  0.5496110000000  0.5454120000000  0.4282960000000 1.0
C      1  0.5473880000000  0.4465810000000  0.4352110000000 1.0
C      1  0.5464120000000  0.4286820000000  0.5300220000000 1.0
C      1  0.5470730000000  0.5055380000000  0.5802470000000 1.0
C      1  0.4777500000000  0.4643700000000  0.5145950000000 1.0
C      1  0.4704470000000  0.4963090000000  0.5233690000000 1.0
C      1  0.4771870000000  0.5447190000000  0.5067150000000 1.0
C      1  0.4822710000000  0.5316290000000  0.4762170000000 1.0
C      1  0.4741720000000  0.4882370000000  0.4715230000000 1.0
C      1  0.4730350000000  0.5260250000000  0.5354050000000 1.0
C      1  0.4665320000000  0.5760510000000  0.5022800000000 1.0
C      1  0.4768060000000  0.5120120000000  0.4515840000000 1.0
C      1  0.4721060000000  0.4583910000000  0.4829440000000 1.0
C      1  0.4735210000000  0.4370840000000  0.5418730000000 1.0
C      1  0.5113960000000  0.4440500000000  0.4225250000000 1.0
C      1  0.5037760000000  0.4058970000000  0.5240390000000 1.0
C      1  0.5124740000000  0.4967560000000  0.5926040000000 1.0
C      1  0.5016890000000  0.5865850000000  0.5318620000000 1.0
C      1  0.5122370000000  0.5571820000000  0.4282660000000 1.0
C      1  0.4178910000000  0.5133730000000  0.4794710000000 1.0
C      1  0.4179640000000  0.4837460000000  0.4793850000000 1.0
C      1  0.4181070000000  0.4745710000000  0.5075670000000 1.0
C      1  0.4189290000000  0.4984970000000  0.5247000000000 1.0
C      1  0.4166080000000  0.5224340000000  0.5076950000000 1.0
C      1  0.4349560000000  0.4997880000000  0.5493230000000 1.0
C      1  0.4337300000000  0.5447130000000  0.5148620000000 1.0
C      1  0.4362520000000  0.5268930000000  0.4610680000000 1.0
C      1  0.4356680000000  0.4696600000000  0.4607850000000 1.0
C      1  0.4355690000000  0.4522850000000  0.5144930000000 1.0
C      1  0.4405770000000  0.4308660000000  0.4941860000000 1.0
C      1  0.4503050000000  0.4759390000000  0.5570930000000 1.0
C      1  0.4384470000000  0.5508520000000  0.5435030000000 1.0
C      1  0.4455520000000  0.5544140000000  0.4667590000000 1.0
C      1  0.4465090000000  0.4838860000000  0.4370360000000 1.0
C      1  0.4397800000000  0.5645480000000  0.4946030000000 1.0
C      1  0.4416940000000  0.5127580000000  0.4363500000000 1.0
C      1  0.4405550000000  0.4420840000000  0.4672730000000 1.0
C      1  0.4466930000000  0.4511990000000  0.5418210000000 1.0
C      1  0.4418780000000  0.5262290000000  0.5585290000000 1.0
C      1  0.4706730000000  0.4758130000000  0.4217340000000 1.0
C      1  0.4664830000000  0.4166430000000  0.4972520000000 1.0
C      1  0.4691890000000  0.4731250000000  0.5798860000000 1.0
C      1  0.4628850000000  0.5669550000000  0.5496210000000 1.0
C      1  0.4698880000000  0.5689140000000  0.4561410000000 1.0
C      1  0.4827000000000  0.4940330000000  0.4037080000000 1.0
C      1  0.4813350000000  0.4060020000000  0.4744320000000 1.0
C      1  0.4836380000000  0.4492070000000  0.5838370000000 1.0
C      1  0.4789680000000  0.5609220000000  0.5723800000000 1.0
C      1  0.4782140000000  0.5889350000000  0.4762020000000 1.0
C      1  0.5116630000000  0.5382610000000  0.4744590000000 1.0
C      1  0.5143450000000  0.4855710000000  0.4531900000000 1.0
C      1  0.5147420000000  0.4465660000000  0.4983220000000 1.0
C      1  0.5074170000000  0.4811750000000  0.5420950000000 1.0
C      1  0.5149180000000  0.5387350000000  0.5286940000000 1.0
C      1  0.5512840000000  0.5162960000000  0.4234450000000 1.0
C      1  0.5467340000000  0.4363580000000  0.4620550000000 1.0
C      1  0.5529630000000  0.4453260000000  0.5526270000000 1.0
C      1  0.5446790000000  0.5289450000000  0.5639960000000 1.0
C      1  0.5541070000000  0.5763610000000  0.4883140000000 1.0
C      1  0.5278170000000  0.4733750000000  0.4986440000000 1.0
C      1  0.5277470000000  0.4887290000000  0.5239860000000 1.0
C      1  0.5329190000000  0.5177680000000  0.5169130000000 1.0
C      1  0.5294340000000  0.5190980000000  0.4874730000000 1.0
C      1  0.5332380000000  0.4924080000000  0.4749610000000 1.0
C      1  0.5619480000000  0.4482660000000  0.4848010000000 1.0
C      1  0.5657370000000  0.4715430000000  0.5466090000000 1.0
C      1  0.5641410000000  0.5343990000000  0.5420390000000 1.0
C      1  0.5676490000000  0.5524740000000  0.4762720000000 1.0
C      1  0.5625940000000  0.4967030000000  0.4423200000000 1.0
C      1  0.5672910000000  0.5535310000000  0.4485300000000 1.0
C      1  0.5608690000000  0.4705920000000  0.4329040000000 1.0
C      1  0.5624400000000  0.4325410000000  0.5076920000000 1.0
C      1  0.5650080000000  0.4874580000000  0.5694280000000 1.0
C      1  0.5642010000000  0.5607430000000  0.5334170000000 1.0
C      1  0.5084570000000  0.4009230000000  0.4710620000000 1.0
C      1  0.5094810000000  0.4393550000000  0.5841170000000 1.0
C      1  0.5051370000000  0.5591620000000  0.5806240000000 1.0
C      1  0.5060770000000  0.6001640000000  0.4749120000000 1.0
C      1  0.5082740000000  0.5008960000000  0.3963500000000 1.0
C      1  0.5349180000000  0.4424550000000  0.5742150000000 1.0
C      1  0.5302800000000  0.5501260000000  0.5751650000000 1.0
C      1  0.5335200000000  0.5900090000000  0.4709400000000 1.0
C      1  0.5335440000000  0.5066250000000  0.4043740000000 1.0
C      1  0.5323800000000  0.4126860000000  0.4662340000000 1.0
C      1  0.5705410000000  0.4759410000000  0.4909540000000 1.0
C      1  0.5717960000000  0.4851870000000  0.5198170000000 1.0
C      1  0.5716800000000  0.5159210000000  0.5184810000000 1.0
C      1  0.5732990000000  0.5256280000000  0.4887530000000 1.0
C      1  0.5717640000000  0.4998670000000  0.4717290000000 1.0
C      1  0.4580100000000  0.5127370000000  0.4970330000000 1.0
C      1  0.4948050000000  0.4935680000000  0.4952880000000 1.0
END
