TITL C-3577086-586-70 -3.72251806802741e-07 125000 -869.823592453511 0 0 139 (C1) n - 1
REM
REM in /home/bkarasulu/work/CARBON/AIRSS/Generating-Clusters/EDIP-Nigel-Params/with-SteepDescent/Higher-Symm/SD-CG/HFTN-CG
REM
REM
REM
REM
REM
REM ./C.cell (12c818d87b63d06a65506943cc24bca4)
REM
REM compiler GCC version 9.2.1 20190827 (Red Hat 9.2.1-1)
REM options -cpp -mtune=generic -march=x86-64 -g -O0 -fpre-include=/usr/include/finclude/math-vector-fortran.h
REM seed 1690114963 1893165537 -868385660 1414008454 70676834 -1735737429 1707818045 579043527 -1222944915 -161959882 -2027145269 -1446376806 -99724947 -1672002686 1550419022 -144145566 -668430027 -688711493 328809045 -661420197 -612480305 126224458 -1130738103 -2023953277 1763317188 1782527369 -1319216037 -1281185729 -705564861 885993824 200767780 -1292123865 1969028662
REM
CELL 1.54180   50.00000   50.00000   50.00000   90.00000   90.00000   90.00000
LATT -1
SFAC C  
C      1  0.4539670000000  0.4382530000000  0.5295030000000 1.0
C      1  0.4995280000000  0.4096820000000  0.4487450000000 1.0
C      1  0.5537240000000  0.4266470000000  0.5267250000000 1.0
C      1  0.4487740000000  0.5690800000000  0.5253850000000 1.0
C      1  0.5011110000000  0.5823000000000  0.4419250000000 1.0
C      1  0.5468420000000  0.5760510000000  0.5279500000000 1.0
C      1  0.4510410000000  0.4256140000000  0.4770330000000 1.0
C      1  0.5023250000000  0.4395710000000  0.5573430000000 1.0
C      1  0.5498520000000  0.4346790000000  0.4702060000000 1.0
C      1  0.4525670000000  0.5899550000000  0.4706480000000 1.0
C      1  0.4986950000000  0.5859880000000  0.5570530000000 1.0
C      1  0.5486020000000  0.5718880000000  0.4716630000000 1.0
C      1  0.4246380000000  0.4777370000000  0.5136010000000 1.0
C      1  0.5254050000000  0.4755490000000  0.4265620000000 1.0
C      1  0.5503460000000  0.4720260000000  0.5584860000000 1.0
C      1  0.4236480000000  0.5265460000000  0.5161100000000 1.0
C      1  0.5269720000000  0.5266750000000  0.4249340000000 1.0
C      1  0.5513870000000  0.5226680000000  0.5596310000000 1.0
C      1  0.4250270000000  0.4723630000000  0.4853640000000 1.0
C      1  0.5259410000000  0.4737630000000  0.5729100000000 1.0
C      1  0.5498740000000  0.4761940000000  0.4407150000000 1.0
C      1  0.4248240000000  0.5227990000000  0.4868610000000 1.0
C      1  0.5271790000000  0.5252360000000  0.5752800000000 1.0
C      1  0.5516260000000  0.5261940000000  0.4404690000000 1.0
C      1  0.5505030000000  0.5173990000000  0.4695010000000 1.0
C      1  0.5023610000000  0.5180220000000  0.5611220000000 1.0
C      1  0.4495780000000  0.5132970000000  0.4710660000000 1.0
C      1  0.5495920000000  0.4855180000000  0.4694630000000 1.0
C      1  0.5019760000000  0.4854330000000  0.5581460000000 1.0
C      1  0.4494330000000  0.4809680000000  0.4704840000000 1.0
C      1  0.5497220000000  0.5138550000000  0.5304500000000 1.0
C      1  0.5023080000000  0.5190790000000  0.4394240000000 1.0
C      1  0.4473270000000  0.5183430000000  0.5323260000000 1.0
C      1  0.5498600000000  0.4810380000000  0.5299280000000 1.0
C      1  0.5014790000000  0.4862780000000  0.4411440000000 1.0
C      1  0.4495270000000  0.4870390000000  0.5285270000000 1.0
C      1  0.5564930000000  0.3999250000000  0.5343670000000 1.0
C      1  0.4390150000000  0.4142890000000  0.5341540000000 1.0
C      1  0.4905740000000  0.4220110000000  0.4255640000000 1.0
C      1  0.5727610000000  0.5767960000000  0.5159560000000 1.0
C      1  0.4430280000000  0.5747050000000  0.5525210000000 1.0
C      1  0.4864500000000  0.5761010000000  0.4196360000000 1.0
C      1  0.5636400000000  0.4101760000000  0.4648480000000 1.0
C      1  0.4438880000000  0.4209530000000  0.4515500000000 1.0
C      1  0.5020290000000  0.4131730000000  0.5726820000000 1.0
C      1  0.5735760000000  0.5762800000000  0.4849550000000 1.0
C      1  0.4386040000000  0.5763320000000  0.4509340000000 1.0
C      1  0.4752070000000  0.5815070000000  0.5722780000000 1.0
C      1  0.5233920000000  0.4746080000000  0.3982820000000 1.0
C      1  0.5762490000000  0.4699620000000  0.5699830000000 1.0
C      1  0.4021590000000  0.4728410000000  0.5302630000000 1.0
C      1  0.5239160000000  0.5257090000000  0.3968130000000 1.0
C      1  0.5772290000000  0.5210230000000  0.5710830000000 1.0
C      1  0.4002790000000  0.5233670000000  0.5321990000000 1.0
C      1  0.5241760000000  0.4735690000000  0.6013760000000 1.0
C      1  0.5756810000000  0.4735670000000  0.4289690000000 1.0
C      1  0.4016560000000  0.4721220000000  0.4693700000000 1.0
C      1  0.5244410000000  0.5243810000000  0.6034240000000 1.0
C      1  0.5775050000000  0.5244340000000  0.4290980000000 1.0
C      1  0.4015450000000  0.5235010000000  0.4706790000000 1.0
C      1  0.4443050000000  0.4013810000000  0.4869360000000 1.0
C      1  0.5421920000000  0.3913490000000  0.4676560000000 1.0
C      1  0.5084470000000  0.3973130000000  0.5472930000000 1.0
C      1  0.4399650000000  0.6074100000000  0.4887430000000 1.0
C      1  0.5297050000000  0.6047700000000  0.4671200000000 1.0
C      1  0.5088020000000  0.6104940000000  0.5474080000000 1.0
C      1  0.4508340000000  0.3969680000000  0.5141350000000 1.0
C      1  0.5343910000000  0.3881700000000  0.5440220000000 1.0
C      1  0.5216300000000  0.3927770000000  0.4491360000000 1.0
C      1  0.4541020000000  0.6046290000000  0.5126530000000 1.0
C      1  0.5280030000000  0.6099210000000  0.5265710000000 1.0
C      1  0.5160720000000  0.6058510000000  0.4430350000000 1.0
C      1  0.4775920000000  0.4430480000000  0.5745500000000 1.0
C      1  0.4476420000000  0.4429750000000  0.4339190000000 1.0
C      1  0.5758630000000  0.4422340000000  0.4832800000000 1.0
C      1  0.4682230000000  0.5552380000000  0.5835970000000 1.0
C      1  0.4462490000000  0.5534340000000  0.4370940000000 1.0
C      1  0.5923910000000  0.5523880000000  0.4848740000000 1.0
C      1  0.4740640000000  0.4439910000000  0.4209990000000 1.0
C      1  0.4502700000000  0.4430510000000  0.5581980000000 1.0
C      1  0.5763820000000  0.4408470000000  0.5146060000000 1.0
C      1  0.4701530000000  0.5541040000000  0.4202850000000 1.0
C      1  0.4412140000000  0.5530030000000  0.5712830000000 1.0
C      1  0.5910170000000  0.5518400000000  0.5172820000000 1.0
C      1  0.5817290000000  0.5248190000000  0.4762890000000 1.0
C      1  0.4807980000000  0.5259330000000  0.5835810000000 1.0
C      1  0.4397880000000  0.5242310000000  0.4431360000000 1.0
C      1  0.5782750000000  0.4727230000000  0.4756450000000 1.0
C      1  0.4820910000000  0.4734780000000  0.5809870000000 1.0
C      1  0.4398690000000  0.4717620000000  0.4416340000000 1.0
C      1  0.5809840000000  0.5233280000000  0.5244120000000 1.0
C      1  0.4807520000000  0.5261270000000  0.4175910000000 1.0
C      1  0.4375560000000  0.5245000000000  0.5611750000000 1.0
C      1  0.5785870000000  0.4704280000000  0.5230400000000 1.0
C      1  0.4814870000000  0.4736510000000  0.4182950000000 1.0
C      1  0.4411790000000  0.4731820000000  0.5567900000000 1.0
C      1  0.4109850000000  0.4829690000000  0.4446570000000 1.0
C      1  0.5925130000000  0.4828930000000  0.4501980000000 1.0
C      1  0.4977900000000  0.4837420000000  0.6055510000000 1.0
C      1  0.4110470000000  0.5135070000000  0.4456270000000 1.0
C      1  0.5930840000000  0.5132530000000  0.4502990000000 1.0
C      1  0.4978370000000  0.5141790000000  0.6066870000000 1.0
C      1  0.4115110000000  0.4819740000000  0.5556700000000 1.0
C      1  0.5926690000000  0.4801810000000  0.5488230000000 1.0
C      1  0.4970600000000  0.4848500000000  0.3939050000000 1.0
C      1  0.4094280000000  0.5122630000000  0.5572030000000 1.0
C      1  0.5929330000000  0.5106360000000  0.5496140000000 1.0
C      1  0.4973220000000  0.5153630000000  0.3937770000000 1.0
C      1  0.5252310000000  0.4758320000000  0.4848210000000 1.0
C      1  0.5000740000000  0.4738590000000  0.5294120000000 1.0
C      1  0.4756970000000  0.4687350000000  0.4845000000000 1.0
C      1  0.5260830000000  0.5282510000000  0.4851420000000 1.0
C      1  0.5018590000000  0.5340490000000  0.5346750000000 1.0
C      1  0.4767300000000  0.5233080000000  0.4802360000000 1.0
C      1  0.5257210000000  0.4667730000000  0.5140680000000 1.0
C      1  0.5005300000000  0.4762620000000  0.4696790000000 1.0
C      1  0.4774930000000  0.4835240000000  0.5123470000000 1.0
C      1  0.5253270000000  0.5255350000000  0.5152820000000 1.0
C      1  0.5012650000000  0.5348040000000  0.4676000000000 1.0
C      1  0.4727840000000  0.5316630000000  0.5237000000000 1.0
C      1  0.4983040000000  0.5758910000000  0.5289600000000 1.0
C      1  0.4737230000000  0.5747090000000  0.4830390000000 1.0
C      1  0.5231980000000  0.5808610000000  0.4826920000000 1.0
C      1  0.5035670000000  0.4242650000000  0.5300620000000 1.0
C      1  0.4766750000000  0.4370430000000  0.4863860000000 1.0
C      1  0.5270020000000  0.4223400000000  0.4855160000000 1.0
C      1  0.4988080000000  0.5673530000000  0.4681740000000 1.0
C      1  0.4722850000000  0.5810820000000  0.5120950000000 1.0
C      1  0.5232550000000  0.5843610000000  0.5141360000000 1.0
C      1  0.5009810000000  0.4266420000000  0.4718080000000 1.0
C      1  0.4765190000000  0.4252990000000  0.5146980000000 1.0
C      1  0.5279290000000  0.4349140000000  0.5140360000000 1.0
C      1  0.5898050000000  0.5107060000000  0.5001830000000 1.0
C      1  0.5892200000000  0.4834760000000  0.4996540000000 1.0
C      1  0.4554490000000  0.5122320000000  0.4221420000000 1.0
C      1  0.4557130000000  0.4844800000000  0.5789320000000 1.0
C      1  0.4553650000000  0.5116940000000  0.5799870000000 1.0
C      1  0.4553320000000  0.4851010000000  0.4212110000000 1.0
C      1  0.4859130000000  0.5124150000000  0.5051980000000 1.0
END
