TITL C-3578206-1180-217 7.74572185426949e-08 125000 -640.157071986952 0 0 104 (C1) n - 1
REM
REM in /home/bkarasulu/work/CARBON/AIRSS/Generating-Clusters/EDIP-Nigel-Params/with-SteepDescent/Higher-Symm/SD-CG/HFTN-CG
REM
REM
REM
REM
REM
REM ./C.cell (12c818d87b63d06a65506943cc24bca4)
REM
REM compiler GCC version 9.2.1 20190827 (Red Hat 9.2.1-1)
REM options -cpp -mtune=generic -march=x86-64 -g -O0 -fpre-include=/usr/include/finclude/math-vector-fortran.h
REM seed -1305392889 -628369393 648730517 -1970975540 726203673 -585325530 1109339836 -1453477022 -1017081339 191356200 352485636 -1877614368 1881694447 612239376 1899385313 -2098572375 -2008785511 -396314087 -1351310237 -211296241 -638292669 1544487289 1941136253 565317321 1748051637 -1928715879 -43109405 -190608279 259549066 1448540277 1140974948 -2034237164 760143971
REM
CELL 1.54180   50.00000   50.00000   50.00000   90.00000   90.00000   90.00000
LATT -1
SFAC C  
C      1  0.5383330000000  0.5189190000000  0.5875280000000 1.0
C      1  0.4590710000000  0.6005540000000  0.5081980000000 1.0
C      1  0.5424990000000  0.5593550000000  0.4370080000000 1.0
C      1  0.4611000000000  0.4686900000000  0.4216590000000 1.0
C      1  0.5441640000000  0.4142470000000  0.4794040000000 1.0
C      1  0.4510940000000  0.4339990000000  0.5684670000000 1.0
C      1  0.5696240000000  0.5234610000000  0.4534900000000 1.0
C      1  0.4342050000000  0.4742610000000  0.4611000000000 1.0
C      1  0.5742820000000  0.4465570000000  0.4974490000000 1.0
C      1  0.4256890000000  0.4771730000000  0.5309750000000 1.0
C      1  0.5661540000000  0.5316330000000  0.5499570000000 1.0
C      1  0.4225710000000  0.5666810000000  0.4951840000000 1.0
C      1  0.4163770000000  0.4510200000000  0.4976390000000 1.0
C      1  0.5728700000000  0.4838330000000  0.5276160000000 1.0
C      1  0.4196250000000  0.5231030000000  0.5263370000000 1.0
C      1  0.5796450000000  0.5243120000000  0.5060760000000 1.0
C      1  0.4190960000000  0.5188460000000  0.4809010000000 1.0
C      1  0.5905590000000  0.4825820000000  0.4550130000000 1.0
C      1  0.4465050000000  0.5050010000000  0.4910650000000 1.0
C      1  0.5595950000000  0.4883310000000  0.4776650000000 1.0
C      1  0.4442530000000  0.4760530000000  0.5042850000000 1.0
C      1  0.5459810000000  0.4934240000000  0.5198950000000 1.0
C      1  0.4491730000000  0.5177270000000  0.5181160000000 1.0
C      1  0.5530750000000  0.5119240000000  0.4968910000000 1.0
C      1  0.4646800000000  0.5521390000000  0.4834360000000 1.0
C      1  0.5271260000000  0.5031700000000  0.4396970000000 1.0
C      1  0.4774330000000  0.4576610000000  0.4701230000000 1.0
C      1  0.5270810000000  0.4537960000000  0.5145230000000 1.0
C      1  0.4660610000000  0.4859340000000  0.5552790000000 1.0
C      1  0.5340750000000  0.5659320000000  0.5383810000000 1.0
C      1  0.4543220000000  0.5224780000000  0.4438860000000 1.0
C      1  0.5516810000000  0.4538560000000  0.4471710000000 1.0
C      1  0.4615350000000  0.4316460000000  0.5097330000000 1.0
C      1  0.5379880000000  0.4691900000000  0.5595950000000 1.0
C      1  0.4588840000000  0.5387270000000  0.5592720000000 1.0
C      1  0.5506580000000  0.5595600000000  0.4843620000000 1.0
C      1  0.5555530000000  0.4422270000000  0.5212620000000 1.0
C      1  0.4387070000000  0.4935290000000  0.5539420000000 1.0
C      1  0.5619680000000  0.5568910000000  0.5345600000000 1.0
C      1  0.4391610000000  0.5590480000000  0.4711240000000 1.0
C      1  0.5558070000000  0.5032900000000  0.4362620000000 1.0
C      1  0.4497410000000  0.4508210000000  0.4680440000000 1.0
C      1  0.5074540000000  0.4404030000000  0.5330980000000 1.0
C      1  0.4845980000000  0.4972140000000  0.5741190000000 1.0
C      1  0.5263650000000  0.5842580000000  0.5186280000000 1.0
C      1  0.4873650000000  0.5577390000000  0.4662700000000 1.0
C      1  0.5092570000000  0.4804250000000  0.4356760000000 1.0
C      1  0.4969530000000  0.4357080000000  0.4731650000000 1.0
C      1  0.4409610000000  0.5783880000000  0.5164420000000 1.0
C      1  0.5612700000000  0.5525990000000  0.4560460000000 1.0
C      1  0.4425520000000  0.4872910000000  0.4356680000000 1.0
C      1  0.5634610000000  0.4346080000000  0.4714560000000 1.0
C      1  0.4424200000000  0.4433700000000  0.5421450000000 1.0
C      1  0.5390320000000  0.5213050000000  0.5587250000000 1.0
C      1  0.4960320000000  0.5153330000000  0.4764970000000 1.0
C      1  0.5083270000000  0.4898800000000  0.4857960000000 1.0
C      1  0.5004220000000  0.4783830000000  0.5118280000000 1.0
C      1  0.5028430000000  0.4981920000000  0.5341600000000 1.0
C      1  0.4988500000000  0.5277180000000  0.5281740000000 1.0
C      1  0.5059200000000  0.5350120000000  0.4994610000000 1.0
C      1  0.4769060000000  0.5443030000000  0.4412870000000 1.0
C      1  0.5221930000000  0.4537460000000  0.4346590000000 1.0
C      1  0.4856510000000  0.4175150000000  0.4966830000000 1.0
C      1  0.5151870000000  0.4493350000000  0.5612220000000 1.0
C      1  0.4795870000000  0.5269010000000  0.5780070000000 1.0
C      1  0.5291150000000  0.5815650000000  0.4908110000000 1.0
C      1  0.5821260000000  0.4762770000000  0.4979050000000 1.0
C      1  0.4043860000000  0.4965530000000  0.5203430000000 1.0
C      1  0.5832790000000  0.5131600000000  0.5342550000000 1.0
C      1  0.4104560000000  0.5402480000000  0.5018430000000 1.0
C      1  0.5946330000000  0.5101030000000  0.4621170000000 1.0
C      1  0.4097660000000  0.4708760000000  0.4774020000000 1.0
C      1  0.5692660000000  0.4765490000000  0.4368340000000 1.0
C      1  0.4391210000000  0.4347290000000  0.4898990000000 1.0
C      1  0.5630640000000  0.4595570000000  0.5446520000000 1.0
C      1  0.4331560000000  0.5228160000000  0.5590080000000 1.0
C      1  0.5721220000000  0.5544090000000  0.5061750000000 1.0
C      1  0.4293520000000  0.5351490000000  0.4562060000000 1.0
C      1  0.5305180000000  0.4953490000000  0.5444920000000 1.0
C      1  0.4689570000000  0.5369070000000  0.5301950000000 1.0
C      1  0.5347130000000  0.5340430000000  0.4858510000000 1.0
C      1  0.4679580000000  0.5067280000000  0.4667480000000 1.0
C      1  0.5307530000000  0.4741240000000  0.4726730000000 1.0
C      1  0.4713030000000  0.4628700000000  0.5136000000000 1.0
C      1  0.4725280000000  0.4427050000000  0.5837040000000 1.0
C      1  0.5217270000000  0.5377700000000  0.5974300000000 1.0
C      1  0.4836050000000  0.5980530000000  0.4947150000000 1.0
C      1  0.5195470000000  0.5568860000000  0.4234140000000 1.0
C      1  0.4759610000000  0.4442490000000  0.4271880000000 1.0
C      1  0.5321340000000  0.4086150000000  0.5042540000000 1.0
C      1  0.4938480000000  0.4603590000000  0.5785900000000 1.0
C      1  0.5037580000000  0.5446390000000  0.5769760000000 1.0
C      1  0.5015110000000  0.5829890000000  0.4781670000000 1.0
C      1  0.4969010000000  0.5412770000000  0.4219140000000 1.0
C      1  0.4999860000000  0.4341170000000  0.4403760000000 1.0
C      1  0.5071990000000  0.4142520000000  0.5172320000000 1.0
C      1  0.4819720000000  0.4803070000000  0.4514320000000 1.0
C      1  0.5238210000000  0.4466770000000  0.4845430000000 1.0
C      1  0.4693020000000  0.4593030000000  0.5435130000000 1.0
C      1  0.5176360000000  0.5421590000000  0.5497700000000 1.0
C      1  0.4668130000000  0.5622810000000  0.5114170000000 1.0
C      1  0.5161950000000  0.5273260000000  0.4523230000000 1.0
C      1  0.5999100000000  0.5103200000000  0.4898970000000 1.0
C      1  0.3999990000000  0.4958740000000  0.4897080000000 1.0
END
