TITL C-3578206-1180-712 6.33503101538651e-07 125000 -1000.13016746043 0 0 161 (C1) n - 1
REM
REM in /home/bkarasulu/work/CARBON/AIRSS/Generating-Clusters/EDIP-Nigel-Params/with-SteepDescent/Higher-Symm/SD-CG/HFTN-CG
REM
REM
REM
REM
REM
REM ./C.cell (12c818d87b63d06a65506943cc24bca4)
REM
REM compiler GCC version 9.2.1 20190827 (Red Hat 9.2.1-1)
REM options -cpp -mtune=generic -march=x86-64 -g -O0 -fpre-include=/usr/include/finclude/math-vector-fortran.h
REM seed -1070899953 -222125485 -944794756 -1053696873 -55381109 253236661 -120304337 -891681302 -1657739545 1966118089 1963255212 666915027 358525882 -861070172 238695778 226465780 -1040693458 1568588458 -1670618069 -808338750 -1378446263 973822324 202323215 -648406479 -1398385893 2074294199 -1026337328 487605505 546822310 675916779 -284307319 2116210949 -1065370303
REM
CELL 1.54180   50.00000   50.00000   50.00000   90.00000   90.00000   90.00000
LATT -1
SFAC C  
C      1  0.5335630000000  0.4361990000000  0.4204410000000 1.0
C      1  0.4295150000000  0.5307400000000  0.4393980000000 1.0
C      1  0.4407670000000  0.4355150000000  0.5331470000000 1.0
C      1  0.4681360000000  0.4397620000000  0.5746350000000 1.0
C      1  0.5288420000000  0.5567130000000  0.5701040000000 1.0
C      1  0.4668830000000  0.5598530000000  0.4267150000000 1.0
C      1  0.5664160000000  0.5292730000000  0.5529640000000 1.0
C      1  0.4275560000000  0.4688290000000  0.5673810000000 1.0
C      1  0.5696480000000  0.4666190000000  0.4343350000000 1.0
C      1  0.5586510000000  0.4293900000000  0.4620310000000 1.0
C      1  0.4386960000000  0.5693690000000  0.4666020000000 1.0
C      1  0.5600520000000  0.5732920000000  0.5356240000000 1.0
C      1  0.4983980000000  0.3844360000000  0.4752310000000 1.0
C      1  0.4732130000000  0.5007020000000  0.3903310000000 1.0
C      1  0.3931470000000  0.4730250000000  0.5036520000000 1.0
C      1  0.4956230000000  0.3983720000000  0.5289870000000 1.0
C      1  0.4991260000000  0.6162580000000  0.5243150000000 1.0
C      1  0.4978800000000  0.6030700000000  0.4724750000000 1.0
C      1  0.5187110000000  0.4995570000000  0.6206100000000 1.0
C      1  0.4671910000000  0.4928650000000  0.5947550000000 1.0
C      1  0.5258720000000  0.4970990000000  0.3874420000000 1.0
C      1  0.6137300000000  0.4727700000000  0.4945830000000 1.0
C      1  0.3836590000000  0.5259700000000  0.4982400000000 1.0
C      1  0.6180240000000  0.5255190000000  0.4982050000000 1.0
C      1  0.5697880000000  0.4525580000000  0.5293400000000 1.0
C      1  0.5358800000000  0.5688070000000  0.4573050000000 1.0
C      1  0.4488050000000  0.5380640000000  0.5674140000000 1.0
C      1  0.4358880000000  0.4557060000000  0.4647850000000 1.0
C      1  0.5728940000000  0.5465250000000  0.4670180000000 1.0
C      1  0.4209070000000  0.5489160000000  0.5347860000000 1.0
C      1  0.4657520000000  0.5807760000000  0.5465920000000 1.0
C      1  0.5392160000000  0.4188990000000  0.5551150000000 1.0
C      1  0.4656770000000  0.4266400000000  0.4502380000000 1.0
C      1  0.5442430000000  0.5349290000000  0.4305300000000 1.0
C      1  0.4536210000000  0.4605810000000  0.4242770000000 1.0
C      1  0.5460210000000  0.4607960000000  0.5778580000000 1.0
C      1  0.5361850000000  0.4601410000000  0.4849430000000 1.0
C      1  0.4962890000000  0.5260500000000  0.4488030000000 1.0
C      1  0.4633950000000  0.4939580000000  0.5425070000000 1.0
C      1  0.4788100000000  0.4524670000000  0.5072970000000 1.0
C      1  0.5297180000000  0.5488750000000  0.5079160000000 1.0
C      1  0.4709440000000  0.5519890000000  0.4968640000000 1.0
C      1  0.5064280000000  0.5215950000000  0.5428510000000 1.0
C      1  0.4934170000000  0.4793470000000  0.5380680000000 1.0
C      1  0.5036420000000  0.4663370000000  0.4406430000000 1.0
C      1  0.5410750000000  0.4861440000000  0.4684560000000 1.0
C      1  0.4546010000000  0.5005780000000  0.4703540000000 1.0
C      1  0.5412930000000  0.4948960000000  0.5268750000000 1.0
C      1  0.5134970000000  0.5717950000000  0.4367020000000 1.0
C      1  0.4308830000000  0.5163440000000  0.5759450000000 1.0
C      1  0.5770270000000  0.4366450000000  0.5064860000000 1.0
C      1  0.4861050000000  0.5833040000000  0.5668270000000 1.0
C      1  0.5154740000000  0.4206710000000  0.5724390000000 1.0
C      1  0.4874620000000  0.4223910000000  0.4318210000000 1.0
C      1  0.5604060000000  0.5120110000000  0.4285860000000 1.0
C      1  0.4372350000000  0.4856990000000  0.4235060000000 1.0
C      1  0.5617930000000  0.4852730000000  0.5746920000000 1.0
C      1  0.4311270000000  0.4438760000000  0.4904520000000 1.0
C      1  0.5763310000000  0.5625690000000  0.4912900000000 1.0
C      1  0.4232520000000  0.5641120000000  0.5103300000000 1.0
C      1  0.5123780000000  0.5769200000000  0.5575590000000 1.0
C      1  0.5485160000000  0.5050810000000  0.5564720000000 1.0
C      1  0.5599380000000  0.5503060000000  0.5144470000000 1.0
C      1  0.4892820000000  0.5555750000000  0.4462500000000 1.0
C      1  0.5113150000000  0.4383890000000  0.4405760000000 1.0
C      1  0.4907250000000  0.4302000000000  0.5593260000000 1.0
C      1  0.4501370000000  0.5082640000000  0.4401900000000 1.0
C      1  0.5472720000000  0.4870470000000  0.4384890000000 1.0
C      1  0.4471690000000  0.4913210000000  0.5713300000000 1.0
C      1  0.4412830000000  0.5496320000000  0.4900250000000 1.0
C      1  0.5666860000000  0.4512380000000  0.4818580000000 1.0
C      1  0.4488130000000  0.4555930000000  0.5121170000000 1.0
C      1  0.5126520000000  0.5204430000000  0.3981340000000 1.0
C      1  0.3929160000000  0.5149460000000  0.5224840000000 1.0
C      1  0.5191860000000  0.4031860000000  0.5140000000000 1.0
C      1  0.4817490000000  0.5182560000000  0.5956770000000 1.0
C      1  0.5104330000000  0.4776180000000  0.6036300000000 1.0
C      1  0.4861560000000  0.4759750000000  0.3956250000000 1.0
C      1  0.6049070000000  0.5133730000000  0.4760960000000 1.0
C      1  0.4023090000000  0.4865110000000  0.4805210000000 1.0
C      1  0.5990700000000  0.4863040000000  0.5149370000000 1.0
C      1  0.4769460000000  0.3982120000000  0.4871120000000 1.0
C      1  0.5223160000000  0.6009420000000  0.4871880000000 1.0
C      1  0.4737600000000  0.6120650000000  0.5126660000000 1.0
C      1  0.5427980000000  0.5956470000000  0.5316840000000 1.0
C      1  0.5247670000000  0.5409730000000  0.5946520000000 1.0
C      1  0.5895570000000  0.5291110000000  0.5371000000000 1.0
C      1  0.4503490000000  0.5946270000000  0.4710510000000 1.0
C      1  0.5405330000000  0.4073130000000  0.4679750000000 1.0
C      1  0.4499580000000  0.4094490000000  0.5272110000000 1.0
C      1  0.4706890000000  0.5463600000000  0.4024710000000 1.0
C      1  0.5287130000000  0.4521930000000  0.3975550000000 1.0
C      1  0.4711150000000  0.4451830000000  0.6018300000000 1.0
C      1  0.4067010000000  0.5277980000000  0.4553850000000 1.0
C      1  0.5913060000000  0.4708060000000  0.4526740000000 1.0
C      1  0.4058460000000  0.4749050000000  0.5502240000000 1.0
C      1  0.4686580000000  0.4528850000000  0.4001000000000 1.0
C      1  0.4119300000000  0.4716630000000  0.4573200000000 1.0
C      1  0.4563830000000  0.4084280000000  0.4705800000000 1.0
C      1  0.5310330000000  0.4546600000000  0.6030720000000 1.0
C      1  0.4681170000000  0.5425380000000  0.5885860000000 1.0
C      1  0.5293730000000  0.5425000000000  0.4073620000000 1.0
C      1  0.5911390000000  0.4705310000000  0.5378180000000 1.0
C      1  0.3975600000000  0.5333420000000  0.5439840000000 1.0
C      1  0.5957860000000  0.5313280000000  0.4555460000000 1.0
C      1  0.5425950000000  0.4085150000000  0.5284650000000 1.0
C      1  0.4533960000000  0.6001840000000  0.5293780000000 1.0
C      1  0.5454530000000  0.5929350000000  0.4718380000000 1.0
C      1  0.5213240000000  0.5136290000000  0.5673680000000 1.0
C      1  0.5629670000000  0.5110420000000  0.5096030000000 1.0
C      1  0.5095160000000  0.5490560000000  0.5315300000000 1.0
C      1  0.4855120000000  0.5049330000000  0.4292930000000 1.0
C      1  0.5193380000000  0.4854050000000  0.4238290000000 1.0
C      1  0.5052050000000  0.4880290000000  0.5732890000000 1.0
C      1  0.4358130000000  0.5126430000000  0.4916980000000 1.0
C      1  0.5682910000000  0.4903420000000  0.4836160000000 1.0
C      1  0.4439880000000  0.4862540000000  0.5183160000000 1.0
C      1  0.4897070000000  0.5654660000000  0.4769920000000 1.0
C      1  0.5160490000000  0.4373980000000  0.4719060000000 1.0
C      1  0.4953670000000  0.4371670000000  0.5290150000000 1.0
C      1  0.4624740000000  0.5276470000000  0.5411530000000 1.0
C      1  0.5434980000000  0.4645520000000  0.5189150000000 1.0
C      1  0.5197010000000  0.5536580000000  0.4797850000000 1.0
C      1  0.5240970000000  0.5261170000000  0.4616700000000 1.0
C      1  0.4749860000000  0.4722740000000  0.4428840000000 1.0
C      1  0.5201840000000  0.4629840000000  0.5613890000000 1.0
C      1  0.4626610000000  0.4706450000000  0.4709380000000 1.0
C      1  0.5543540000000  0.5259190000000  0.4791070000000 1.0
C      1  0.4362760000000  0.5241890000000  0.5247420000000 1.0
C      1  0.4785290000000  0.5513260000000  0.5257830000000 1.0
C      1  0.5237900000000  0.4479370000000  0.5350200000000 1.0
C      1  0.4847770000000  0.4408470000000  0.4799140000000 1.0
C      1  0.4341960000000  0.4165500000000  0.4857400000000 1.0
C      1  0.4810310000000  0.4279180000000  0.4049210000000 1.0
C      1  0.4106330000000  0.4823790000000  0.4310790000000 1.0
C      1  0.5657360000000  0.4117120000000  0.5127580000000 1.0
C      1  0.4309920000000  0.5906190000000  0.5152590000000 1.0
C      1  0.5694260000000  0.5893150000000  0.4863710000000 1.0
C      1  0.5198210000000  0.4289820000000  0.5992480000000 1.0
C      1  0.4802330000000  0.5677270000000  0.5890410000000 1.0
C      1  0.5187710000000  0.5683120000000  0.4093320000000 1.0
C      1  0.5870230000000  0.4818440000000  0.5633240000000 1.0
C      1  0.4041760000000  0.5192960000000  0.5674260000000 1.0
C      1  0.5875080000000  0.5169070000000  0.4330240000000 1.0
C      1  0.3946800000000  0.5136130000000  0.4759940000000 1.0
C      1  0.4711380000000  0.3953040000000  0.5154060000000 1.0
C      1  0.5129840000000  0.4715630000000  0.3840390000000 1.0
C      1  0.6057600000000  0.5136540000000  0.5203500000000 1.0
C      1  0.3927400000000  0.4863390000000  0.5280590000000 1.0
C      1  0.6091130000000  0.4849680000000  0.4698450000000 1.0
C      1  0.5211910000000  0.3962620000000  0.4861160000000 1.0
C      1  0.4725580000000  0.6054250000000  0.4843360000000 1.0
C      1  0.5242880000000  0.6087750000000  0.5149440000000 1.0
C      1  0.4814630000000  0.4706890000000  0.6068970000000 1.0
C      1  0.5074730000000  0.5219640000000  0.6081750000000 1.0
C      1  0.4852410000000  0.5257770000000  0.3905550000000 1.0
C      1  0.5595370000000  0.4389410000000  0.4342660000000 1.0
C      1  0.4426830000000  0.4445310000000  0.5610280000000 1.0
C      1  0.4405320000000  0.5577160000000  0.4396440000000 1.0
C      1  0.5553580000000  0.5554850000000  0.5583980000000 1.0
C      1  0.5111950000000  0.5000170000000  0.5240320000000 1.0
END
