TITL C-3578205-846-664 -7.122807015623e-07 125000 -880.407749662105 0 0 137 (C1) n - 1
REM
REM in /home/bkarasulu/work/CARBON/AIRSS/Generating-Clusters/EDIP-Nigel-Params/with-SteepDescent/Higher-Symm/SD-CG/HFTN-CG
REM
REM
REM
REM
REM
REM ./C.cell (12c818d87b63d06a65506943cc24bca4)
REM
REM compiler GCC version 9.2.1 20190827 (Red Hat 9.2.1-1)
REM options -cpp -mtune=generic -march=x86-64 -g -O0 -fpre-include=/usr/include/finclude/math-vector-fortran.h
REM seed -865663468 -218511663 751639262 167751702 1349302598 1003646525 1817065238 -499542224 -192510190 -82919291 1904559683 -1628065813 2017967047 1513699400 -1444055667 -1734010710 1968866591 665186255 1546458743 -1848166917 -1511771226 -150250699 -2145851893 -1299068894 -973809836 -956749496 448942558 -410953206 1184838776 -584119284 446775834 -1620768649 566266979
REM
CELL 1.54180   50.00000   50.00000   50.00000   90.00000   90.00000   90.00000
LATT -1
SFAC C  
C      1  0.4440590000000  0.5037940000000  0.5789710000000 1.0
C      1  0.5000390000000  0.5673650000000  0.4461900000000 1.0
C      1  0.5700650000000  0.4470350000000  0.5027470000000 1.0
C      1  0.4400100000000  0.5006020000000  0.4318390000000 1.0
C      1  0.5616820000000  0.4991900000000  0.4275130000000 1.0
C      1  0.5515480000000  0.4973920000000  0.5699770000000 1.0
C      1  0.4986830000000  0.4202750000000  0.5649130000000 1.0
C      1  0.4962700000000  0.5669620000000  0.5507830000000 1.0
C      1  0.5005520000000  0.4375070000000  0.4492670000000 1.0
C      1  0.5691170000000  0.5500360000000  0.4972240000000 1.0
C      1  0.4244330000000  0.4471540000000  0.5004660000000 1.0
C      1  0.4221520000000  0.5670590000000  0.5017000000000 1.0
C      1  0.4660690000000  0.4231760000000  0.4879990000000 1.0
C      1  0.4098570000000  0.4861660000000  0.4674840000000 1.0
C      1  0.4954970000000  0.4536090000000  0.4018960000000 1.0
C      1  0.4596230000000  0.5938880000000  0.5172300000000 1.0
C      1  0.5566200000000  0.3993920000000  0.5018350000000 1.0
C      1  0.5371990000000  0.5828110000000  0.4843120000000 1.0
C      1  0.4058630000000  0.5155940000000  0.5488960000000 1.0
C      1  0.5870010000000  0.4815440000000  0.5392340000000 1.0
C      1  0.5893670000000  0.5149460000000  0.4642790000000 1.0
C      1  0.4848600000000  0.5393100000000  0.5922340000000 1.0
C      1  0.5082240000000  0.4528770000000  0.6057150000000 1.0
C      1  0.5018830000000  0.5460880000000  0.3986580000000 1.0
C      1  0.5031840000000  0.5383830000000  0.4593250000000 1.0
C      1  0.5425320000000  0.4637670000000  0.5012020000000 1.0
C      1  0.4610080000000  0.5010100000000  0.5296520000000 1.0
C      1  0.5026270000000  0.4645080000000  0.5403290000000 1.0
C      1  0.4990820000000  0.5405460000000  0.5333740000000 1.0
C      1  0.5057930000000  0.4645520000000  0.4646050000000 1.0
C      1  0.5378780000000  0.5355470000000  0.4995220000000 1.0
C      1  0.4663530000000  0.4601610000000  0.4996870000000 1.0
C      1  0.4678650000000  0.5335020000000  0.4925520000000 1.0
C      1  0.4683630000000  0.4993170000000  0.4566480000000 1.0
C      1  0.5410350000000  0.4982120000000  0.4607590000000 1.0
C      1  0.5341020000000  0.5031490000000  0.5359510000000 1.0
C      1  0.4382970000000  0.4313390000000  0.4809310000000 1.0
C      1  0.4216840000000  0.4801830000000  0.4411430000000 1.0
C      1  0.4821220000000  0.4414770000000  0.4254170000000 1.0
C      1  0.4385040000000  0.5739990000000  0.5239280000000 1.0
C      1  0.5629890000000  0.4215350000000  0.5175350000000 1.0
C      1  0.5637660000000  0.5727050000000  0.4781910000000 1.0
C      1  0.4256050000000  0.5232920000000  0.5689080000000 1.0
C      1  0.5631180000000  0.4760070000000  0.5545850000000 1.0
C      1  0.5730110000000  0.5208480000000  0.4414190000000 1.0
C      1  0.4756770000000  0.5593290000000  0.5720420000000 1.0
C      1  0.5174570000000  0.4346610000000  0.5826760000000 1.0
C      1  0.5150390000000  0.5631590000000  0.4207080000000 1.0
C      1  0.4685380000000  0.5136620000000  0.5918640000000 1.0
C      1  0.5134540000000  0.5890080000000  0.4657990000000 1.0
C      1  0.5932010000000  0.4647930000000  0.5151550000000 1.0
C      1  0.4674740000000  0.4786330000000  0.4059090000000 1.0
C      1  0.5232810000000  0.5246160000000  0.3949150000000 1.0
C      1  0.5264580000000  0.4765240000000  0.6001810000000 1.0
C      1  0.5153150000000  0.4121930000000  0.5408540000000 1.0
C      1  0.4864350000000  0.5917090000000  0.5330970000000 1.0
C      1  0.4901630000000  0.4177610000000  0.4699190000000 1.0
C      1  0.5923180000000  0.5314460000000  0.4882840000000 1.0
C      1  0.4051120000000  0.4680160000000  0.4909260000000 1.0
C      1  0.4074100000000  0.5308570000000  0.5225430000000 1.0
C      1  0.5169600000000  0.5108120000000  0.4457950000000 1.0
C      1  0.5156270000000  0.4533760000000  0.5140120000000 1.0
C      1  0.4718810000000  0.5050790000000  0.5016870000000 1.0
C      1  0.5053140000000  0.4944400000000  0.5336610000000 1.0
C      1  0.4791650000000  0.5174070000000  0.5489660000000 1.0
C      1  0.4958150000000  0.4889180000000  0.4493040000000 1.0
C      1  0.5131450000000  0.5457580000000  0.4866020000000 1.0
C      1  0.4968880000000  0.4663600000000  0.4941580000000 1.0
C      1  0.4911730000000  0.5462640000000  0.5050540000000 1.0
C      1  0.4584430000000  0.4862090000000  0.4830470000000 1.0
C      1  0.5355290000000  0.5075530000000  0.4901320000000 1.0
C      1  0.5470990000000  0.4914730000000  0.5108350000000 1.0
C      1  0.4696270000000  0.5692810000000  0.4436310000000 1.0
C      1  0.5733000000000  0.4420390000000  0.4728550000000 1.0
C      1  0.4449400000000  0.4763120000000  0.5683480000000 1.0
C      1  0.4744120000000  0.4358340000000  0.5589960000000 1.0
C      1  0.5259090000000  0.5668680000000  0.5590630000000 1.0
C      1  0.5296220000000  0.4339680000000  0.4401530000000 1.0
C      1  0.5688620000000  0.5560870000000  0.5273380000000 1.0
C      1  0.4351610000000  0.4464790000000  0.5284220000000 1.0
C      1  0.4296460000000  0.5615020000000  0.4750880000000 1.0
C      1  0.4363210000000  0.5285370000000  0.4385130000000 1.0
C      1  0.5628200000000  0.4716910000000  0.4337740000000 1.0
C      1  0.5559400000000  0.5258000000000  0.5661200000000 1.0
C      1  0.4340000000000  0.4543130000000  0.4358760000000 1.0
C      1  0.4610110000000  0.4612710000000  0.4284580000000 1.0
C      1  0.4303290000000  0.4344130000000  0.4547480000000 1.0
C      1  0.4373930000000  0.5291530000000  0.5160230000000 1.0
C      1  0.5486800000000  0.4507000000000  0.5552050000000 1.0
C      1  0.5620210000000  0.5463930000000  0.4349740000000 1.0
C      1  0.4579360000000  0.5397380000000  0.5572700000000 1.0
C      1  0.5235180000000  0.4596660000000  0.5658620000000 1.0
C      1  0.5341690000000  0.5403490000000  0.4275900000000 1.0
C      1  0.4520960000000  0.5497970000000  0.5303460000000 1.0
C      1  0.5427440000000  0.4275370000000  0.5376520000000 1.0
C      1  0.5683120000000  0.5675560000000  0.4514870000000 1.0
C      1  0.4991670000000  0.4043940000000  0.5164890000000 1.0
C      1  0.3928360000000  0.5145920000000  0.5016100000000 1.0
C      1  0.5122210000000  0.4989650000000  0.4035270000000 1.0
C      1  0.4947740000000  0.6020830000000  0.4855700000000 1.0
C      1  0.5100770000000  0.4086730000000  0.4892270000000 1.0
C      1  0.5062590000000  0.6013990000000  0.5133650000000 1.0
C      1  0.3948340000000  0.4863190000000  0.5119520000000 1.0
C      1  0.6051070000000  0.5128770000000  0.5081110000000 1.0
C      1  0.6065120000000  0.4846400000000  0.4966380000000 1.0
C      1  0.5131070000000  0.5020430000000  0.6031960000000 1.0
C      1  0.4852190000000  0.4941890000000  0.6051090000000 1.0
C      1  0.4839210000000  0.5027320000000  0.4088950000000 1.0
C      1  0.5126120000000  0.5291900000000  0.5903480000000 1.0
C      1  0.5326120000000  0.5889120000000  0.5125240000000 1.0
C      1  0.5918240000000  0.5105880000000  0.5341750000000 1.0
C      1  0.5200730000000  0.4694240000000  0.4048720000000 1.0
C      1  0.4768570000000  0.5317390000000  0.4075670000000 1.0
C      1  0.4816540000000  0.4655300000000  0.5994490000000 1.0
C      1  0.5383320000000  0.4085380000000  0.4828460000000 1.0
C      1  0.4661570000000  0.5943080000000  0.4874710000000 1.0
C      1  0.4702570000000  0.4115640000000  0.5151550000000 1.0
C      1  0.5952380000000  0.4870110000000  0.4696020000000 1.0
C      1  0.4053040000000  0.5144960000000  0.4743510000000 1.0
C      1  0.4091800000000  0.4886000000000  0.5372540000000 1.0
C      1  0.5437500000000  0.5715540000000  0.5347120000000 1.0
C      1  0.5730230000000  0.5317730000000  0.5431720000000 1.0
C      1  0.5330680000000  0.5424510000000  0.5740280000000 1.0
C      1  0.5478840000000  0.4288270000000  0.4635440000000 1.0
C      1  0.4551180000000  0.5744880000000  0.4685520000000 1.0
C      1  0.4578620000000  0.4278650000000  0.5364030000000 1.0
C      1  0.5789720000000  0.4658510000000  0.4575710000000 1.0
C      1  0.4239850000000  0.5350490000000  0.4638510000000 1.0
C      1  0.4273600000000  0.4684360000000  0.5470020000000 1.0
C      1  0.5384640000000  0.4576140000000  0.4254170000000 1.0
C      1  0.4594440000000  0.5449430000000  0.4288910000000 1.0
C      1  0.4668310000000  0.4587600000000  0.5750650000000 1.0
C      1  0.5365470000000  0.4661330000000  0.4687540000000 1.0
C      1  0.4681980000000  0.4692040000000  0.5318480000000 1.0
C      1  0.5308420000000  0.5344930000000  0.5306270000000 1.0
C      1  0.4732520000000  0.5298500000000  0.4622260000000 1.0
C      1  0.5007650000000  0.4955570000000  0.5033160000000 1.0
END
