TITL C-3577085-527-703 4.1470461740967e-07 125000 -30.7585499917631 0 0 7 (C2v) n - 1
REM
REM in /home/bkarasulu/work/CARBON/AIRSS/Generating-Clusters/EDIP-Nigel-Params/with-SteepDescent/Higher-Symm/SD-CG/HFTN-CG
REM
REM
REM
REM
REM
REM ./C.cell (12c818d87b63d06a65506943cc24bca4)
REM
REM compiler GCC version 9.2.1 20190827 (Red Hat 9.2.1-1)
REM options -cpp -mtune=generic -march=x86-64 -g -O0 -fpre-include=/usr/include/finclude/math-vector-fortran.h
REM seed -421331327 1522729347 421337943 -834704387 1505454886 -216012191 1702288957 361296901 -155412539 -1159279920 -745740497 648462430 -450674467 -1543990129 -1183342040 186494076 -958331253 -53873414 1915938091 -1936050624 -1987985554 1661767887 1733631707 -1291189974 -770655960 -213183460 -1624766302 -794320199 1908602008 -80389909 149540653 305962763 -1593423798
REM
CELL 1.54180   50.00000   50.00000   50.00000   90.00000   90.00000   90.00000
LATT -1
SFAC C  
C      1  0.5256000000000  0.5429940000000  0.4896920000000 1.0
C      1  0.5103490000000  0.4737880000000  0.5024760000000 1.0
C      1  0.4701260000000  0.4959500000000  0.4847650000000 1.0
C      1  0.5252030000000  0.4532540000000  0.5061750000000 1.0
C      1  0.5105650000000  0.5226130000000  0.4935090000000 1.0
C      1  0.4702570000000  0.5008670000000  0.5115390000000 1.0
C      1  0.4964590000000  0.4982730000000  0.4980480000000 1.0
END
