TITL C-3578203-1966-650 8.35879681181539e-07 125000 -201.298027280785 0 0 34 (C2h) n - 1
REM
REM in /home/bkarasulu/work/CARBON/AIRSS/Generating-Clusters/EDIP-Nigel-Params/with-SteepDescent/Higher-Symm/SD-CG/HFTN-CG
REM
REM
REM
REM
REM
REM ./C.cell (12c818d87b63d06a65506943cc24bca4)
REM
REM compiler GCC version 9.2.1 20190827 (Red Hat 9.2.1-1)
REM options -cpp -mtune=generic -march=x86-64 -g -O0 -fpre-include=/usr/include/finclude/math-vector-fortran.h
REM seed 1098300912 971886205 1444394601 234263803 1137510585 946197783 2078495851 -2046534077 595843368 -926734413 2062573969 -444478086 1438052476 151248207 1632969117 2067382931 -1051848685 141313924 -1242366679 -391563448 -1302909147 -64150619 -466043585 2011617563 -1759669264 218858474 -521753999 1904141647 -386452243 -1220831719 263044521 728813223 -1231160995
REM
CELL 1.54180   50.00000   50.00000   50.00000   90.00000   90.00000   90.00000
LATT -1
SFAC C  
C      1  0.4404200000000  0.5112190000000  0.4895340000000 1.0
C      1  0.4404200000000  0.4887790000000  0.5104670000000 1.0
C      1  0.5600430000000  0.5112210000000  0.4895330000000 1.0
C      1  0.5600430000000  0.4887810000000  0.5104660000000 1.0
C      1  0.4842240000000  0.5373800000000  0.4695070000000 1.0
C      1  0.4842250000000  0.4626200000000  0.5304940000000 1.0
C      1  0.5162380000000  0.5373800000000  0.4695060000000 1.0
C      1  0.5162390000000  0.4626200000000  0.5304930000000 1.0
C      1  0.5255560000000  0.4914620000000  0.5382130000000 1.0
C      1  0.5255560000000  0.5085390000000  0.4617860000000 1.0
C      1  0.4749070000000  0.4914610000000  0.5382140000000 1.0
C      1  0.4749070000000  0.5085380000000  0.4617870000000 1.0
C      1  0.4849930000000  0.5080140000000  0.5146210000000 1.0
C      1  0.4849930000000  0.4919850000000  0.4853790000000 1.0
C      1  0.5154700000000  0.5080150000000  0.5146210000000 1.0
C      1  0.5154700000000  0.4919860000000  0.4853790000000 1.0
C      1  0.4545940000000  0.4636200000000  0.5054670000000 1.0
C      1  0.4545930000000  0.5363790000000  0.4945340000000 1.0
C      1  0.5458710000000  0.4636210000000  0.5054660000000 1.0
C      1  0.5458700000000  0.5363800000000  0.4945330000000 1.0
C      1  0.5136010000000  0.4996470000000  0.4373090000000 1.0
C      1  0.5136010000000  0.5003530000000  0.5626910000000 1.0
C      1  0.4868620000000  0.4996470000000  0.4373090000000 1.0
C      1  0.4868630000000  0.5003530000000  0.5626910000000 1.0
C      1  0.4456990000000  0.5044790000000  0.4623260000000 1.0
C      1  0.4456990000000  0.4955200000000  0.5376750000000 1.0
C      1  0.5547640000000  0.5044800000000  0.4623250000000 1.0
C      1  0.5547650000000  0.4955210000000  0.5376740000000 1.0
C      1  0.4762510000000  0.5362230000000  0.5126590000000 1.0
C      1  0.4762510000000  0.4637760000000  0.4873410000000 1.0
C      1  0.5242120000000  0.5362240000000  0.5126590000000 1.0
C      1  0.5242130000000  0.4637770000000  0.4873410000000 1.0
C      1  0.5002320000000  0.4496030000000  0.4970350000000 1.0
C      1  0.5002310000000  0.5503970000000  0.5029650000000 1.0
END
