TITL C-3577090-796-155 -1.1880335525094e-06 125000 -946.26208626437 0 0 152 (C1) n - 1
REM
REM in /home/bkarasulu/work/CARBON/AIRSS/Generating-Clusters/EDIP-Nigel-Params/with-SteepDescent/Higher-Symm/SD-CG/HFTN-CG
REM
REM
REM
REM
REM
REM ./C.cell (12c818d87b63d06a65506943cc24bca4)
REM
REM compiler GCC version 9.2.1 20190827 (Red Hat 9.2.1-1)
REM options -cpp -mtune=generic -march=x86-64 -g -O0 -fpre-include=/usr/include/finclude/math-vector-fortran.h
REM seed 58632059 1250019801 1072510437 1992881273 1258629008 1349571634 1924938412 1625016726 1824387762 -426842991 -96051242 1762674453 -1363468920 1837973859 -296118784 -1330162725 -686474240 -1518137435 1724641664 1467648578 1862488518 -986779641 1678918452 1881132663 1814112810 2103611947 14442891 -1107485656 1882899481 -1452553570 214815107 33360904 -1096272228
REM
CELL 1.54180   50.00000   50.00000   50.00000   90.00000   90.00000   90.00000
LATT -1
SFAC C  
C      1  0.5738880000000  0.4740320000000  0.5248840000000 1.0
C      1  0.5752540000000  0.4913140000000  0.4658050000000 1.0
C      1  0.5750010000000  0.5352010000000  0.5105230000000 1.0
C      1  0.5277750000000  0.6091220000000  0.4990660000000 1.0
C      1  0.5271690000000  0.4473940000000  0.5948270000000 1.0
C      1  0.5273490000000  0.4442900000000  0.4070230000000 1.0
C      1  0.4375100000000  0.5012550000000  0.5788260000000 1.0
C      1  0.4388620000000  0.4267380000000  0.4607930000000 1.0
C      1  0.4372540000000  0.5671120000000  0.4603860000000 1.0
C      1  0.4537410000000  0.5333790000000  0.5337300000000 1.0
C      1  0.4537330000000  0.4538740000000  0.5115630000000 1.0
C      1  0.4557530000000  0.5127320000000  0.4547770000000 1.0
C      1  0.5515780000000  0.5350790000000  0.5687890000000 1.0
C      1  0.5511320000000  0.4237940000000  0.4962520000000 1.0
C      1  0.5516120000000  0.5418290000000  0.4365950000000 1.0
C      1  0.5200330000000  0.4575950000000  0.4775810000000 1.0
C      1  0.5204930000000  0.5418770000000  0.4735300000000 1.0
C      1  0.5202210000000  0.5028670000000  0.5497100000000 1.0
C      1  0.3986040000000  0.5042120000000  0.4879360000000 1.0
C      1  0.3933640000000  0.5199190000000  0.5147670000000 1.0
C      1  0.4068540000000  0.4795220000000  0.5032140000000 1.0
C      1  0.5333870000000  0.4099120000000  0.4761840000000 1.0
C      1  0.5335870000000  0.5661980000000  0.4347040000000 1.0
C      1  0.5333280000000  0.5243360000000  0.5905740000000 1.0
C      1  0.5169490000000  0.4586590000000  0.5279460000000 1.0
C      1  0.5175320000000  0.4987260000000  0.4489110000000 1.0
C      1  0.5173310000000  0.5453290000000  0.5228330000000 1.0
C      1  0.5431150000000  0.4312710000000  0.5504580000000 1.0
C      1  0.5436960000000  0.4908030000000  0.4145910000000 1.0
C      1  0.5434350000000  0.5785610000000  0.5354630000000 1.0
C      1  0.5858900000000  0.5560200000000  0.5292980000000 1.0
C      1  0.5855410000000  0.4477490000000  0.5337770000000 1.0
C      1  0.5861260000000  0.4969540000000  0.4382900000000 1.0
C      1  0.5793270000000  0.5470180000000  0.4297430000000 1.0
C      1  0.5794470000000  0.5376480000000  0.5765820000000 1.0
C      1  0.5789760000000  0.4156990000000  0.4946120000000 1.0
C      1  0.4150170000000  0.5374210000000  0.5542850000000 1.0
C      1  0.4160800000000  0.4323750000000  0.5045700000000 1.0
C      1  0.4151900000000  0.5265580000000  0.4455830000000 1.0
C      1  0.5405480000000  0.4164530000000  0.5246990000000 1.0
C      1  0.5399450000000  0.5203630000000  0.4172150000000 1.0
C      1  0.5409860000000  0.5634730000000  0.5611900000000 1.0
C      1  0.4705660000000  0.4286650000000  0.4605290000000 1.0
C      1  0.4696160000000  0.5703830000000  0.4586650000000 1.0
C      1  0.4699590000000  0.5010040000000  0.5808440000000 1.0
C      1  0.5249270000000  0.6008760000000  0.5275620000000 1.0
C      1  0.5243330000000  0.4269410000000  0.5734540000000 1.0
C      1  0.5243950000000  0.4729570000000  0.3998050000000 1.0
C      1  0.4140050000000  0.5145360000000  0.5366240000000 1.0
C      1  0.4157210000000  0.4565610000000  0.4891490000000 1.0
C      1  0.4183020000000  0.5236880000000  0.4743260000000 1.0
C      1  0.4343700000000  0.5312120000000  0.5764130000000 1.0
C      1  0.4352450000000  0.4153740000000  0.4889310000000 1.0
C      1  0.4333400000000  0.5488930000000  0.4367530000000 1.0
C      1  0.5144540000000  0.5621460000000  0.4932890000000 1.0
C      1  0.5141820000000  0.4756160000000  0.5571470000000 1.0
C      1  0.5142060000000  0.4638180000000  0.4499540000000 1.0
C      1  0.5470060000000  0.5046910000000  0.4710280000000 1.0
C      1  0.5465390000000  0.5237770000000  0.5189210000000 1.0
C      1  0.5457060000000  0.4723780000000  0.5114280000000 1.0
C      1  0.4997930000000  0.4296590000000  0.5338470000000 1.0
C      1  0.4990350000000  0.5061130000000  0.4213540000000 1.0
C      1  0.5004620000000  0.5652440000000  0.5448100000000 1.0
C      1  0.4990810000000  0.4504240000000  0.4963970000000 1.0
C      1  0.4998520000000  0.5270840000000  0.4592690000000 1.0
C      1  0.4993040000000  0.5222340000000  0.5441320000000 1.0
C      1  0.4568330000000  0.4851270000000  0.5423130000000 1.0
C      1  0.4571540000000  0.4701200000000  0.4656540000000 1.0
C      1  0.4587830000000  0.5448320000000  0.4920320000000 1.0
C      1  0.5048020000000  0.5573720000000  0.4350590000000 1.0
C      1  0.5046150000000  0.5282620000000  0.5824300000000 1.0
C      1  0.5047740000000  0.4139300000000  0.4837250000000 1.0
C      1  0.5693990000000  0.4907590000000  0.5492930000000 1.0
C      1  0.5693680000000  0.4621680000000  0.4674890000000 1.0
C      1  0.5695950000000  0.5482150000000  0.4842950000000 1.0
C      1  0.3868860000000  0.5469380000000  0.5099890000000 1.0
C      1  0.3915060000000  0.4741740000000  0.5265190000000 1.0
C      1  0.3886240000000  0.4888670000000  0.4638720000000 1.0
C      1  0.4886650000000  0.5105850000000  0.6012170000000 1.0
C      1  0.4890690000000  0.4063510000000  0.4587880000000 1.0
C      1  0.4892060000000  0.5826510000000  0.4408380000000 1.0
C      1  0.5644980000000  0.5759590000000  0.4922090000000 1.0
C      1  0.5643350000000  0.4700770000000  0.5696780000000 1.0
C      1  0.5642720000000  0.4550540000000  0.4395390000000 1.0
C      1  0.5072330000000  0.4893580000000  0.6115000000000 1.0
C      1  0.5075170000000  0.4090610000000  0.4353260000000 1.0
C      1  0.5076480000000  0.6018040000000  0.4547210000000 1.0
C      1  0.4714470000000  0.4802850000000  0.3914960000000 1.0
C      1  0.4724630000000  0.6042460000000  0.5377970000000 1.0
C      1  0.4720900000000  0.4160030000000  0.5713180000000 1.0
C      1  0.4101750000000  0.4780290000000  0.4480750000000 1.0
C      1  0.4121470000000  0.5595760000000  0.5088970000000 1.0
C      1  0.4108350000000  0.4646900000000  0.5447220000000 1.0
C      1  0.4544660000000  0.4387310000000  0.5625280000000 1.0
C      1  0.4544890000000  0.4766910000000  0.4161510000000 1.0
C      1  0.4553820000000  0.5851300000000  0.5220220000000 1.0
C      1  0.5910020000000  0.5227390000000  0.4287680000000 1.0
C      1  0.5910250000000  0.5513440000000  0.5563550000000 1.0
C      1  0.5906600000000  0.4265090000000  0.5164210000000 1.0
C      1  0.5691980000000  0.4789040000000  0.4227160000000 1.0
C      1  0.5690580000000  0.5785530000000  0.5215150000000 1.0
C      1  0.5688180000000  0.4433190000000  0.5573700000000 1.0
C      1  0.5196830000000  0.5729780000000  0.5777690000000 1.0
C      1  0.5195620000000  0.3971230000000  0.5252260000000 1.0
C      1  0.5198090000000  0.5303790000000  0.3993680000000 1.0
C      1  0.5342270000000  0.4958510000000  0.6001910000000 1.0
C      1  0.5341690000000  0.4160880000000  0.4467790000000 1.0
C      1  0.5346390000000  0.5889330000000  0.4544750000000 1.0
C      1  0.4847450000000  0.4747180000000  0.5738830000000 1.0
C      1  0.4854460000000  0.4478940000000  0.4408840000000 1.0
C      1  0.4854160000000  0.5776570000000  0.4848590000000 1.0
C      1  0.5021670000000  0.6125410000000  0.4827760000000 1.0
C      1  0.5012930000000  0.4600910000000  0.6052380000000 1.0
C      1  0.5014460000000  0.4287250000000  0.4125850000000 1.0
C      1  0.5477990000000  0.4536770000000  0.4875160000000 1.0
C      1  0.5485330000000  0.5347630000000  0.4666050000000 1.0
C      1  0.5481960000000  0.5127250000000  0.5471360000000 1.0
C      1  0.4725660000000  0.5078260000000  0.5288040000000 1.0
C      1  0.4724750000000  0.4705040000000  0.4923250000000 1.0
C      1  0.4737460000000  0.5207610000000  0.4792060000000 1.0
C      1  0.4659050000000  0.5568280000000  0.5185410000000 1.0
C      1  0.4646060000000  0.4561140000000  0.5396270000000 1.0
C      1  0.4653930000000  0.4869650000000  0.4425620000000 1.0
C      1  0.4233420000000  0.4413810000000  0.5317030000000 1.0
C      1  0.4236400000000  0.5007210000000  0.4364480000000 1.0
C      1  0.4238180000000  0.5578090000000  0.5356520000000 1.0
C      1  0.4979100000000  0.5914410000000  0.5320280000000 1.0
C      1  0.4972760000000  0.4278770000000  0.5629860000000 1.0
C      1  0.4970260000000  0.4817930000000  0.4052200000000 1.0
C      1  0.5367310000000  0.5837080000000  0.4850210000000 1.0
C      1  0.5364620000000  0.4722890000000  0.5800700000000 1.0
C      1  0.5364280000000  0.4451210000000  0.4360920000000 1.0
C      1  0.4981840000000  0.3956700000000  0.5061320000000 1.0
C      1  0.4983360000000  0.5476980000000  0.4077410000000 1.0
C      1  0.4979740000000  0.5567550000000  0.5876610000000 1.0
C      1  0.4768810000000  0.5291650000000  0.4146260000000 1.0
C      1  0.4771730000000  0.5597100000000  0.5673440000000 1.0
C      1  0.4772810000000  0.4118460000000  0.5184480000000 1.0
C      1  0.4297240000000  0.5495540000000  0.4847970000000 1.0
C      1  0.4278960000000  0.4902510000000  0.5511020000000 1.0
C      1  0.4293390000000  0.4571670000000  0.4629130000000 1.0
C      1  0.4684080000000  0.4490790000000  0.4144950000000 1.0
C      1  0.4692950000000  0.6003780000000  0.4991900000000 1.0
C      1  0.4682390000000  0.4514100000000  0.5870010000000 1.0
C      1  0.4618610000000  0.5373800000000  0.4387790000000 1.0
C      1  0.4615190000000  0.5348460000000  0.5628940000000 1.0
C      1  0.4616090000000  0.4274010000000  0.4987210000000 1.0
C      1  0.5933230000000  0.4855080000000  0.5053660000000 1.0
C      1  0.6076830000000  0.5022320000000  0.4832450000000 1.0
C      1  0.5971640000000  0.5150310000000  0.5078820000000 1.0
C      1  0.5403390000000  0.5003530000000  0.5003950000000 1.0
C      1  0.4773640000000  0.4994560000000  0.5001460000000 1.0
END
