TITL C-3578205-846-409 1.03412320756602e-06 125000 -146.583514394936 0 0 25 (C1) n - 1
REM
REM in /home/bkarasulu/work/CARBON/AIRSS/Generating-Clusters/EDIP-Nigel-Params/with-SteepDescent/Higher-Symm/SD-CG/HFTN-CG
REM
REM
REM
REM
REM
REM ./C.cell (12c818d87b63d06a65506943cc24bca4)
REM
REM compiler GCC version 9.2.1 20190827 (Red Hat 9.2.1-1)
REM options -cpp -mtune=generic -march=x86-64 -g -O0 -fpre-include=/usr/include/finclude/math-vector-fortran.h
REM seed 628960034 59179382 955854178 726776856 -1804053929 1581307256 -1301729445 566884603 1728461024 2145120279 32688546 1982882699 -1388594995 484854749 -682074945 487429252 -1799531370 -124396011 -778217871 -581529851 -1228035408 1364893997 -2029091210 -377612993 12300484 -1139732692 -407116021 1862382414 -701442062 -454434897 1419921322 -1446461328 516742922
REM
CELL 1.54180   50.00000   50.00000   50.00000   90.00000   90.00000   90.00000
LATT -1
SFAC C  
C      1  0.5146800000000  0.5197810000000  0.4481370000000 1.0
C      1  0.4581980000000  0.4954380000000  0.4514910000000 1.0
C      1  0.4436180000000  0.4985740000000  0.5106270000000 1.0
C      1  0.4809960000000  0.5067680000000  0.5640430000000 1.0
C      1  0.5459020000000  0.5124630000000  0.5467930000000 1.0
C      1  0.5552300000000  0.4835420000000  0.4843550000000 1.0
C      1  0.4462340000000  0.4789320000000  0.4926770000000 1.0
C      1  0.4631340000000  0.5187680000000  0.5481430000000 1.0
C      1  0.5279950000000  0.5034940000000  0.5647160000000 1.0
C      1  0.5646490000000  0.4987160000000  0.5045630000000 1.0
C      1  0.5259590000000  0.4954880000000  0.4490760000000 1.0
C      1  0.4685590000000  0.5201890000000  0.4520310000000 1.0
C      1  0.4555750000000  0.5208650000000  0.5216670000000 1.0
C      1  0.5035210000000  0.4911350000000  0.5603110000000 1.0
C      1  0.5462730000000  0.5142710000000  0.5189030000000 1.0
C      1  0.5322630000000  0.4774450000000  0.4694210000000 1.0
C      1  0.4926660000000  0.5305080000000  0.4610840000000 1.0
C      1  0.4599230000000  0.4741510000000  0.4691220000000 1.0
C      1  0.5197300000000  0.5114420000000  0.5071520000000 1.0
C      1  0.5089990000000  0.4684100000000  0.4860740000000 1.0
C      1  0.4951710000000  0.5344840000000  0.4894760000000 1.0
C      1  0.4852930000000  0.4629740000000  0.4718820000000 1.0
C      1  0.4722490000000  0.5353680000000  0.5049160000000 1.0
C      1  0.5029500000000  0.4764290000000  0.5366600000000 1.0
C      1  0.5057790000000  0.4857960000000  0.5101810000000 1.0
END
