TITL C-3577084-3642-572 -2.09422797804807e-06 125000 -550.009549851833 0 0 90 (C1) n - 1
REM
REM in /home/bkarasulu/work/CARBON/AIRSS/Generating-Clusters/EDIP-Nigel-Params/with-SteepDescent/Higher-Symm/SD-CG/HFTN-CG
REM
REM
REM
REM
REM
REM ./C.cell (12c818d87b63d06a65506943cc24bca4)
REM
REM compiler GCC version 9.2.1 20190827 (Red Hat 9.2.1-1)
REM options -cpp -mtune=generic -march=x86-64 -g -O0 -fpre-include=/usr/include/finclude/math-vector-fortran.h
REM seed 463093561 1127824030 -1568828725 1330029988 -739403800 168912519 1381244465 -5601667 -1940974100 -1214760599 718653857 -1595824248 1940968042 69802147 1160533093 1053481982 789621644 -443925975 -591791532 2005379857 84473045 -666660075 1503040818 1451378202 -796986355 -1640531334 673940201 1324028884 -1414066529 -528405453 -1955081834 -1339560644 189150730
REM
CELL 1.54180   50.00000   50.00000   50.00000   90.00000   90.00000   90.00000
LATT -1
SFAC C  
C      1  0.5340940000000  0.5829770000000  0.4734300000000 1.0
C      1  0.4881170000000  0.5375070000000  0.5747010000000 1.0
C      1  0.5804660000000  0.4753300000000  0.5351160000000 1.0
C      1  0.5346260000000  0.4173200000000  0.5162780000000 1.0
C      1  0.4530530000000  0.4169360000000  0.4735220000000 1.0
C      1  0.4663350000000  0.5817310000000  0.5187410000000 1.0
C      1  0.4830910000000  0.4550740000000  0.4249080000000 1.0
C      1  0.5254390000000  0.4529390000000  0.5816270000000 1.0
C      1  0.5120360000000  0.5350740000000  0.4190380000000 1.0
C      1  0.5663150000000  0.5191690000000  0.4637820000000 1.0
C      1  0.4258820000000  0.5281840000000  0.5392790000000 1.0
C      1  0.4286640000000  0.4847570000000  0.4530070000000 1.0
C      1  0.5406380000000  0.4777130000000  0.5780610000000 1.0
C      1  0.4838260000000  0.5837780000000  0.5432720000000 1.0
C      1  0.5698440000000  0.5453490000000  0.4748430000000 1.0
C      1  0.5347180000000  0.5168150000000  0.4186820000000 1.0
C      1  0.4678440000000  0.4797580000000  0.4217520000000 1.0
C      1  0.4613820000000  0.5272340000000  0.5784480000000 1.0
C      1  0.4779600000000  0.4138780000000  0.4587650000000 1.0
C      1  0.5095720000000  0.5781860000000  0.4574230000000 1.0
C      1  0.5223180000000  0.4157930000000  0.5431590000000 1.0
C      1  0.5752980000000  0.4582140000000  0.5108050000000 1.0
C      1  0.4323320000000  0.5372260000000  0.5123050000000 1.0
C      1  0.4227090000000  0.4606520000000  0.4690150000000 1.0
C      1  0.4545370000000  0.4719060000000  0.4979670000000 1.0
C      1  0.5026930000000  0.4576610000000  0.4796490000000 1.0
C      1  0.4819390000000  0.5005050000000  0.4582570000000 1.0
C      1  0.4687960000000  0.5129090000000  0.5051570000000 1.0
C      1  0.5414110000000  0.5294300000000  0.5044180000000 1.0
C      1  0.5403350000000  0.4835160000000  0.5030090000000 1.0
C      1  0.4963900000000  0.5434790000000  0.5317810000000 1.0
C      1  0.4961180000000  0.5468130000000  0.4851230000000 1.0
C      1  0.4975740000000  0.4507750000000  0.5267710000000 1.0
C      1  0.4767200000000  0.4946660000000  0.5482990000000 1.0
C      1  0.5246630000000  0.5045800000000  0.4600640000000 1.0
C      1  0.5222620000000  0.5006500000000  0.5449560000000 1.0
C      1  0.4604760000000  0.4989520000000  0.4796930000000 1.0
C      1  0.5044690000000  0.4777410000000  0.4558840000000 1.0
C      1  0.4773290000000  0.4514060000000  0.4989170000000 1.0
C      1  0.4558670000000  0.4937160000000  0.5259400000000 1.0
C      1  0.5460920000000  0.5016100000000  0.5287140000000 1.0
C      1  0.5288440000000  0.5063220000000  0.4887400000000 1.0
C      1  0.4981500000000  0.5141080000000  0.5385150000000 1.0
C      1  0.4973190000000  0.4714940000000  0.5499190000000 1.0
C      1  0.5007250000000  0.5259300000000  0.4604040000000 1.0
C      1  0.4759930000000  0.5407440000000  0.5075420000000 1.0
C      1  0.5214170000000  0.4576700000000  0.5044570000000 1.0
C      1  0.5191480000000  0.5513950000000  0.5073220000000 1.0
C      1  0.5339810000000  0.4974560000000  0.3985870000000 1.0
C      1  0.4219400000000  0.5159600000000  0.4930640000000 1.0
C      1  0.4949490000000  0.4216790000000  0.5356960000000 1.0
C      1  0.5270160000000  0.5019510000000  0.5887650000000 1.0
C      1  0.4853410000000  0.4981510000000  0.4062060000000 1.0
C      1  0.4666840000000  0.4986430000000  0.5769010000000 1.0
C      1  0.4246060000000  0.4655230000000  0.4979870000000 1.0
C      1  0.5732660000000  0.4733170000000  0.4858880000000 1.0
C      1  0.5774580000000  0.5419580000000  0.5021950000000 1.0
C      1  0.4846590000000  0.5805920000000  0.4721930000000 1.0
C      1  0.5040330000000  0.6030090000000  0.5390240000000 1.0
C      1  0.5011240000000  0.4135760000000  0.4767430000000 1.0
C      1  0.5204110000000  0.4028060000000  0.4950160000000 1.0
C      1  0.4264420000000  0.4990740000000  0.5343960000000 1.0
C      1  0.4886700000000  0.5263240000000  0.4058250000000 1.0
C      1  0.5286930000000  0.5811420000000  0.5027580000000 1.0
C      1  0.4644920000000  0.4239440000000  0.4998520000000 1.0
C      1  0.4819140000000  0.5951640000000  0.4973470000000 1.0
C      1  0.4272540000000  0.5112380000000  0.4649140000000 1.0
C      1  0.5813410000000  0.5005200000000  0.4808600000000 1.0
C      1  0.5898310000000  0.5006810000000  0.5278940000000 1.0
C      1  0.4979940000000  0.4627190000000  0.5786500000000 1.0
C      1  0.5079970000000  0.5235260000000  0.5914220000000 1.0
C      1  0.5105820000000  0.4615870000000  0.4223690000000 1.0
C      1  0.4415650000000  0.5360610000000  0.5609220000000 1.0
C      1  0.5543340000000  0.4381030000000  0.5122070000000 1.0
C      1  0.5109940000000  0.5563350000000  0.4382020000000 1.0
C      1  0.5559060000000  0.5674280000000  0.4659370000000 1.0
C      1  0.4447040000000  0.5637140000000  0.5092170000000 1.0
C      1  0.5321390000000  0.4324670000000  0.5635320000000 1.0
C      1  0.4768210000000  0.4309910000000  0.4369710000000 1.0
C      1  0.4899250000000  0.5643660000000  0.5639370000000 1.0
C      1  0.5555690000000  0.5138170000000  0.4379460000000 1.0
C      1  0.5597140000000  0.4770400000000  0.5556110000000 1.0
C      1  0.4405520000000  0.4817230000000  0.4278430000000 1.0
C      1  0.4349920000000  0.4360400000000  0.4626900000000 1.0
C      1  0.4129430000000  0.4918390000000  0.5083000000000 1.0
C      1  0.4856860000000  0.4063220000000  0.5116440000000 1.0
C      1  0.5103550000000  0.4831060000000  0.4033810000000 1.0
C      1  0.5080970000000  0.6015960000000  0.5107570000000 1.0
C      1  0.4906530000000  0.4888360000000  0.5928330000000 1.0
C      1  0.5893120000000  0.5156680000000  0.5044510000000 1.0
END
