TITL C-3577090-796-243 -6.44103345107353e-06 125000 -1065.67096971621 0 0 170 (C2) n - 1
REM
REM in /home/bkarasulu/work/CARBON/AIRSS/Generating-Clusters/EDIP-Nigel-Params/with-SteepDescent/Higher-Symm/SD-CG/HFTN-CG
REM
REM
REM
REM
REM
REM ./C.cell (12c818d87b63d06a65506943cc24bca4)
REM
REM compiler GCC version 9.2.1 20190827 (Red Hat 9.2.1-1)
REM options -cpp -mtune=generic -march=x86-64 -g -O0 -fpre-include=/usr/include/finclude/math-vector-fortran.h
REM seed 1086553994 804664711 -127015248 -577515666 1745035213 -1796757810 -799046745 88227055 238129173 645233963 989656778 -2021750015 578172327 -1194747140 1786422155 -213917538 -1315945486 -181762530 786315553 808639703 -1475140887 -978833093 947615285 598337533 -532396000 -1793068199 -861432066 1541433274 -631380282 875372023 732572979 2022686838 857714285
REM
CELL 1.54180   50.00000   50.00000   50.00000   90.00000   90.00000   90.00000
LATT -1
SFAC C  
C      1  0.4691910000000  0.5938390000000  0.4868420000000 1.0
C      1  0.4691920000000  0.4061600000000  0.5131590000000 1.0
C      1  0.5434910000000  0.4027980000000  0.5210470000000 1.0
C      1  0.5434900000000  0.5972020000000  0.4789530000000 1.0
C      1  0.5460460000000  0.4750420000000  0.4716500000000 1.0
C      1  0.5460460000000  0.5249590000000  0.5283500000000 1.0
C      1  0.5476240000000  0.5420450000000  0.4765510000000 1.0
C      1  0.5476250000000  0.4579560000000  0.5234490000000 1.0
C      1  0.5890010000000  0.4446720000000  0.5170860000000 1.0
C      1  0.5890000000000  0.5553290000000  0.4829140000000 1.0
C      1  0.4324440000000  0.4505100000000  0.4482020000000 1.0
C      1  0.4324440000000  0.5494890000000  0.5517980000000 1.0
C      1  0.4820980000000  0.4300770000000  0.4219180000000 1.0
C      1  0.4820980000000  0.5699220000000  0.5780820000000 1.0
C      1  0.4188810000000  0.5602790000000  0.4695240000000 1.0
C      1  0.4188820000000  0.4397190000000  0.5304770000000 1.0
C      1  0.4534360000000  0.5044520000000  0.5427840000000 1.0
C      1  0.4534360000000  0.4955470000000  0.4572160000000 1.0
C      1  0.4657250000000  0.4123590000000  0.5414550000000 1.0
C      1  0.4657240000000  0.5876400000000  0.4585450000000 1.0
C      1  0.4802420000000  0.5797200000000  0.5486650000000 1.0
C      1  0.4802430000000  0.4202800000000  0.4513350000000 1.0
C      1  0.4881780000000  0.5730130000000  0.4406430000000 1.0
C      1  0.4881790000000  0.4269870000000  0.5593570000000 1.0
C      1  0.5075190000000  0.4979640000000  0.5493260000000 1.0
C      1  0.5075180000000  0.5020360000000  0.4506740000000 1.0
C      1  0.4379870000000  0.5394070000000  0.5796080000000 1.0
C      1  0.4379870000000  0.4605920000000  0.4203920000000 1.0
C      1  0.5774280000000  0.4121100000000  0.4817090000000 1.0
C      1  0.5774270000000  0.5878910000000  0.5182900000000 1.0
C      1  0.5856350000000  0.5278960000000  0.4925360000000 1.0
C      1  0.5856360000000  0.4721050000000  0.5074640000000 1.0
C      1  0.5390750000000  0.6025530000000  0.5550360000000 1.0
C      1  0.5390760000000  0.3974470000000  0.4449640000000 1.0
C      1  0.5754890000000  0.5627780000000  0.4590570000000 1.0
C      1  0.5754910000000  0.4372230000000  0.5409430000000 1.0
C      1  0.5568880000000  0.5109920000000  0.5886450000000 1.0
C      1  0.5568880000000  0.4890090000000  0.4113550000000 1.0
C      1  0.4554250000000  0.5338240000000  0.5391500000000 1.0
C      1  0.4554250000000  0.4661750000000  0.4608500000000 1.0
C      1  0.4948190000000  0.4853170000000  0.5895010000000 1.0
C      1  0.4948190000000  0.5146830000000  0.4104990000000 1.0
C      1  0.5677420000000  0.4318420000000  0.4611890000000 1.0
C      1  0.5677410000000  0.5681590000000  0.5388110000000 1.0
C      1  0.5535830000000  0.5808500000000  0.4562720000000 1.0
C      1  0.5535840000000  0.4191510000000  0.5437270000000 1.0
C      1  0.4904010000000  0.5173950000000  0.5135730000000 1.0
C      1  0.4904010000000  0.4826050000000  0.4864270000000 1.0
C      1  0.5317120000000  0.4595000000000  0.6056250000000 1.0
C      1  0.5317100000000  0.5405000000000  0.3943740000000 1.0
C      1  0.5465630000000  0.5546570000000  0.4132600000000 1.0
C      1  0.5465650000000  0.4453430000000  0.5867400000000 1.0
C      1  0.5325950000000  0.6070060000000  0.5280030000000 1.0
C      1  0.5325970000000  0.3929940000000  0.4719960000000 1.0
C      1  0.4827350000000  0.4743230000000  0.3978830000000 1.0
C      1  0.4827350000000  0.5256770000000  0.6021170000000 1.0
C      1  0.4496260000000  0.4485820000000  0.5621140000000 1.0
C      1  0.4496240000000  0.5514170000000  0.4378860000000 1.0
C      1  0.5737260000000  0.5122460000000  0.4164310000000 1.0
C      1  0.5737270000000  0.4877550000000  0.5835680000000 1.0
C      1  0.5118030000000  0.5230260000000  0.4945950000000 1.0
C      1  0.5118030000000  0.4769740000000  0.5054050000000 1.0
C      1  0.5618160000000  0.5347990000000  0.5712110000000 1.0
C      1  0.5618160000000  0.4652020000000  0.4287890000000 1.0
C      1  0.5559340000000  0.4184580000000  0.4372280000000 1.0
C      1  0.5559330000000  0.5815430000000  0.5627710000000 1.0
C      1  0.4439920000000  0.4879560000000  0.5817670000000 1.0
C      1  0.4439910000000  0.5120430000000  0.4182330000000 1.0
C      1  0.4393320000000  0.5748170000000  0.4522780000000 1.0
C      1  0.4393340000000  0.4251820000000  0.5477220000000 1.0
C      1  0.5516800000000  0.4021420000000  0.4925000000000 1.0
C      1  0.5516780000000  0.5978590000000  0.5075000000000 1.0
C      1  0.4370120000000  0.4782740000000  0.4990720000000 1.0
C      1  0.4370120000000  0.5217260000000  0.5009280000000 1.0
C      1  0.5821600000000  0.5413590000000  0.5461300000000 1.0
C      1  0.5821600000000  0.4586420000000  0.4538700000000 1.0
C      1  0.5107370000000  0.3887270000000  0.5527440000000 1.0
C      1  0.5107350000000  0.6112730000000  0.4472560000000 1.0
C      1  0.5894720000000  0.5221000000000  0.5216900000000 1.0
C      1  0.5894720000000  0.4779010000000  0.4783100000000 1.0
C      1  0.5463230000000  0.5290210000000  0.4490270000000 1.0
C      1  0.5463240000000  0.4709790000000  0.5509730000000 1.0
C      1  0.5699570000000  0.5403710000000  0.4211560000000 1.0
C      1  0.5699590000000  0.4596300000000  0.5788430000000 1.0
C      1  0.4990180000000  0.5496500000000  0.4582290000000 1.0
C      1  0.4990190000000  0.4503500000000  0.5417710000000 1.0
C      1  0.4079140000000  0.5368870000000  0.5393920000000 1.0
C      1  0.4079140000000  0.4631120000000  0.4606090000000 1.0
C      1  0.4664580000000  0.4540840000000  0.4112350000000 1.0
C      1  0.4664580000000  0.5459150000000  0.5887660000000 1.0
C      1  0.4718390000000  0.4623250000000  0.5327870000000 1.0
C      1  0.4718380000000  0.5376740000000  0.4672130000000 1.0
C      1  0.4280050000000  0.5326590000000  0.4305670000000 1.0
C      1  0.4280050000000  0.4673400000000  0.5694340000000 1.0
C      1  0.5195240000000  0.4317380000000  0.4867790000000 1.0
C      1  0.5195230000000  0.5682630000000  0.5132210000000 1.0
C      1  0.4155730000000  0.5307540000000  0.4582030000000 1.0
C      1  0.4155730000000  0.4692450000000  0.5417970000000 1.0
C      1  0.5052710000000  0.3966840000000  0.4790320000000 1.0
C      1  0.5052700000000  0.6033160000000  0.5209680000000 1.0
C      1  0.5633600000000  0.4976260000000  0.5476860000000 1.0
C      1  0.5633590000000  0.5023740000000  0.4523140000000 1.0
C      1  0.4690370000000  0.4440480000000  0.5846940000000 1.0
C      1  0.4690360000000  0.5559510000000  0.4153060000000 1.0
C      1  0.4315380000000  0.5084660000000  0.4742360000000 1.0
C      1  0.4315390000000  0.4915330000000  0.5257650000000 1.0
C      1  0.5260240000000  0.5201220000000  0.5493840000000 1.0
C      1  0.5260240000000  0.4798790000000  0.4506160000000 1.0
C      1  0.4844740000000  0.5132600000000  0.5652860000000 1.0
C      1  0.4844740000000  0.4867400000000  0.4347140000000 1.0
C      1  0.4108460000000  0.5360020000000  0.5089070000000 1.0
C      1  0.4108460000000  0.4639970000000  0.4910940000000 1.0
C      1  0.5397210000000  0.4847690000000  0.4994960000000 1.0
C      1  0.5397200000000  0.5152310000000  0.5005040000000 1.0
C      1  0.4047460000000  0.5116270000000  0.5544000000000 1.0
C      1  0.4047450000000  0.4883710000000  0.4456000000000 1.0
C      1  0.5172540000000  0.5167190000000  0.3913220000000 1.0
C      1  0.5172550000000  0.4832810000000  0.6086780000000 1.0
C      1  0.4534500000000  0.5850820000000  0.5355520000000 1.0
C      1  0.4534510000000  0.4149170000000  0.4644490000000 1.0
C      1  0.4756690000000  0.5411030000000  0.5191250000000 1.0
C      1  0.4756690000000  0.4588970000000  0.4808750000000 1.0
C      1  0.4961680000000  0.5594730000000  0.5327860000000 1.0
C      1  0.4961680000000  0.4405270000000  0.4672140000000 1.0
C      1  0.5174070000000  0.4485620000000  0.5148400000000 1.0
C      1  0.5174060000000  0.5514380000000  0.4851600000000 1.0
C      1  0.5113440000000  0.4108890000000  0.5694460000000 1.0
C      1  0.5113420000000  0.5891120000000  0.4305540000000 1.0
C      1  0.4586010000000  0.4553310000000  0.5054190000000 1.0
C      1  0.4586000000000  0.5446680000000  0.4945820000000 1.0
C      1  0.4485410000000  0.5805350000000  0.5057490000000 1.0
C      1  0.4485420000000  0.4194640000000  0.4942510000000 1.0
C      1  0.3891800000000  0.4859960000000  0.5060180000000 1.0
C      1  0.3891790000000  0.5140030000000  0.4939830000000 1.0
C      1  0.5170620000000  0.6083990000000  0.4743280000000 1.0
C      1  0.5170640000000  0.3916020000000  0.5256720000000 1.0
C      1  0.5300550000000  0.5093000000000  0.6021950000000 1.0
C      1  0.5300540000000  0.4907010000000  0.3978040000000 1.0
C      1  0.4968080000000  0.3989820000000  0.5059260000000 1.0
C      1  0.4968070000000  0.6010180000000  0.4940740000000 1.0
C      1  0.4759890000000  0.4924450000000  0.5270580000000 1.0
C      1  0.4759880000000  0.5075540000000  0.4729420000000 1.0
C      1  0.4318370000000  0.4213010000000  0.4482980000000 1.0
C      1  0.4318360000000  0.5786980000000  0.5517020000000 1.0
C      1  0.5860940000000  0.4936330000000  0.5284780000000 1.0
C      1  0.5860940000000  0.5063680000000  0.4715210000000 1.0
C      1  0.5153890000000  0.5288190000000  0.4404090000000 1.0
C      1  0.5153890000000  0.4711810000000  0.5595910000000 1.0
C      1  0.5149330000000  0.5554200000000  0.5827700000000 1.0
C      1  0.5149330000000  0.4445810000000  0.4172300000000 1.0
C      1  0.4203720000000  0.5648850000000  0.4981470000000 1.0
C      1  0.4203730000000  0.4351140000000  0.5018540000000 1.0
C      1  0.5077740000000  0.5422460000000  0.5557950000000 1.0
C      1  0.5077750000000  0.4577540000000  0.4442050000000 1.0
C      1  0.5107370000000  0.4679740000000  0.3986040000000 1.0
C      1  0.5107370000000  0.5320260000000  0.6013960000000 1.0
C      1  0.5447070000000  0.4450200000000  0.4743530000000 1.0
C      1  0.5447060000000  0.5549800000000  0.5256470000000 1.0
C      1  0.5945320000000  0.5763750000000  0.5000340000000 1.0
C      1  0.5945330000000  0.4236260000000  0.4999650000000 1.0
C      1  0.3896600000000  0.5149230000000  0.4633330000000 1.0
C      1  0.3896600000000  0.4850760000000  0.5366680000000 1.0
C      1  0.4262830000000  0.4883760000000  0.4229200000000 1.0
C      1  0.4262830000000  0.5116230000000  0.5770800000000 1.0
C      1  0.4685090000000  0.4726540000000  0.5942120000000 1.0
C      1  0.4685080000000  0.5273460000000  0.4057890000000 1.0
C      1  0.5460290000000  0.5592590000000  0.5794540000000 1.0
C      1  0.5460290000000  0.4407410000000  0.4205460000000 1.0
C      1  0.5367480000000  0.5744550000000  0.4330020000000 1.0
C      1  0.5367490000000  0.4255450000000  0.5669970000000 1.0
END
