TITL C-3577088-510-593 -2.52905107049732e-06 125000 -576.731243285887 0 0 92 (C1) n - 1
REM
REM in /home/bkarasulu/work/CARBON/AIRSS/Generating-Clusters/EDIP-Nigel-Params/with-SteepDescent/Higher-Symm/SD-CG/HFTN-CG
REM
REM
REM
REM
REM
REM ./C.cell (12c818d87b63d06a65506943cc24bca4)
REM
REM compiler GCC version 9.2.1 20190827 (Red Hat 9.2.1-1)
REM options -cpp -mtune=generic -march=x86-64 -g -O0 -fpre-include=/usr/include/finclude/math-vector-fortran.h
REM seed 499184620 403888690 1078910324 1561159141 -883447871 1825929527 1655257397 1101765460 -1675184467 -799373945 562096314 -1378784314 -2132108881 1834981281 -392278897 36818565 -876566376 1216424171 600469543 1134978282 -1084615397 -1777866271 -168496241 608745857 682943443 379498804 -1229465617 1656326826 1462130973 -1342713622 74220205 2102039192 -1569336691
REM
CELL 1.54180   50.00000   50.00000   50.00000   90.00000   90.00000   90.00000
LATT -1
SFAC C  
C      1  0.4569600000000  0.4334740000000  0.5238720000000 1.0
C      1  0.4203030000000  0.5205970000000  0.5276450000000 1.0
C      1  0.4959040000000  0.5781660000000  0.5252870000000 1.0
C      1  0.5794550000000  0.5298840000000  0.5284320000000 1.0
C      1  0.5530120000000  0.4366580000000  0.5255650000000 1.0
C      1  0.4546350000000  0.5534690000000  0.5546680000000 1.0
C      1  0.5377900000000  0.5591860000000  0.5550720000000 1.0
C      1  0.5686870000000  0.4837620000000  0.5559450000000 1.0
C      1  0.5043330000000  0.4298850000000  0.5551240000000 1.0
C      1  0.4411210000000  0.4697030000000  0.5509120000000 1.0
C      1  0.4956670000000  0.5738790000000  0.5531800000000 1.0
C      1  0.5693590000000  0.5273010000000  0.5548220000000 1.0
C      1  0.5480440000000  0.4419630000000  0.5530860000000 1.0
C      1  0.4570200000000  0.4438790000000  0.5530370000000 1.0
C      1  0.4307920000000  0.5164340000000  0.5544000000000 1.0
C      1  0.4320620000000  0.5024530000000  0.4524120000000 1.0
C      1  0.4823360000000  0.5565720000000  0.4628910000000 1.0
C      1  0.5523050000000  0.5361440000000  0.4627360000000 1.0
C      1  0.5499710000000  0.4649530000000  0.4646740000000 1.0
C      1  0.4830110000000  0.4492950000000  0.4670190000000 1.0
C      1  0.4810250000000  0.5537670000000  0.5668250000000 1.0
C      1  0.5436700000000  0.5334360000000  0.5649970000000 1.0
C      1  0.5454870000000  0.4685280000000  0.5629700000000 1.0
C      1  0.4833830000000  0.4472490000000  0.5664580000000 1.0
C      1  0.4457600000000  0.4956530000000  0.5661480000000 1.0
C      1  0.4472050000000  0.5642620000000  0.5285810000000 1.0
C      1  0.5455510000000  0.5706260000000  0.5301300000000 1.0
C      1  0.5828930000000  0.4787750000000  0.5311130000000 1.0
C      1  0.5063080000000  0.4176880000000  0.5284470000000 1.0
C      1  0.4240680000000  0.4696910000000  0.5257390000000 1.0
C      1  0.4641130000000  0.5641910000000  0.4840510000000 1.0
C      1  0.5558040000000  0.5570120000000  0.4835900000000 1.0
C      1  0.5727600000000  0.4665150000000  0.4848630000000 1.0
C      1  0.4899020000000  0.4233020000000  0.4829040000000 1.0
C      1  0.4299450000000  0.4924520000000  0.4826970000000 1.0
C      1  0.4713010000000  0.4858800000000  0.5316160000000 1.0
C      1  0.4750490000000  0.5311630000000  0.5302650000000 1.0
C      1  0.5265860000000  0.5323640000000  0.5247640000000 1.0
C      1  0.5435610000000  0.4981220000000  0.5301530000000 1.0
C      1  0.5057610000000  0.4606550000000  0.5316420000000 1.0
C      1  0.5648120000000  0.5088590000000  0.4623480000000 1.0
C      1  0.5286250000000  0.4433550000000  0.4609790000000 1.0
C      1  0.4543140000000  0.4571820000000  0.4579840000000 1.0
C      1  0.4414770000000  0.5320300000000  0.4540740000000 1.0
C      1  0.5118390000000  0.5598550000000  0.4634020000000 1.0
C      1  0.5788210000000  0.4957000000000  0.4856810000000 1.0
C      1  0.5200390000000  0.4256090000000  0.4834440000000 1.0
C      1  0.4395350000000  0.4645700000000  0.4820030000000 1.0
C      1  0.4409500000000  0.5454380000000  0.4834870000000 1.0
C      1  0.5294070000000  0.5709480000000  0.4846110000000 1.0
C      1  0.5638210000000  0.5524200000000  0.5130700000000 1.0
C      1  0.5709870000000  0.4576240000000  0.5133720000000 1.0
C      1  0.4815670000000  0.4189550000000  0.5115930000000 1.0
C      1  0.4163960000000  0.4947910000000  0.5112160000000 1.0
C      1  0.4708060000000  0.5705840000000  0.5117470000000 1.0
C      1  0.4925040000000  0.4762060000000  0.5690460000000 1.0
C      1  0.4744970000000  0.4996290000000  0.5731150000000 1.0
C      1  0.4913270000000  0.5240180000000  0.5651940000000 1.0
C      1  0.5206920000000  0.5144530000000  0.5638200000000 1.0
C      1  0.5207310000000  0.4847900000000  0.5654330000000 1.0
C      1  0.5216600000000  0.4776200000000  0.4877410000000 1.0
C      1  0.4906870000000  0.4723320000000  0.4861540000000 1.0
C      1  0.4544650000000  0.5096570000000  0.4897860000000 1.0
C      1  0.5004810000000  0.5214840000000  0.4830940000000 1.0
C      1  0.5258640000000  0.5070460000000  0.4833760000000 1.0
C      1  0.4990240000000  0.5370340000000  0.5102190000000 1.0
C      1  0.5456950000000  0.5191040000000  0.5029990000000 1.0
C      1  0.5300060000000  0.4725120000000  0.5165100000000 1.0
C      1  0.4799620000000  0.4628360000000  0.5135820000000 1.0
C      1  0.4569920000000  0.5097350000000  0.5199770000000 1.0
C      1  0.4760520000000  0.4891990000000  0.3921250000000 1.0
C      1  0.4827310000000  0.5160210000000  0.3985500000000 1.0
C      1  0.5109490000000  0.5185570000000  0.3902650000000 1.0
C      1  0.5237900000000  0.4928880000000  0.3973540000000 1.0
C      1  0.4986810000000  0.4748740000000  0.4015640000000 1.0
C      1  0.5281990000000  0.4285460000000  0.5117630000000 1.0
C      1  0.4377290000000  0.4508230000000  0.5076790000000 1.0
C      1  0.4288640000000  0.5464830000000  0.5126510000000 1.0
C      1  0.5219700000000  0.5744180000000  0.5127490000000 1.0
C      1  0.5844110000000  0.5034730000000  0.5144760000000 1.0
C      1  0.4792250000000  0.4949940000000  0.4443920000000 1.0
C      1  0.4840140000000  0.5206650000000  0.4286720000000 1.0
C      1  0.5154630000000  0.5238780000000  0.4282960000000 1.0
C      1  0.5273370000000  0.4953920000000  0.4287290000000 1.0
C      1  0.5018400000000  0.4768750000000  0.4325440000000 1.0
C      1  0.5289700000000  0.5438170000000  0.4459380000000 1.0
C      1  0.5522730000000  0.4879280000000  0.4451120000000 1.0
C      1  0.5040650000000  0.4507540000000  0.4461970000000 1.0
C      1  0.4522960000000  0.4825720000000  0.4407680000000 1.0
C      1  0.4677570000000  0.5414630000000  0.4422200000000 1.0
C      1  0.4804760000000  0.5000980000000  0.4759460000000 1.0
C      1  0.5025500000000  0.4999390000000  0.5213330000000 1.0
END
