TITL C-3578206-1180-660 4.16168613840544e-06 125000 -995.665864735209 0 0 157 (C1) n - 1
REM
REM in /home/bkarasulu/work/CARBON/AIRSS/Generating-Clusters/EDIP-Nigel-Params/with-SteepDescent/Higher-Symm/SD-CG/HFTN-CG
REM
REM
REM
REM
REM
REM ./C.cell (12c818d87b63d06a65506943cc24bca4)
REM
REM compiler GCC version 9.2.1 20190827 (Red Hat 9.2.1-1)
REM options -cpp -mtune=generic -march=x86-64 -g -O0 -fpre-include=/usr/include/finclude/math-vector-fortran.h
REM seed -1752617447 2136604505 1638144424 -648375260 1623864652 -1764522270 -1112688658 -137185882 -1656356125 -352113840 -2146734497 -152346629 -558936408 847532637 -1470014778 -1866949088 1263611173 -726512282 1718887453 1306526689 -139486610 602248197 -1179064857 -188837976 106142132 -554756208 1757829416 1496686012 2090404882 761233543 -8639972 94192862 341308255
REM
CELL 1.54180   50.00000   50.00000   50.00000   90.00000   90.00000   90.00000
LATT -1
SFAC C  
C      1  0.4891490000000  0.5237070000000  0.4021240000000 1.0
C      1  0.3968040000000  0.5224510000000  0.4770280000000 1.0
C      1  0.4485770000000  0.5272590000000  0.5864940000000 1.0
C      1  0.5655150000000  0.5253930000000  0.5763690000000 1.0
C      1  0.5909510000000  0.5254730000000  0.4594340000000 1.0
C      1  0.4295620000000  0.5037170000000  0.5841400000000 1.0
C      1  0.5593340000000  0.5019280000000  0.5945820000000 1.0
C      1  0.6003660000000  0.5024070000000  0.4747530000000 1.0
C      1  0.5050500000000  0.5009370000000  0.3909030000000 1.0
C      1  0.3966710000000  0.4989250000000  0.4582580000000 1.0
C      1  0.4769730000000  0.6128650000000  0.4930720000000 1.0
C      1  0.4834420000000  0.6078240000000  0.5234890000000 1.0
C      1  0.5180190000000  0.6050550000000  0.5285640000000 1.0
C      1  0.5351030000000  0.6033870000000  0.4934930000000 1.0
C      1  0.5021440000000  0.6137990000000  0.4754170000000 1.0
C      1  0.4166230000000  0.5421660000000  0.5212430000000 1.0
C      1  0.4961600000000  0.5410730000000  0.5876810000000 1.0
C      1  0.5890110000000  0.5452000000000  0.5345100000000 1.0
C      1  0.5542610000000  0.5423180000000  0.4276810000000 1.0
C      1  0.4508160000000  0.5435350000000  0.4319340000000 1.0
C      1  0.5177260000000  0.5366930000000  0.5698050000000 1.0
C      1  0.5772880000000  0.5418390000000  0.5061180000000 1.0
C      1  0.5245660000000  0.5409660000000  0.4330810000000 1.0
C      1  0.4377140000000  0.5361780000000  0.4563610000000 1.0
C      1  0.4387490000000  0.5373780000000  0.5394520000000 1.0
C      1  0.4231540000000  0.5664410000000  0.5065040000000 1.0
C      1  0.4875020000000  0.5679340000000  0.5796370000000 1.0
C      1  0.5756390000000  0.5697710000000  0.5441800000000 1.0
C      1  0.5499540000000  0.5686300000000  0.4444100000000 1.0
C      1  0.4675450000000  0.5672330000000  0.4353080000000 1.0
C      1  0.5871590000000  0.5493030000000  0.4773110000000 1.0
C      1  0.5051030000000  0.5479900000000  0.4101750000000 1.0
C      1  0.4108100000000  0.5454730000000  0.4641910000000 1.0
C      1  0.4422250000000  0.5497170000000  0.5656450000000 1.0
C      1  0.5445310000000  0.5475500000000  0.5745160000000 1.0
C      1  0.5377090000000  0.4387080000000  0.4240520000000 1.0
C      1  0.4408180000000  0.4395010000000  0.4412200000000 1.0
C      1  0.4261160000000  0.4414750000000  0.5379530000000 1.0
C      1  0.5132360000000  0.4409310000000  0.5827270000000 1.0
C      1  0.5821090000000  0.4410510000000  0.5126250000000 1.0
C      1  0.5673840000000  0.5115700000000  0.5031290000000 1.0
C      1  0.5191690000000  0.5093050000000  0.4311870000000 1.0
C      1  0.4397450000000  0.5061850000000  0.4527410000000 1.0
C      1  0.4437270000000  0.5079350000000  0.5432650000000 1.0
C      1  0.5254390000000  0.5077620000000  0.5688780000000 1.0
C      1  0.5333060000000  0.5074700000000  0.6065560000000 1.0
C      1  0.6061770000000  0.5083910000000  0.5017590000000 1.0
C      1  0.5329680000000  0.5067730000000  0.3955170000000 1.0
C      1  0.4078840000000  0.5041610000000  0.4318440000000 1.0
C      1  0.4105860000000  0.5090770000000  0.5627660000000 1.0
C      1  0.5276560000000  0.5189070000000  0.5204340000000 1.0
C      1  0.5232290000000  0.5218090000000  0.4728370000000 1.0
C      1  0.4941790000000  0.5113390000000  0.4729690000000 1.0
C      1  0.4612080000000  0.5205530000000  0.5055370000000 1.0
C      1  0.4982500000000  0.5125440000000  0.5284150000000 1.0
C      1  0.5295050000000  0.4606590000000  0.4043810000000 1.0
C      1  0.4192060000000  0.4604670000000  0.4420790000000 1.0
C      1  0.4207580000000  0.4638100000000  0.5576940000000 1.0
C      1  0.5303520000000  0.4629390000000  0.5941370000000 1.0
C      1  0.5982600000000  0.4626940000000  0.4996880000000 1.0
C      1  0.4590540000000  0.4207530000000  0.5120560000000 1.0
C      1  0.4990020000000  0.4200500000000  0.5433720000000 1.0
C      1  0.5413150000000  0.4193060000000  0.5146310000000 1.0
C      1  0.5268270000000  0.4190550000000  0.4652900000000 1.0
C      1  0.4758610000000  0.4190050000000  0.4640530000000 1.0
C      1  0.4992810000000  0.3955150000000  0.5254670000000 1.0
C      1  0.5239520000000  0.3950890000000  0.5088570000000 1.0
C      1  0.5158300000000  0.3949280000000  0.4802830000000 1.0
C      1  0.4861690000000  0.3949660000000  0.4793130000000 1.0
C      1  0.4759320000000  0.3958120000000  0.5071740000000 1.0
C      1  0.4182690000000  0.4431900000000  0.5091730000000 1.0
C      1  0.4831320000000  0.4430780000000  0.5816590000000 1.0
C      1  0.5726750000000  0.4425090000000  0.5414690000000 1.0
C      1  0.5624860000000  0.4402200000000  0.4419570000000 1.0
C      1  0.4652890000000  0.4410400000000  0.4235980000000 1.0
C      1  0.5827600000000  0.5205110000000  0.5518240000000 1.0
C      1  0.5695370000000  0.5191060000000  0.4393270000000 1.0
C      1  0.4621630000000  0.5190850000000  0.4163000000000 1.0
C      1  0.4108140000000  0.5172470000000  0.5034080000000 1.0
C      1  0.4772540000000  0.5179510000000  0.5844780000000 1.0
C      1  0.5489670000000  0.5687550000000  0.5552480000000 1.0
C      1  0.5702400000000  0.5719620000000  0.4676470000000 1.0
C      1  0.4873740000000  0.5688570000000  0.4157460000000 1.0
C      1  0.4106110000000  0.5675300000000  0.4814600000000 1.0
C      1  0.4610720000000  0.5737700000000  0.5631270000000 1.0
C      1  0.5650120000000  0.4233080000000  0.4962650000000 1.0
C      1  0.5168870000000  0.4223840000000  0.4371370000000 1.0
C      1  0.4461000000000  0.4228380000000  0.4648420000000 1.0
C      1  0.4505120000000  0.4253170000000  0.5403290000000 1.0
C      1  0.5233630000000  0.4239940000000  0.5605490000000 1.0
C      1  0.5588220000000  0.4738670000000  0.5834110000000 1.0
C      1  0.5956950000000  0.4735850000000  0.4693530000000 1.0
C      1  0.4996470000000  0.4723500000000  0.3978230000000 1.0
C      1  0.4030640000000  0.4716330000000  0.4676040000000 1.0
C      1  0.4397280000000  0.4755470000000  0.5806970000000 1.0
C      1  0.5782730000000  0.4667100000000  0.4442210000000 1.0
C      1  0.4699820000000  0.4656820000000  0.4059780000000 1.0
C      1  0.4021000000000  0.4661420000000  0.4982980000000 1.0
C      1  0.4677620000000  0.4677500000000  0.5923520000000 1.0
C      1  0.5784460000000  0.4669860000000  0.5597790000000 1.0
C      1  0.4625740000000  0.5875460000000  0.5336000000000 1.0
C      1  0.5249400000000  0.5860900000000  0.5504880000000 1.0
C      1  0.5579580000000  0.5838900000000  0.4926640000000 1.0
C      1  0.5031000000000  0.5895360000000  0.4586290000000 1.0
C      1  0.4606850000000  0.5898790000000  0.4834990000000 1.0
C      1  0.4051190000000  0.4866100000000  0.5458140000000 1.0
C      1  0.5143240000000  0.4859640000000  0.6056640000000 1.0
C      1  0.6007620000000  0.4864080000000  0.5180840000000 1.0
C      1  0.5471250000000  0.4849370000000  0.4073180000000 1.0
C      1  0.4230770000000  0.4820240000000  0.4208180000000 1.0
C      1  0.5485900000000  0.4245610000000  0.5437080000000 1.0
C      1  0.5565770000000  0.4239420000000  0.4669330000000 1.0
C      1  0.4867240000000  0.4238610000000  0.4361660000000 1.0
C      1  0.4364140000000  0.4259140000000  0.4931370000000 1.0
C      1  0.4738300000000  0.4254410000000  0.5592220000000 1.0
C      1  0.4859560000000  0.4444580000000  0.4781880000000 1.0
C      1  0.4763710000000  0.4456140000000  0.5065090000000 1.0
C      1  0.4999410000000  0.4450080000000  0.5252610000000 1.0
C      1  0.5247420000000  0.4444380000000  0.5082720000000 1.0
C      1  0.5162620000000  0.4445250000000  0.4790950000000 1.0
C      1  0.4777790000000  0.5740130000000  0.4633440000000 1.0
C      1  0.4531300000000  0.5731730000000  0.5079240000000 1.0
C      1  0.4982870000000  0.5717190000000  0.5501740000000 1.0
C      1  0.5547690000000  0.5618450000000  0.5125580000000 1.0
C      1  0.5260220000000  0.5716980000000  0.4645280000000 1.0
C      1  0.5470660000000  0.5081780000000  0.5405720000000 1.0
C      1  0.5516790000000  0.5111940000000  0.4730010000000 1.0
C      1  0.4883280000000  0.5064770000000  0.4426370000000 1.0
C      1  0.4372910000000  0.5096610000000  0.4913670000000 1.0
C      1  0.4775750000000  0.5083390000000  0.5549270000000 1.0
C      1  0.4521370000000  0.4764210000000  0.5381020000000 1.0
C      1  0.5225140000000  0.4761650000000  0.5582090000000 1.0
C      1  0.5622770000000  0.4777330000000  0.4978600000000 1.0
C      1  0.5171930000000  0.4748030000000  0.4384960000000 1.0
C      1  0.4468400000000  0.4761350000000  0.4648640000000 1.0
C      1  0.4516510000000  0.4892830000000  0.4146360000000 1.0
C      1  0.4025180000000  0.4907130000000  0.5165060000000 1.0
C      1  0.4853530000000  0.4917030000000  0.5995310000000 1.0
C      1  0.5880490000000  0.4912570000000  0.5437800000000 1.0
C      1  0.5665820000000  0.4903380000000  0.4287480000000 1.0
C      1  0.4863840000000  0.4767730000000  0.4393460000000 1.0
C      1  0.4384090000000  0.4790610000000  0.4930830000000 1.0
C      1  0.4760130000000  0.4780430000000  0.5557090000000 1.0
C      1  0.5462380000000  0.4777750000000  0.5408840000000 1.0
C      1  0.5522900000000  0.4807380000000  0.4694620000000 1.0
C      1  0.4996880000000  0.4703470000000  0.5411380000000 1.0
C      1  0.5396930000000  0.4694110000000  0.5139500000000 1.0
C      1  0.5257140000000  0.4696800000000  0.4659540000000 1.0
C      1  0.4755750000000  0.4691020000000  0.4648530000000 1.0
C      1  0.4627150000000  0.4736960000000  0.5101500000000 1.0
C      1  0.4859940000000  0.5484590000000  0.4788550000000 1.0
C      1  0.4727420000000  0.5485510000000  0.5057920000000 1.0
C      1  0.4976770000000  0.5511180000000  0.5258910000000 1.0
C      1  0.5260570000000  0.5474570000000  0.5112440000000 1.0
C      1  0.5167630000000  0.5485160000000  0.4819180000000 1.0
C      1  0.5090670000000  0.5872630000000  0.5026580000000 1.0
C      1  0.4826470000000  0.5007920000000  0.5035060000000 1.0
END
