TITL C-3577079-311-273 -7.97199748771439e-07 125000 -818.307597171597 0 0 130 (C1) n - 1
REM
REM in /home/bkarasulu/work/CARBON/AIRSS/Generating-Clusters/EDIP-Nigel-Params/with-SteepDescent/Higher-Symm/SD-CG/HFTN-CG
REM
REM
REM
REM
REM
REM ./C.cell (12c818d87b63d06a65506943cc24bca4)
REM
REM compiler GCC version 9.2.1 20190827 (Red Hat 9.2.1-1)
REM options -cpp -mtune=generic -march=x86-64 -g -O0 -fpre-include=/usr/include/finclude/math-vector-fortran.h
REM seed -407606218 -608218786 1647902759 881088265 -32985600 530955744 1627929343 2087016695 -651413298 -1687132405 -2124641564 1254174211 -1317528264 -1558578287 1591312117 -1342207238 637599234 -1714649925 -1867587155 717951856 -1521530359 -196702104 1502924527 -1843505919 1232993309 194773825 -1270093359 -1166593596 658805064 1592896016 1094235115 1536613760 -1555305777
REM
CELL 1.54180   50.00000   50.00000   50.00000   90.00000   90.00000   90.00000
LATT -1
SFAC C  
C      1  0.4167160000000  0.4848340000000  0.4396350000000 1.0
C      1  0.4171480000000  0.5155350000000  0.5601630000000 1.0
C      1  0.4168810000000  0.4839090000000  0.5598400000000 1.0
C      1  0.4163310000000  0.5167810000000  0.4399490000000 1.0
C      1  0.4784280000000  0.4218330000000  0.5727100000000 1.0
C      1  0.4854220000000  0.5712640000000  0.4326440000000 1.0
C      1  0.4783170000000  0.4212680000000  0.4285350000000 1.0
C      1  0.4800940000000  0.5766910000000  0.5722830000000 1.0
C      1  0.4616410000000  0.4214960000000  0.5493080000000 1.0
C      1  0.4662870000000  0.5742710000000  0.4541210000000 1.0
C      1  0.4610760000000  0.4212490000000  0.4514350000000 1.0
C      1  0.4611840000000  0.5791050000000  0.5505660000000 1.0
C      1  0.4291070000000  0.4721000000000  0.4841570000000 1.0
C      1  0.4296670000000  0.5279960000000  0.5154790000000 1.0
C      1  0.4294100000000  0.4720980000000  0.5151300000000 1.0
C      1  0.4292900000000  0.5282490000000  0.4845390000000 1.0
C      1  0.5303820000000  0.5302020000000  0.5168780000000 1.0
C      1  0.5314780000000  0.4680260000000  0.4814260000000 1.0
C      1  0.5294320000000  0.5293530000000  0.4816880000000 1.0
C      1  0.5312330000000  0.4679340000000  0.5175380000000 1.0
C      1  0.5841010000000  0.5537340000000  0.5253100000000 1.0
C      1  0.5859350000000  0.4432740000000  0.4742540000000 1.0
C      1  0.5827140000000  0.5575620000000  0.4739550000000 1.0
C      1  0.5866590000000  0.4438790000000  0.5254900000000 1.0
C      1  0.5568880000000  0.5160520000000  0.4685700000000 1.0
C      1  0.5584260000000  0.4827180000000  0.5289140000000 1.0
C      1  0.5576260000000  0.5153260000000  0.5282360000000 1.0
C      1  0.5586910000000  0.4825300000000  0.4692370000000 1.0
C      1  0.4391140000000  0.5595440000000  0.5494660000000 1.0
C      1  0.4381620000000  0.4396390000000  0.4507480000000 1.0
C      1  0.4406600000000  0.5605210000000  0.4520170000000 1.0
C      1  0.4389520000000  0.4400960000000  0.5486170000000 1.0
C      1  0.4061020000000  0.5156550000000  0.4693580000000 1.0
C      1  0.4064340000000  0.4847840000000  0.5304650000000 1.0
C      1  0.4066010000000  0.5153500000000  0.5307290000000 1.0
C      1  0.4062020000000  0.4851800000000  0.4689670000000 1.0
C      1  0.5050830000000  0.5149430000000  0.5267290000000 1.0
C      1  0.5055730000000  0.4842210000000  0.4727940000000 1.0
C      1  0.5039990000000  0.5149200000000  0.4701030000000 1.0
C      1  0.5051770000000  0.4837050000000  0.5263010000000 1.0
C      1  0.4583550000000  0.5334310000000  0.5857800000000 1.0
C      1  0.4600370000000  0.4667120000000  0.4154400000000 1.0
C      1  0.4574630000000  0.5364490000000  0.4142570000000 1.0
C      1  0.4560960000000  0.4642400000000  0.5865860000000 1.0
C      1  0.5676850000000  0.4707750000000  0.4414920000000 1.0
C      1  0.5664560000000  0.5264000000000  0.5554330000000 1.0
C      1  0.5671390000000  0.4725890000000  0.5571850000000 1.0
C      1  0.5656370000000  0.5284900000000  0.4410160000000 1.0
C      1  0.4709840000000  0.4157260000000  0.4782720000000 1.0
C      1  0.4705610000000  0.5861580000000  0.5238690000000 1.0
C      1  0.4712010000000  0.4148550000000  0.5226660000000 1.0
C      1  0.4719900000000  0.5855770000000  0.4795900000000 1.0
C      1  0.4578730000000  0.5121250000000  0.6030180000000 1.0
C      1  0.4692990000000  0.4916250000000  0.4077430000000 1.0
C      1  0.4770980000000  0.5163990000000  0.4180790000000 1.0
C      1  0.4565400000000  0.4857300000000  0.6036180000000 1.0
C      1  0.5246570000000  0.4860010000000  0.4328660000000 1.0
C      1  0.5213120000000  0.5152510000000  0.5727100000000 1.0
C      1  0.5228960000000  0.4878040000000  0.5665440000000 1.0
C      1  0.5235560000000  0.5123250000000  0.4226520000000 1.0
C      1  0.4307990000000  0.4425680000000  0.5212480000000 1.0
C      1  0.4305590000000  0.5579970000000  0.4786180000000 1.0
C      1  0.4297980000000  0.4426650000000  0.4779050000000 1.0
C      1  0.4311670000000  0.5575170000000  0.5219460000000 1.0
C      1  0.5204900000000  0.5580660000000  0.5355340000000 1.0
C      1  0.5207070000000  0.4421690000000  0.4620070000000 1.0
C      1  0.5214170000000  0.5558530000000  0.4684890000000 1.0
C      1  0.5207060000000  0.4427950000000  0.5384430000000 1.0
C      1  0.5219000000000  0.6005610000000  0.4725150000000 1.0
C      1  0.5222630000000  0.4049220000000  0.5311030000000 1.0
C      1  0.5219870000000  0.5966200000000  0.5309130000000 1.0
C      1  0.5217750000000  0.4043640000000  0.4697060000000 1.0
C      1  0.4555220000000  0.5152420000000  0.5272710000000 1.0
C      1  0.4549920000000  0.4842980000000  0.4720150000000 1.0
C      1  0.4548080000000  0.5152660000000  0.4720860000000 1.0
C      1  0.4553630000000  0.4842320000000  0.5270900000000 1.0
C      1  0.4424070000000  0.5332610000000  0.4399510000000 1.0
C      1  0.4427680000000  0.4675120000000  0.5601350000000 1.0
C      1  0.4432120000000  0.5318290000000  0.5603200000000 1.0
C      1  0.4424020000000  0.4672470000000  0.4394760000000 1.0
C      1  0.5400620000000  0.5785920000000  0.4673920000000 1.0
C      1  0.5511730000000  0.4111410000000  0.5345310000000 1.0
C      1  0.5503680000000  0.5902150000000  0.5342370000000 1.0
C      1  0.5507370000000  0.4100500000000  0.4666500000000 1.0
C      1  0.4780400000000  0.4458420000000  0.5874360000000 1.0
C      1  0.4707040000000  0.5610520000000  0.4111880000000 1.0
C      1  0.4788270000000  0.4448290000000  0.4132160000000 1.0
C      1  0.4812290000000  0.5515740000000  0.5865770000000 1.0
C      1  0.5435730000000  0.5344420000000  0.5721660000000 1.0
C      1  0.5440480000000  0.4666390000000  0.4252840000000 1.0
C      1  0.5455070000000  0.5315760000000  0.4195300000000 1.0
C      1  0.5435640000000  0.4691650000000  0.5738550000000 1.0
C      1  0.5351960000000  0.4400210000000  0.4350050000000 1.0
C      1  0.5342560000000  0.5610580000000  0.5630720000000 1.0
C      1  0.5357460000000  0.4417700000000  0.5654200000000 1.0
C      1  0.5337340000000  0.5594770000000  0.4221430000000 1.0
C      1  0.5527170000000  0.5756210000000  0.4392150000000 1.0
C      1  0.5591990000000  0.4244640000000  0.5605290000000 1.0
C      1  0.5543100000000  0.5818550000000  0.5614780000000 1.0
C      1  0.5585300000000  0.4225440000000  0.4401890000000 1.0
C      1  0.4801820000000  0.4731040000000  0.4841470000000 1.0
C      1  0.4803260000000  0.5258020000000  0.5141320000000 1.0
C      1  0.4800570000000  0.4735580000000  0.5135080000000 1.0
C      1  0.4798220000000  0.5248680000000  0.4846270000000 1.0
C      1  0.4983760000000  0.5951850000000  0.4876240000000 1.0
C      1  0.4995090000000  0.4123370000000  0.5148020000000 1.0
C      1  0.4985190000000  0.5907190000000  0.5156800000000 1.0
C      1  0.4992670000000  0.4122880000000  0.4860620000000 1.0
C      1  0.5619360000000  0.5708290000000  0.5155370000000 1.0
C      1  0.5654220000000  0.4261720000000  0.4860010000000 1.0
C      1  0.5631480000000  0.5758750000000  0.4870330000000 1.0
C      1  0.5669260000000  0.4252680000000  0.5143560000000 1.0
C      1  0.5803740000000  0.4436410000000  0.4450990000000 1.0
C      1  0.5850720000000  0.5480250000000  0.5531150000000 1.0
C      1  0.5806130000000  0.4455960000000  0.5546780000000 1.0
C      1  0.5758740000000  0.5565360000000  0.4448480000000 1.0
C      1  0.5826960000000  0.4713240000000  0.4844320000000 1.0
C      1  0.5811140000000  0.5270210000000  0.5128610000000 1.0
C      1  0.5824940000000  0.4714630000000  0.5140820000000 1.0
C      1  0.5796010000000  0.5291910000000  0.4835930000000 1.0
C      1  0.4969960000000  0.4772720000000  0.5631410000000 1.0
C      1  0.5011380000000  0.5243400000000  0.4367260000000 1.0
C      1  0.4983350000000  0.4760240000000  0.4360850000000 1.0
C      1  0.4952620000000  0.5239460000000  0.5632490000000 1.0
C      1  0.5094900000000  0.5540340000000  0.4398640000000 1.0
C      1  0.4944780000000  0.4505210000000  0.5524870000000 1.0
C      1  0.4939650000000  0.5503800000000  0.5482100000000 1.0
C      1  0.4941570000000  0.4499650000000  0.4488110000000 1.0
C      1  0.4505330000000  0.5774100000000  0.5014680000000 1.0
C      1  0.4507530000000  0.4239070000000  0.5007550000000 1.0
END
