TITL C-3577080-309-183 4.41007458479951e-09 125000 -696.148639730885 0 0 114 (C1) n - 1
REM
REM in /home/bkarasulu/work/CARBON/AIRSS/Generating-Clusters/EDIP-Nigel-Params/with-SteepDescent/Higher-Symm/SD-CG/HFTN-CG
REM
REM
REM
REM
REM
REM ./C.cell (12c818d87b63d06a65506943cc24bca4)
REM
REM compiler GCC version 9.2.1 20190827 (Red Hat 9.2.1-1)
REM options -cpp -mtune=generic -march=x86-64 -g -O0 -fpre-include=/usr/include/finclude/math-vector-fortran.h
REM seed 115252959 59757523 -822413529 1713036813 -1740478770 1441121827 -88604570 -815586080 1947512815 819903529 512904155 1856076254 -900190929 -48861098 537291885 2036774083 -594614851 -1801087753 781028512 290432715 1169205538 741503168 -2064077535 1766974813 -2120647586 -1896603638 1503879409 -468205332 1642105493 1174722680 1085932533 571497678 1606321635
REM
CELL 1.54180   50.00000   50.00000   50.00000   90.00000   90.00000   90.00000
LATT -1
SFAC C  
C      1  0.5710960000000  0.4612330000000  0.5394150000000 1.0
C      1  0.4853750000000  0.4975760000000  0.5251800000000 1.0
C      1  0.4908400000000  0.5001470000000  0.4423250000000 1.0
C      1  0.5148620000000  0.4661370000000  0.4567340000000 1.0
C      1  0.5407100000000  0.4881870000000  0.5761400000000 1.0
C      1  0.4430780000000  0.5374190000000  0.4621530000000 1.0
C      1  0.5346140000000  0.5687850000000  0.4640240000000 1.0
C      1  0.5671200000000  0.5548130000000  0.5440370000000 1.0
C      1  0.4617670000000  0.4471950000000  0.5805140000000 1.0
C      1  0.5626280000000  0.5079320000000  0.5436330000000 1.0
C      1  0.4790460000000  0.4678320000000  0.5261180000000 1.0
C      1  0.5117930000000  0.4473180000000  0.5858400000000 1.0
C      1  0.5417750000000  0.5176590000000  0.5811890000000 1.0
C      1  0.4247160000000  0.5512130000000  0.5001920000000 1.0
C      1  0.5076470000000  0.4110240000000  0.4947530000000 1.0
C      1  0.4540930000000  0.5816390000000  0.5216390000000 1.0
C      1  0.5332270000000  0.4879790000000  0.4462550000000 1.0
C      1  0.4939010000000  0.4718680000000  0.4042570000000 1.0
C      1  0.4856750000000  0.4500120000000  0.5974860000000 1.0
C      1  0.4268980000000  0.4672350000000  0.5556450000000 1.0
C      1  0.5817740000000  0.5290840000000  0.5395900000000 1.0
C      1  0.4487020000000  0.4731220000000  0.5744660000000 1.0
C      1  0.4694100000000  0.5183350000000  0.5756530000000 1.0
C      1  0.4696210000000  0.4465790000000  0.4416180000000 1.0
C      1  0.5193540000000  0.5317670000000  0.5950940000000 1.0
C      1  0.5310750000000  0.4414680000000  0.4077030000000 1.0
C      1  0.5684360000000  0.4538170000000  0.4889760000000 1.0
C      1  0.5926760000000  0.5214390000000  0.5138760000000 1.0
C      1  0.4476030000000  0.4776890000000  0.4924710000000 1.0
C      1  0.4086440000000  0.5004060000000  0.4664850000000 1.0
C      1  0.5294130000000  0.4385550000000  0.4584680000000 1.0
C      1  0.4769690000000  0.4266020000000  0.4621390000000 1.0
C      1  0.5158560000000  0.5169250000000  0.4061900000000 1.0
C      1  0.4317480000000  0.5349390000000  0.4370760000000 1.0
C      1  0.5056000000000  0.4188030000000  0.4655870000000 1.0
C      1  0.5401070000000  0.5465460000000  0.5592070000000 1.0
C      1  0.4040690000000  0.5224290000000  0.4852200000000 1.0
C      1  0.4934060000000  0.4624140000000  0.4334000000000 1.0
C      1  0.4996650000000  0.4865310000000  0.5603900000000 1.0
C      1  0.5065440000000  0.4552460000000  0.5576100000000 1.0
C      1  0.4815200000000  0.4173170000000  0.5090750000000 1.0
C      1  0.5471910000000  0.4151450000000  0.5280540000000 1.0
C      1  0.4519270000000  0.5487380000000  0.4856860000000 1.0
C      1  0.4333120000000  0.5629480000000  0.5254440000000 1.0
C      1  0.4193690000000  0.5175640000000  0.5362400000000 1.0
C      1  0.5325470000000  0.4601370000000  0.5435170000000 1.0
C      1  0.5635710000000  0.4826850000000  0.4457480000000 1.0
C      1  0.4998680000000  0.5838550000000  0.5011100000000 1.0
C      1  0.4624400000000  0.5751120000000  0.4761740000000 1.0
C      1  0.4972780000000  0.4755110000000  0.4818840000000 1.0
C      1  0.4940450000000  0.5150250000000  0.5936180000000 1.0
C      1  0.4835080000000  0.5495210000000  0.4352050000000 1.0
C      1  0.5783770000000  0.5084700000000  0.4517850000000 1.0
C      1  0.5634130000000  0.5338760000000  0.4525400000000 1.0
C      1  0.4653150000000  0.4997190000000  0.4553480000000 1.0
C      1  0.5740090000000  0.4655210000000  0.4651980000000 1.0
C      1  0.5465590000000  0.4355450000000  0.4833820000000 1.0
C      1  0.4343880000000  0.4335810000000  0.4844020000000 1.0
C      1  0.5207300000000  0.5590040000000  0.5809650000000 1.0
C      1  0.4993590000000  0.5273770000000  0.4510080000000 1.0
C      1  0.5387690000000  0.5926090000000  0.5208870000000 1.0
C      1  0.5601660000000  0.4640270000000  0.4207840000000 1.0
C      1  0.4760820000000  0.5297940000000  0.4984860000000 1.0
C      1  0.4601010000000  0.5079490000000  0.4104000000000 1.0
C      1  0.4283530000000  0.4904800000000  0.5386060000000 1.0
C      1  0.5333510000000  0.4216330000000  0.5047740000000 1.0
C      1  0.5382680000000  0.5469790000000  0.4435800000000 1.0
C      1  0.5522180000000  0.4363150000000  0.5453740000000 1.0
C      1  0.4671490000000  0.4934670000000  0.5596980000000 1.0
C      1  0.5378930000000  0.5457500000000  0.5124610000000 1.0
C      1  0.5547260000000  0.5701870000000  0.5139730000000 1.0
C      1  0.5216320000000  0.5115920000000  0.4900210000000 1.0
C      1  0.4574790000000  0.5428490000000  0.5624310000000 1.0
C      1  0.4713790000000  0.4941900000000  0.4844040000000 1.0
C      1  0.5070960000000  0.5663540000000  0.4769980000000 1.0
C      1  0.4200940000000  0.5068080000000  0.4396360000000 1.0
C      1  0.4019090000000  0.5227460000000  0.5136150000000 1.0
C      1  0.4388240000000  0.5388710000000  0.5402750000000 1.0
C      1  0.5220850000000  0.4676320000000  0.3989560000000 1.0
C      1  0.4848150000000  0.5720770000000  0.4565060000000 1.0
C      1  0.4501880000000  0.4653000000000  0.5191510000000 1.0
C      1  0.4893040000000  0.5007860000000  0.4116340000000 1.0
C      1  0.4444340000000  0.4619840000000  0.4448740000000 1.0
C      1  0.5337910000000  0.4919450000000  0.4142110000000 1.0
C      1  0.4057870000000  0.4725950000000  0.4724510000000 1.0
C      1  0.5728190000000  0.5045630000000  0.5005130000000 1.0
C      1  0.5589620000000  0.5706510000000  0.4825540000000 1.0
C      1  0.4989770000000  0.4576290000000  0.5055520000000 1.0
C      1  0.5462280000000  0.4377050000000  0.4319560000000 1.0
C      1  0.4455050000000  0.4913060000000  0.4340260000000 1.0
C      1  0.5654760000000  0.4835520000000  0.5592590000000 1.0
C      1  0.4711220000000  0.5891140000000  0.5003320000000 1.0
C      1  0.4986010000000  0.4864600000000  0.6016310000000 1.0
C      1  0.4368820000000  0.4431560000000  0.5396180000000 1.0
C      1  0.5177150000000  0.5435020000000  0.4208200000000 1.0
C      1  0.4966440000000  0.5670790000000  0.5701720000000 1.0
C      1  0.4596220000000  0.4305430000000  0.5547050000000 1.0
C      1  0.5738800000000  0.5476930000000  0.4748430000000 1.0
C      1  0.4324670000000  0.4606990000000  0.4731120000000 1.0
C      1  0.5241220000000  0.4727530000000  0.5951150000000 1.0
C      1  0.5018530000000  0.5332820000000  0.4811190000000 1.0
C      1  0.5248160000000  0.5091050000000  0.5414620000000 1.0
C      1  0.5686550000000  0.4731980000000  0.5110000000000 1.0
C      1  0.4844560000000  0.4310940000000  0.5377790000000 1.0
C      1  0.5152180000000  0.4974290000000  0.5163150000000 1.0
C      1  0.5485030000000  0.5249000000000  0.4926350000000 1.0
C      1  0.4788860000000  0.5587870000000  0.5502410000000 1.0
C      1  0.5164120000000  0.6035860000000  0.5114600000000 1.0
C      1  0.5210130000000  0.5382440000000  0.5356940000000 1.0
C      1  0.5249030000000  0.4688560000000  0.5158600000000 1.0
C      1  0.5917670000000  0.5059020000000  0.4779210000000 1.0
C      1  0.4565690000000  0.5362040000000  0.4198350000000 1.0
C      1  0.4614650000000  0.4245500000000  0.4867500000000 1.0
C      1  0.4903070000000  0.5409920000000  0.5284010000000 1.0
END
