TITL C-3578196-9646-576 4.71952090463724e-06 125000 -726.324391791343 0 0 116 (C1) n - 1
REM
REM in /home/bkarasulu/work/CARBON/AIRSS/Generating-Clusters/EDIP-Nigel-Params/with-SteepDescent/Higher-Symm/SD-CG/HFTN-CG
REM
REM
REM
REM
REM
REM ./C.cell (12c818d87b63d06a65506943cc24bca4)
REM
REM compiler GCC version 9.2.1 20190827 (Red Hat 9.2.1-1)
REM options -cpp -mtune=generic -march=x86-64 -g -O0 -fpre-include=/usr/include/finclude/math-vector-fortran.h
REM seed 1910667221 -418846990 1746450580 -1977485487 -794470867 -1500175054 941191842 924266040 -1913661818 -833117163 725190498 -953054218 1364503911 -336130197 -122239660 -1430185888 -847807496 -87375557 -1149137416 1053009355 -635523237 1223736956 552580750 2081905285 467311673 1580501778 -2074765096 -1010767663 -1296757054 607437045 -1864826650 -1189702255 1431906628
REM
CELL 1.54180   50.00000   50.00000   50.00000   90.00000   90.00000   90.00000
LATT -1
SFAC C  
C      1  0.5520380000000  0.5696520000000  0.5238860000000 1.0
C      1  0.5499950000000  0.4840240000000  0.4364010000000 1.0
C      1  0.5504240000000  0.4496370000000  0.5492420000000 1.0
C      1  0.4492270000000  0.5631370000000  0.4807370000000 1.0
C      1  0.4511810000000  0.4856510000000  0.5675470000000 1.0
C      1  0.4443720000000  0.4462590000000  0.4486300000000 1.0
C      1  0.4466810000000  0.4331260000000  0.4759700000000 1.0
C      1  0.4529760000000  0.5148040000000  0.5652910000000 1.0
C      1  0.4466850000000  0.5534600000000  0.4526010000000 1.0
C      1  0.5472440000000  0.4361290000000  0.5221940000000 1.0
C      1  0.5499370000000  0.5135060000000  0.4361250000000 1.0
C      1  0.5536440000000  0.5569900000000  0.5509240000000 1.0
C      1  0.5331560000000  0.4772150000000  0.5203510000000 1.0
C      1  0.5191740000000  0.5277260000000  0.4969830000000 1.0
C      1  0.5230380000000  0.4878660000000  0.4712000000000 1.0
C      1  0.4760870000000  0.4739530000000  0.4625930000000 1.0
C      1  0.4646820000000  0.5231620000000  0.4909350000000 1.0
C      1  0.4883100000000  0.4834030000000  0.5057610000000 1.0
C      1  0.4788000000000  0.5247500000000  0.4639780000000 1.0
C      1  0.4650450000000  0.4772980000000  0.4894620000000 1.0
C      1  0.4893980000000  0.5137320000000  0.5065780000000 1.0
C      1  0.5418490000000  0.5273040000000  0.5210260000000 1.0
C      1  0.5146330000000  0.4730610000000  0.4958380000000 1.0
C      1  0.5390520000000  0.5116030000000  0.4782910000000 1.0
C      1  0.4937900000000  0.5696590000000  0.4431660000000 1.0
C      1  0.4933480000000  0.4078210000000  0.4705860000000 1.0
C      1  0.4978590000000  0.5187820000000  0.5867840000000 1.0
C      1  0.5033770000000  0.5735410000000  0.5640080000000 1.0
C      1  0.5008610000000  0.4214640000000  0.5285950000000 1.0
C      1  0.5046650000000  0.5145140000000  0.4119640000000 1.0
C      1  0.5045970000000  0.4363060000000  0.5645710000000 1.0
C      1  0.5034670000000  0.5699120000000  0.5334730000000 1.0
C      1  0.5024150000000  0.4865870000000  0.4241350000000 1.0
C      1  0.4937270000000  0.4313190000000  0.4399200000000 1.0
C      1  0.4932960000000  0.5909120000000  0.4757160000000 1.0
C      1  0.4981910000000  0.4887600000000  0.5878580000000 1.0
C      1  0.4680540000000  0.4436760000000  0.4268860000000 1.0
C      1  0.4729760000000  0.4721760000000  0.5828180000000 1.0
C      1  0.4696970000000  0.5820330000000  0.4925750000000 1.0
C      1  0.5310260000000  0.4490410000000  0.5728260000000 1.0
C      1  0.5274490000000  0.4697080000000  0.4220490000000 1.0
C      1  0.5257350000000  0.5816300000000  0.5171640000000 1.0
C      1  0.5292790000000  0.5587960000000  0.5716940000000 1.0
C      1  0.5269330000000  0.5291020000000  0.4245650000000 1.0
C      1  0.5251930000000  0.4173370000000  0.5131000000000 1.0
C      1  0.4678400000000  0.5593250000000  0.4311210000000 1.0
C      1  0.4743050000000  0.5319060000000  0.5772230000000 1.0
C      1  0.4681180000000  0.4140700000000  0.4871070000000 1.0
C      1  0.4230520000000  0.5139510000000  0.5244770000000 1.0
C      1  0.4148400000000  0.5161070000000  0.4732480000000 1.0
C      1  0.4159750000000  0.4690300000000  0.4995300000000 1.0
C      1  0.5801530000000  0.5138810000000  0.4780720000000 1.0
C      1  0.5838100000000  0.5179770000000  0.5291170000000 1.0
C      1  0.5821020000000  0.4685560000000  0.5024290000000 1.0
C      1  0.5802860000000  0.4843070000000  0.4777360000000 1.0
C      1  0.5823740000000  0.4853830000000  0.5281830000000 1.0
C      1  0.5816060000000  0.5313890000000  0.5029700000000 1.0
C      1  0.4229960000000  0.4847300000000  0.5243330000000 1.0
C      1  0.4144620000000  0.4836670000000  0.4731530000000 1.0
C      1  0.4157740000000  0.5298500000000  0.5000980000000 1.0
C      1  0.4323810000000  0.5272450000000  0.5490500000000 1.0
C      1  0.4255470000000  0.5317870000000  0.4495740000000 1.0
C      1  0.4255220000000  0.4408670000000  0.4969490000000 1.0
C      1  0.5715210000000  0.5262750000000  0.4524740000000 1.0
C      1  0.5723180000000  0.5329580000000  0.5526760000000 1.0
C      1  0.5677750000000  0.4423530000000  0.5021550000000 1.0
C      1  0.5725740000000  0.4714600000000  0.4520780000000 1.0
C      1  0.5703580000000  0.4716780000000  0.5519190000000 1.0
C      1  0.5676960000000  0.5574760000000  0.5016640000000 1.0
C      1  0.4336620000000  0.4714240000000  0.5483020000000 1.0
C      1  0.4218380000000  0.4677320000000  0.4480460000000 1.0
C      1  0.4259320000000  0.5574650000000  0.4985720000000 1.0
C      1  0.4219190000000  0.4862110000000  0.4255700000000 1.0
C      1  0.4337500000000  0.4429160000000  0.5475040000000 1.0
C      1  0.4266870000000  0.5685790000000  0.5244530000000 1.0
C      1  0.5689460000000  0.4886820000000  0.5740410000000 1.0
C      1  0.5733170000000  0.4427830000000  0.4532000000000 1.0
C      1  0.5664200000000  0.5696730000000  0.4756890000000 1.0
C      1  0.5681940000000  0.5157720000000  0.5743340000000 1.0
C      1  0.5736000000000  0.5550350000000  0.4527280000000 1.0
C      1  0.5643040000000  0.4300100000000  0.4764750000000 1.0
C      1  0.4269010000000  0.5146500000000  0.4265440000000 1.0
C      1  0.4344140000000  0.5554890000000  0.5476170000000 1.0
C      1  0.4277820000000  0.4289970000000  0.5233830000000 1.0
C      1  0.5161620000000  0.5542750000000  0.4839400000000 1.0
C      1  0.5355680000000  0.4490340000000  0.4597830000000 1.0
C      1  0.5210920000000  0.4913750000000  0.5498980000000 1.0
C      1  0.4615400000000  0.5460010000000  0.5220150000000 1.0
C      1  0.4836090000000  0.4698260000000  0.5318760000000 1.0
C      1  0.4592090000000  0.4858980000000  0.4353920000000 1.0
C      1  0.4608240000000  0.4495150000000  0.5214300000000 1.0
C      1  0.4838260000000  0.5227630000000  0.5344610000000 1.0
C      1  0.4642200000000  0.5164430000000  0.4362420000000 1.0
C      1  0.5139570000000  0.4457430000000  0.4817450000000 1.0
C      1  0.5361050000000  0.5502350000000  0.4622990000000 1.0
C      1  0.5307270000000  0.5196120000000  0.5514250000000 1.0
C      1  0.4789200000000  0.5287940000000  0.4132970000000 1.0
C      1  0.4745790000000  0.4237610000000  0.5143850000000 1.0
C      1  0.4803670000000  0.5594410000000  0.5738270000000 1.0
C      1  0.5230910000000  0.5337460000000  0.5865380000000 1.0
C      1  0.5190860000000  0.4078440000000  0.4861380000000 1.0
C      1  0.5213300000000  0.5561530000000  0.4363410000000 1.0
C      1  0.5261690000000  0.4780750000000  0.5777940000000 1.0
C      1  0.5190530000000  0.5920050000000  0.4908000000000 1.0
C      1  0.5223090000000  0.4420600000000  0.4332070000000 1.0
C      1  0.4758260000000  0.4711520000000  0.4149700000000 1.0
C      1  0.4765220000000  0.5716020000000  0.5194890000000 1.0
C      1  0.4808370000000  0.4460060000000  0.5774580000000 1.0
C      1  0.4989300000000  0.4932500000000  0.4549620000000 1.0
C      1  0.5078690000000  0.4511690000000  0.5359850000000 1.0
C      1  0.5083960000000  0.5386040000000  0.5382950000000 1.0
C      1  0.4898900000000  0.4951770000000  0.5499670000000 1.0
C      1  0.4879460000000  0.4463460000000  0.4661350000000 1.0
C      1  0.4904780000000  0.5524990000000  0.4682470000000 1.0
C      1  0.4458250000000  0.4995550000000  0.4903850000000 1.0
C      1  0.5514490000000  0.4992250000000  0.5079170000000 1.0
END
