TITL C-3578198-8939-59 -1.47707855513721e-06 125000 -420.48416640545 0 0 70 (Ci) n - 1
REM
REM in /home/bkarasulu/work/CARBON/AIRSS/Generating-Clusters/EDIP-Nigel-Params/with-SteepDescent/Higher-Symm/SD-CG/HFTN-CG
REM
REM
REM
REM
REM
REM ./C.cell (12c818d87b63d06a65506943cc24bca4)
REM
REM compiler GCC version 9.2.1 20190827 (Red Hat 9.2.1-1)
REM options -cpp -mtune=generic -march=x86-64 -g -O0 -fpre-include=/usr/include/finclude/math-vector-fortran.h
REM seed -1137820028 -2026664709 -634111677 -1962064616 471359031 1563468953 -1296057804 -788633613 2103978598 -262196034 -778653652 1720098434 -298418823 -140936209 -787075403 -598133853 1971198962 -1344922243 -962459350 777505868 1582194133 297516491 -173139005 -1634884584 240913835 1632380629 2020912842 -1507795956 -353093626 291641501 -204055974 1091090307 448442309
REM
CELL 1.54180   50.00000   50.00000   50.00000   90.00000   90.00000   90.00000
LATT -1
SFAC C  
C      1  0.4486020000000  0.4767040000000  0.4819200000000 1.0
C      1  0.5513980000000  0.5232960000000  0.5180800000000 1.0
C      1  0.5598640000000  0.4501470000000  0.5386110000000 1.0
C      1  0.4401360000000  0.5498530000000  0.4613890000000 1.0
C      1  0.4367470000000  0.5251640000000  0.4753450000000 1.0
C      1  0.5632530000000  0.4748360000000  0.5246550000000 1.0
C      1  0.5515350000000  0.5609560000000  0.4949580000000 1.0
C      1  0.4484650000000  0.4390440000000  0.5050420000000 1.0
C      1  0.5026050000000  0.4537370000000  0.5731610000000 1.0
C      1  0.4973950000000  0.5462630000000  0.4268390000000 1.0
C      1  0.5473940000000  0.4936010000000  0.4319790000000 1.0
C      1  0.4526060000000  0.5063990000000  0.5680210000000 1.0
C      1  0.5461190000000  0.4472600000000  0.4639990000000 1.0
C      1  0.4538810000000  0.5527400000000  0.5360010000000 1.0
C      1  0.5298250000000  0.4920100000000  0.5013430000000 1.0
C      1  0.4701750000000  0.5079900000000  0.4986570000000 1.0
C      1  0.5195650000000  0.4752990000000  0.5469620000000 1.0
C      1  0.4804350000000  0.5247010000000  0.4530380000000 1.0
C      1  0.5178940000000  0.5696720000000  0.4619540000000 1.0
C      1  0.4821060000000  0.4303280000000  0.5380460000000 1.0
C      1  0.4732150000000  0.5594070000000  0.4968200000000 1.0
C      1  0.5267850000000  0.4405930000000  0.5031800000000 1.0
C      1  0.4792580000000  0.5001950000000  0.5732400000000 1.0
C      1  0.5207420000000  0.4998050000000  0.4267600000000 1.0
C      1  0.4803080000000  0.4715620000000  0.5671980000000 1.0
C      1  0.5196920000000  0.5284380000000  0.4328020000000 1.0
C      1  0.4643210000000  0.4738810000000  0.5411030000000 1.0
C      1  0.5356790000000  0.5261190000000  0.4588970000000 1.0
C      1  0.5425850000000  0.5486550000000  0.5309650000000 1.0
C      1  0.4574150000000  0.4513450000000  0.4690350000000 1.0
C      1  0.5635450000000  0.4932900000000  0.4545240000000 1.0
C      1  0.4364550000000  0.5067100000000  0.5454760000000 1.0
C      1  0.5009280000000  0.4855520000000  0.4444490000000 1.0
C      1  0.4990720000000  0.5144480000000  0.5555510000000 1.0
C      1  0.5385220000000  0.4950910000000  0.5596350000000 1.0
C      1  0.4614780000000  0.5049090000000  0.4403650000000 1.0
C      1  0.4686690000000  0.5547280000000  0.4668240000000 1.0
C      1  0.5313310000000  0.4452720000000  0.5331760000000 1.0
C      1  0.4267570000000  0.4806950000000  0.5335430000000 1.0
C      1  0.5732430000000  0.5193050000000  0.4664570000000 1.0
C      1  0.4431790000000  0.5274370000000  0.5274300000000 1.0
C      1  0.5568210000000  0.4725630000000  0.4725700000000 1.0
C      1  0.4753410000000  0.4821300000000  0.4309270000000 1.0
C      1  0.5246590000000  0.5178700000000  0.5690730000000 1.0
C      1  0.5080850000000  0.4919960000000  0.5250270000000 1.0
C      1  0.4919150000000  0.5080040000000  0.4749730000000 1.0
C      1  0.4851520000000  0.5358460000000  0.5095230000000 1.0
C      1  0.5148480000000  0.4641540000000  0.4904770000000 1.0
C      1  0.4925960000000  0.5661370000000  0.4479510000000 1.0
C      1  0.5074040000000  0.4338630000000  0.5520490000000 1.0
C      1  0.4474990000000  0.4475460000000  0.5364400000000 1.0
C      1  0.5525010000000  0.5524540000000  0.4635600000000 1.0
C      1  0.5446030000000  0.4287310000000  0.4849190000000 1.0
C      1  0.4553970000000  0.5712690000000  0.5150810000000 1.0
C      1  0.5159860000000  0.5547430000000  0.5399950000000 1.0
C      1  0.4840140000000  0.4452570000000  0.4600050000000 1.0
C      1  0.5700340000000  0.5279490000000  0.4953840000000 1.0
C      1  0.4299660000000  0.4720510000000  0.5046160000000 1.0
C      1  0.5138400000000  0.5391930000000  0.5021150000000 1.0
C      1  0.4861600000000  0.4608070000000  0.4978850000000 1.0
C      1  0.4902980000000  0.5402620000000  0.5405460000000 1.0
C      1  0.5097020000000  0.4597380000000  0.4594540000000 1.0
C      1  0.4444320000000  0.5001790000000  0.4637340000000 1.0
C      1  0.5555680000000  0.4998210000000  0.5362660000000 1.0
C      1  0.5210660000000  0.5661670000000  0.4904220000000 1.0
C      1  0.4789340000000  0.4338330000000  0.5095780000000 1.0
C      1  0.5682100000000  0.4756620000000  0.4975410000000 1.0
C      1  0.4317900000000  0.5243380000000  0.5024590000000 1.0
C      1  0.5194310000000  0.5162440000000  0.4837350000000 1.0
C      1  0.4805690000000  0.4837560000000  0.5162650000000 1.0
END
