TITL C-3577078-809-344 -3.45348038697377e-06 125000 -859.611702836501 0 0 136 (C1) n - 1
REM
REM in /home/bkarasulu/work/CARBON/AIRSS/Generating-Clusters/EDIP-Nigel-Params/with-SteepDescent/Higher-Symm/SD-CG/HFTN-CG
REM
REM
REM
REM
REM
REM ./C.cell (12c818d87b63d06a65506943cc24bca4)
REM
REM compiler GCC version 9.2.1 20190827 (Red Hat 9.2.1-1)
REM options -cpp -mtune=generic -march=x86-64 -g -O0 -fpre-include=/usr/include/finclude/math-vector-fortran.h
REM seed 603374132 1898477664 1998952421 800165244 -870636900 -1396191481 -1670618006 -862065865 -796365180 597614306 1327276776 1297138959 -1335011199 -53852296 1935223928 -33333877 -247768367 1968382931 124997518 1074746774 1732657507 -1090645725 2097533716 -1187412774 1909113002 69511260 -948716418 -916654218 1013489194 148849722 -1264071660 1538444351 1500949056
REM
CELL 1.54180   50.00000   50.00000   50.00000   90.00000   90.00000   90.00000
LATT -1
SFAC C  
C      1  0.5430310000000  0.4554220000000  0.5737510000000 1.0
C      1  0.4988210000000  0.4506990000000  0.5771330000000 1.0
C      1  0.4543690000000  0.4504900000000  0.5540560000000 1.0
C      1  0.4190720000000  0.4512960000000  0.5216750000000 1.0
C      1  0.4133120000000  0.4513960000000  0.4754670000000 1.0
C      1  0.4407680000000  0.4566000000000  0.4395400000000 1.0
C      1  0.4808780000000  0.4526830000000  0.4139970000000 1.0
C      1  0.5284870000000  0.4533800000000  0.4233740000000 1.0
C      1  0.5629470000000  0.4568740000000  0.4596560000000 1.0
C      1  0.5891570000000  0.4575100000000  0.4996690000000 1.0
C      1  0.5838680000000  0.4605020000000  0.5487970000000 1.0
C      1  0.5922490000000  0.4734950000000  0.5248760000000 1.0
C      1  0.5663300000000  0.4717660000000  0.5685250000000 1.0
C      1  0.5212040000000  0.4638500000000  0.5917700000000 1.0
C      1  0.4739300000000  0.4643430000000  0.5711660000000 1.0
C      1  0.4299740000000  0.4638030000000  0.5455930000000 1.0
C      1  0.4068050000000  0.4654170000000  0.4997150000000 1.0
C      1  0.4174020000000  0.4680720000000  0.4520510000000 1.0
C      1  0.4556270000000  0.4688930000000  0.4172830000000 1.0
C      1  0.5065280000000  0.4671130000000  0.4079240000000 1.0
C      1  0.5528120000000  0.4669720000000  0.4337390000000 1.0
C      1  0.5852060000000  0.4701970000000  0.4727730000000 1.0
C      1  0.5674450000000  0.5529170000000  0.4751620000000 1.0
C      1  0.5714800000000  0.5568920000000  0.5194210000000 1.0
C      1  0.5547970000000  0.5591650000000  0.5621800000000 1.0
C      1  0.5134890000000  0.5544040000000  0.5834610000000 1.0
C      1  0.4678560000000  0.5507340000000  0.5763600000000 1.0
C      1  0.4330480000000  0.5490890000000  0.5459900000000 1.0
C      1  0.4125990000000  0.5546630000000  0.5035370000000 1.0
C      1  0.4252000000000  0.5550300000000  0.4587140000000 1.0
C      1  0.4578740000000  0.5570580000000  0.4260690000000 1.0
C      1  0.5041810000000  0.5536240000000  0.4200240000000 1.0
C      1  0.5455420000000  0.5539330000000  0.4364620000000 1.0
C      1  0.4244570000000  0.4919840000000  0.5507630000000 1.0
C      1  0.4052190000000  0.4946230000000  0.5018100000000 1.0
C      1  0.4162750000000  0.4979170000000  0.4519550000000 1.0
C      1  0.4542290000000  0.4985280000000  0.4153980000000 1.0
C      1  0.5064190000000  0.4967010000000  0.4084530000000 1.0
C      1  0.5559440000000  0.4957160000000  0.4279450000000 1.0
C      1  0.5871780000000  0.4991160000000  0.4707880000000 1.0
C      1  0.5914310000000  0.5024990000000  0.5243520000000 1.0
C      1  0.5640110000000  0.5008390000000  0.5700480000000 1.0
C      1  0.5187410000000  0.4946010000000  0.5977410000000 1.0
C      1  0.4682950000000  0.4914370000000  0.5804540000000 1.0
C      1  0.5019310000000  0.6042880000000  0.4509110000000 1.0
C      1  0.5255260000000  0.5931650000000  0.4595260000000 1.0
C      1  0.5436930000000  0.6079180000000  0.4739980000000 1.0
C      1  0.5552370000000  0.6164130000000  0.4963810000000 1.0
C      1  0.5536900000000  0.6148240000000  0.5229680000000 1.0
C      1  0.5360980000000  0.6045610000000  0.5416790000000 1.0
C      1  0.5109460000000  0.6159520000000  0.5402800000000 1.0
C      1  0.4890660000000  0.6199230000000  0.5256230000000 1.0
C      1  0.4733970000000  0.6171030000000  0.5043530000000 1.0
C      1  0.4668940000000  0.6083470000000  0.4800060000000 1.0
C      1  0.4760440000000  0.5968540000000  0.4565880000000 1.0
C      1  0.4067970000000  0.5407530000000  0.4774550000000 1.0
C      1  0.4335690000000  0.5413520000000  0.4334560000000 1.0
C      1  0.4791260000000  0.5413690000000  0.4099870000000 1.0
C      1  0.5302440000000  0.5384710000000  0.4166200000000 1.0
C      1  0.5689870000000  0.5397830000000  0.4486860000000 1.0
C      1  0.5839220000000  0.5420200000000  0.4966100000000 1.0
C      1  0.5755530000000  0.5451490000000  0.5464340000000 1.0
C      1  0.5395120000000  0.5416350000000  0.5817650000000 1.0
C      1  0.4899210000000  0.5376770000000  0.5912830000000 1.0
C      1  0.4444280000000  0.5347940000000  0.5689240000000 1.0
C      1  0.4140010000000  0.5368320000000  0.5274610000000 1.0
C      1  0.4372300000000  0.4309970000000  0.5126060000000 1.0
C      1  0.4410700000000  0.4255370000000  0.4817020000000 1.0
C      1  0.4585200000000  0.4428970000000  0.4589490000000 1.0
C      1  0.4846750000000  0.4356930000000  0.4400480000000 1.0
C      1  0.5149250000000  0.4432160000000  0.4472280000000 1.0
C      1  0.5576090000000  0.4315460000000  0.4740520000000 1.0
C      1  0.5693820000000  0.4347990000000  0.5015050000000 1.0
C      1  0.5518220000000  0.4215680000000  0.5335080000000 1.0
C      1  0.5383010000000  0.4304550000000  0.5592440000000 1.0
C      1  0.5095300000000  0.4293810000000  0.5595650000000 1.0
C      1  0.4576670000000  0.4302700000000  0.5329940000000 1.0
C      1  0.5199370000000  0.4048660000000  0.4494600000000 1.0
C      1  0.5344820000000  0.4136030000000  0.4728790000000 1.0
C      1  0.5350320000000  0.3964890000000  0.4945540000000 1.0
C      1  0.5384820000000  0.3976980000000  0.5219780000000 1.0
C      1  0.5173830000000  0.3876900000000  0.5370620000000 1.0
C      1  0.4984640000000  0.4062190000000  0.5456810000000 1.0
C      1  0.4743010000000  0.4077920000000  0.5304400000000 1.0
C      1  0.4685660000000  0.3928450000000  0.5075770000000 1.0
C      1  0.4576520000000  0.3995030000000  0.4826090000000 1.0
C      1  0.4738050000000  0.3941360000000  0.4607010000000 1.0
C      1  0.4912570000000  0.4062040000000  0.4426150000000 1.0
C      1  0.5072180000000  0.5657440000000  0.5562410000000 1.0
C      1  0.4761120000000  0.5667790000000  0.5525210000000 1.0
C      1  0.4535060000000  0.5636690000000  0.5311590000000 1.0
C      1  0.4397220000000  0.5701430000000  0.5038380000000 1.0
C      1  0.4500200000000  0.5575700000000  0.4764510000000 1.0
C      1  0.4707220000000  0.5675210000000  0.4534130000000 1.0
C      1  0.4974740000000  0.5510480000000  0.4500330000000 1.0
C      1  0.5261330000000  0.5634830000000  0.4588400000000 1.0
C      1  0.5385610000000  0.5501280000000  0.4843740000000 1.0
C      1  0.5425630000000  0.5631770000000  0.5138600000000 1.0
C      1  0.5351470000000  0.5745540000000  0.5427170000000 1.0
C      1  0.4403300000000  0.5124350000000  0.4391930000000 1.0
C      1  0.4803460000000  0.5114840000000  0.4120490000000 1.0
C      1  0.5288150000000  0.5091640000000  0.4248400000000 1.0
C      1  0.5696470000000  0.5104280000000  0.4497740000000 1.0
C      1  0.5810670000000  0.5122320000000  0.4976790000000 1.0
C      1  0.5716670000000  0.5153210000000  0.5445570000000 1.0
C      1  0.5403090000000  0.5119100000000  0.5832260000000 1.0
C      1  0.4893170000000  0.5066520000000  0.5963790000000 1.0
C      1  0.4441570000000  0.5049480000000  0.5698710000000 1.0
C      1  0.4101480000000  0.5070610000000  0.5280460000000 1.0
C      1  0.4066530000000  0.5106030000000  0.4769410000000 1.0
C      1  0.5078120000000  0.4910410000000  0.5609860000000 1.0
C      1  0.4771890000000  0.4913410000000  0.5369280000000 1.0
C      1  0.4510340000000  0.4929870000000  0.5204010000000 1.0
C      1  0.4555670000000  0.4791060000000  0.4964450000000 1.0
C      1  0.4621110000000  0.4811430000000  0.4695280000000 1.0
C      1  0.4884180000000  0.4740060000000  0.4655460000000 1.0
C      1  0.5156430000000  0.4706340000000  0.4623880000000 1.0
C      1  0.5245770000000  0.4634050000000  0.4889720000000 1.0
C      1  0.5506190000000  0.4716220000000  0.4996240000000 1.0
C      1  0.5504660000000  0.4601990000000  0.5291700000000 1.0
C      1  0.5330980000000  0.4848620000000  0.5423050000000 1.0
C      1  0.4630350000000  0.5113640000000  0.4621170000000 1.0
C      1  0.4919870000000  0.5207450000000  0.4538960000000 1.0
C      1  0.5184340000000  0.5052130000000  0.4553450000000 1.0
C      1  0.5305960000000  0.5180430000000  0.4837760000000 1.0
C      1  0.5513710000000  0.5034430000000  0.5015690000000 1.0
C      1  0.5439850000000  0.5110160000000  0.5309800000000 1.0
C      1  0.5199520000000  0.5334230000000  0.5365210000000 1.0
C      1  0.4998640000000  0.5222020000000  0.5568630000000 1.0
C      1  0.4706810000000  0.5245430000000  0.5411250000000 1.0
C      1  0.4480200000000  0.5234510000000  0.5140250000000 1.0
C      1  0.4571680000000  0.5299680000000  0.4853980000000 1.0
C      1  0.5031630000000  0.4626990000000  0.5063530000000 1.0
C      1  0.5030050000000  0.5371720000000  0.5136830000000 1.0
C      1  0.5060070000000  0.5133230000000  0.5002420000000 1.0
C      1  0.5027230000000  0.4887580000000  0.5180170000000 1.0
END
