TITL C-3578206-1180-759 -3.03937700026522e-06 125000 -952.070119129333 0 0 152 (C1) n - 1
REM
REM in /home/bkarasulu/work/CARBON/AIRSS/Generating-Clusters/EDIP-Nigel-Params/with-SteepDescent/Higher-Symm/SD-CG/HFTN-CG
REM
REM
REM
REM
REM
REM ./C.cell (12c818d87b63d06a65506943cc24bca4)
REM
REM compiler GCC version 9.2.1 20190827 (Red Hat 9.2.1-1)
REM options -cpp -mtune=generic -march=x86-64 -g -O0 -fpre-include=/usr/include/finclude/math-vector-fortran.h
REM seed -621342150 1557760323 -475825087 1543598006 -834657552 1896314368 1207780307 18748955 -795813428 2081225704 1523069035 -1226131289 1615375784 -1438832648 -1681343132 289987249 -267851148 -6114622 768114536 705874994 803503346 -1756208665 -1217114340 -1472015863 -1566399361 -1290043933 -1480477128 1996243697 -1356310066 1300521137 987327537 1481458363 -384347897
REM
CELL 1.54180   50.00000   50.00000   50.00000   90.00000   90.00000   90.00000
LATT -1
SFAC C  
C      1  0.5474380000000  0.4145830000000  0.5323930000000 1.0
C      1  0.4957410000000  0.5858120000000  0.5568960000000 1.0
C      1  0.4486610000000  0.4155480000000  0.5276800000000 1.0
C      1  0.4514630000000  0.5888040000000  0.4703040000000 1.0
C      1  0.5047130000000  0.4209870000000  0.4440330000000 1.0
C      1  0.5528390000000  0.5849470000000  0.4710990000000 1.0
C      1  0.4267670000000  0.5021600000000  0.4846490000000 1.0
C      1  0.4706870000000  0.4908520000000  0.4237610000000 1.0
C      1  0.5483060000000  0.5072880000000  0.4384330000000 1.0
C      1  0.5715920000000  0.4992530000000  0.5150060000000 1.0
C      1  0.5281910000000  0.5062780000000  0.5748590000000 1.0
C      1  0.4511760000000  0.4931110000000  0.5606160000000 1.0
C      1  0.4487140000000  0.4836110000000  0.5187450000000 1.0
C      1  0.4797950000000  0.5136160000000  0.4690890000000 1.0
C      1  0.5116530000000  0.4759060000000  0.4435230000000 1.0
C      1  0.5518380000000  0.5140240000000  0.4798140000000 1.0
C      1  0.5174490000000  0.4852910000000  0.5282890000000 1.0
C      1  0.4884120000000  0.5207410000000  0.5536200000000 1.0
C      1  0.4402450000000  0.5814910000000  0.5206600000000 1.0
C      1  0.4594830000000  0.4272600000000  0.4616260000000 1.0
C      1  0.5138000000000  0.5807440000000  0.4373530000000 1.0
C      1  0.5535320000000  0.4218820000000  0.4817620000000 1.0
C      1  0.5456480000000  0.5797320000000  0.5402340000000 1.0
C      1  0.4883900000000  0.4220500000000  0.5594920000000 1.0
C      1  0.5078210000000  0.5636380000000  0.4132900000000 1.0
C      1  0.5672960000000  0.4423490000000  0.4652750000000 1.0
C      1  0.5689790000000  0.5620600000000  0.5475580000000 1.0
C      1  0.4952340000000  0.4399640000000  0.5818250000000 1.0
C      1  0.4304170000000  0.5577380000000  0.5339560000000 1.0
C      1  0.4345900000000  0.4417040000000  0.4537400000000 1.0
C      1  0.4976480000000  0.5029960000000  0.4363700000000 1.0
C      1  0.5417060000000  0.4836740000000  0.4576530000000 1.0
C      1  0.5507110000000  0.5195780000000  0.5094930000000 1.0
C      1  0.5026950000000  0.4926520000000  0.5595620000000 1.0
C      1  0.4582100000000  0.5157850000000  0.5410250000000 1.0
C      1  0.4455670000000  0.4802450000000  0.4895780000000 1.0
C      1  0.5228150000000  0.5133760000000  0.5165700000000 1.0
C      1  0.4916540000000  0.4809730000000  0.5160360000000 1.0
C      1  0.4790030000000  0.5078660000000  0.5177290000000 1.0
C      1  0.4685840000000  0.4849150000000  0.4715650000000 1.0
C      1  0.5068390000000  0.5138200000000  0.4836420000000 1.0
C      1  0.5177890000000  0.4859000000000  0.4808910000000 1.0
C      1  0.4247520000000  0.4585450000000  0.5622770000000 1.0
C      1  0.4121510000000  0.5426840000000  0.4641910000000 1.0
C      1  0.4818120000000  0.4625190000000  0.3996510000000 1.0
C      1  0.5761880000000  0.5408370000000  0.4353570000000 1.0
C      1  0.5904530000000  0.4581150000000  0.5344210000000 1.0
C      1  0.5157800000000  0.5424810000000  0.5966800000000 1.0
C      1  0.5362410000000  0.5276030000000  0.5562120000000 1.0
C      1  0.4760790000000  0.4742130000000  0.5586980000000 1.0
C      1  0.4426010000000  0.5224640000000  0.5020560000000 1.0
C      1  0.4549810000000  0.4799000000000  0.4462100000000 1.0
C      1  0.5224490000000  0.5244280000000  0.4391230000000 1.0
C      1  0.5568420000000  0.4776760000000  0.4977160000000 1.0
C      1  0.5811990000000  0.4774680000000  0.5521650000000 1.0
C      1  0.4949080000000  0.5235700000000  0.5974810000000 1.0
C      1  0.4138000000000  0.4769130000000  0.5441540000000 1.0
C      1  0.4222250000000  0.5236360000000  0.4464730000000 1.0
C      1  0.5055200000000  0.4793110000000  0.3998990000000 1.0
C      1  0.5860820000000  0.5231640000000  0.4544570000000 1.0
C      1  0.5850200000000  0.4440210000000  0.5108860000000 1.0
C      1  0.5341180000000  0.5607840000000  0.5850490000000 1.0
C      1  0.4463950000000  0.4432430000000  0.5712390000000 1.0
C      1  0.4137890000000  0.5568260000000  0.4883300000000 1.0
C      1  0.4666630000000  0.4471780000000  0.4190730000000 1.0
C      1  0.5551380000000  0.5567380000000  0.4265530000000 1.0
C      1  0.5238580000000  0.4256880000000  0.4245900000000 1.0
C      1  0.5764610000000  0.5755060000000  0.4823880000000 1.0
C      1  0.5516950000000  0.4246800000000  0.5580610000000 1.0
C      1  0.4760580000000  0.5751210000000  0.5735780000000 1.0
C      1  0.4260860000000  0.4260370000000  0.5151260000000 1.0
C      1  0.4487010000000  0.5772710000000  0.4445530000000 1.0
C      1  0.4811130000000  0.5507720000000  0.4121930000000 1.0
C      1  0.5643400000000  0.4520610000000  0.4373490000000 1.0
C      1  0.5859170000000  0.5487400000000  0.5262950000000 1.0
C      1  0.5210130000000  0.4528920000000  0.5874550000000 1.0
C      1  0.4357180000000  0.5478480000000  0.5610000000000 1.0
C      1  0.4148420000000  0.4532220000000  0.4724630000000 1.0
C      1  0.4848740000000  0.5983280000000  0.5320100000000 1.0
C      1  0.4671280000000  0.4025630000000  0.5104710000000 1.0
C      1  0.4805640000000  0.5943080000000  0.4761850000000 1.0
C      1  0.5105290000000  0.4019670000000  0.4652810000000 1.0
C      1  0.5325580000000  0.5900710000000  0.4918900000000 1.0
C      1  0.5224980000000  0.4004560000000  0.5277080000000 1.0
C      1  0.5241550000000  0.5766740000000  0.5611520000000 1.0
C      1  0.4605210000000  0.4262430000000  0.5518660000000 1.0
C      1  0.4336930000000  0.5790610000000  0.4921750000000 1.0
C      1  0.4776830000000  0.4297220000000  0.4398290000000 1.0
C      1  0.5413480000000  0.5733370000000  0.4465790000000 1.0
C      1  0.5630880000000  0.4237380000000  0.5093970000000 1.0
C      1  0.5635360000000  0.4701680000000  0.5733720000000 1.0
C      1  0.4679150000000  0.5298230000000  0.5913610000000 1.0
C      1  0.4064200000000  0.4707400000000  0.5169540000000 1.0
C      1  0.4406010000000  0.5319990000000  0.4259200000000 1.0
C      1  0.5327660000000  0.4711470000000  0.4053860000000 1.0
C      1  0.5928170000000  0.5298710000000  0.4817640000000 1.0
C      1  0.5213370000000  0.4384420000000  0.5064360000000 1.0
C      1  0.5058200000000  0.5609340000000  0.5228200000000 1.0
C      1  0.4871470000000  0.4345220000000  0.5171580000000 1.0
C      1  0.4883330000000  0.5511720000000  0.4985850000000 1.0
C      1  0.4963470000000  0.4396030000000  0.4831730000000 1.0
C      1  0.5106540000000  0.5602360000000  0.4793440000000 1.0
C      1  0.5318880000000  0.5195510000000  0.3951690000000 1.0
C      1  0.5979020000000  0.4822100000000  0.4768780000000 1.0
C      1  0.5733830000000  0.5180760000000  0.5781720000000 1.0
C      1  0.4700960000000  0.4822140000000  0.6025630000000 1.0
C      1  0.4008560000000  0.5181740000000  0.5222620000000 1.0
C      1  0.4275660000000  0.4831070000000  0.4192470000000 1.0
C      1  0.4141140000000  0.4957930000000  0.4430650000000 1.0
C      1  0.5042650000000  0.5080920000000  0.3931010000000 1.0
C      1  0.5889480000000  0.4943260000000  0.4513500000000 1.0
C      1  0.5881880000000  0.5057290000000  0.5553530000000 1.0
C      1  0.4967620000000  0.4949320000000  0.6038050000000 1.0
C      1  0.4103750000000  0.5057040000000  0.5476260000000 1.0
C      1  0.4709100000000  0.4572810000000  0.5840690000000 1.0
C      1  0.4198150000000  0.5398110000000  0.5127880000000 1.0
C      1  0.4371000000000  0.4523750000000  0.4250110000000 1.0
C      1  0.5302100000000  0.5432010000000  0.4148750000000 1.0
C      1  0.5791490000000  0.4604540000000  0.4862160000000 1.0
C      1  0.5571560000000  0.5446960000000  0.5698210000000 1.0
C      1  0.4941140000000  0.4677150000000  0.4709840000000 1.0
C      1  0.5254130000000  0.5329050000000  0.4688650000000 1.0
C      1  0.5351900000000  0.4647910000000  0.5149980000000 1.0
C      1  0.5123440000000  0.5334870000000  0.5376560000000 1.0
C      1  0.4731360000000  0.4625100000000  0.5292820000000 1.0
C      1  0.4659420000000  0.5343260000000  0.4859030000000 1.0
C      1  0.4571740000000  0.6004610000000  0.5317470000000 1.0
C      1  0.4697380000000  0.4114590000000  0.4837040000000 1.0
C      1  0.4947580000000  0.5743960000000  0.4586060000000 1.0
C      1  0.5378470000000  0.3994480000000  0.4735390000000 1.0
C      1  0.5328930000000  0.5721320000000  0.5151700000000 1.0
C      1  0.5048660000000  0.4022740000000  0.5490850000000 1.0
C      1  0.4620670000000  0.5509520000000  0.5728060000000 1.0
C      1  0.4169350000000  0.4486430000000  0.5016600000000 1.0
C      1  0.4564050000000  0.5560690000000  0.4276430000000 1.0
C      1  0.5393290000000  0.4487120000000  0.4228400000000 1.0
C      1  0.5858540000000  0.5536810000000  0.4968250000000 1.0
C      1  0.5454720000000  0.4476590000000  0.5725950000000 1.0
C      1  0.5984030000000  0.5221410000000  0.5325810000000 1.0
C      1  0.5220650000000  0.4786700000000  0.6023050000000 1.0
C      1  0.4243780000000  0.5215210000000  0.5685720000000 1.0
C      1  0.4015920000000  0.4795800000000  0.4655230000000 1.0
C      1  0.4793180000000  0.5251930000000  0.3976000000000 1.0
C      1  0.5757810000000  0.4783960000000  0.4301880000000 1.0
C      1  0.5494390000000  0.4962980000000  0.4082390000000 1.0
C      1  0.5979040000000  0.5052580000000  0.4977580000000 1.0
C      1  0.5543710000000  0.4945340000000  0.5878920000000 1.0
C      1  0.4517480000000  0.5043450000000  0.5901320000000 1.0
C      1  0.4005770000000  0.4954800000000  0.5010190000000 1.0
C      1  0.4530880000000  0.5108790000000  0.4082730000000 1.0
C      1  0.4960490000000  0.5940160000000  0.5040590000000 1.0
C      1  0.5095800000000  0.4018610000000  0.5000180000000 1.0
END
