TITL C-3578207-9274-734 -1.05827031928872e-06 125000 -446.297279779818 0 0 73 (C1) n - 1
REM
REM in /home/bkarasulu/work/CARBON/AIRSS/Generating-Clusters/EDIP-Nigel-Params/with-SteepDescent/Higher-Symm/SD-CG/HFTN-CG
REM
REM
REM
REM
REM
REM ./C.cell (12c818d87b63d06a65506943cc24bca4)
REM
REM compiler GCC version 9.2.1 20190827 (Red Hat 9.2.1-1)
REM options -cpp -mtune=generic -march=x86-64 -g -O0 -fpre-include=/usr/include/finclude/math-vector-fortran.h
REM seed -1812130489 1633012545 2128109266 163207177 362256083 886883911 -33290370 -1670961336 -1010738408 -2056272127 -1386790869 -714283075 -835568223 342969619 1607903839 253904699 499767835 -1948885161 -1891705230 828860086 23541812 -191753687 -1160149443 1456942944 117325578 -262841923 -516370035 921819180 1526373800 458514502 -702419925 -35856989 316919424
REM
CELL 1.54180   50.00000   50.00000   50.00000   90.00000   90.00000   90.00000
LATT -1
SFAC C  
C      1  0.5741960000000  0.4299220000000  0.5778720000000 1.0
C      1  0.4604200000000  0.5578290000000  0.5271340000000 1.0
C      1  0.5519020000000  0.5370200000000  0.4521190000000 1.0
C      1  0.4872140000000  0.5377970000000  0.5644330000000 1.0
C      1  0.5851560000000  0.5632760000000  0.4385650000000 1.0
C      1  0.4726690000000  0.4504030000000  0.4453680000000 1.0
C      1  0.5803200000000  0.4489630000000  0.5320370000000 1.0
C      1  0.4603310000000  0.4339510000000  0.4868960000000 1.0
C      1  0.5434310000000  0.5815320000000  0.4306020000000 1.0
C      1  0.4257060000000  0.4544250000000  0.4600770000000 1.0
C      1  0.5390520000000  0.4444820000000  0.5548440000000 1.0
C      1  0.4404900000000  0.5369690000000  0.5609170000000 1.0
C      1  0.4631530000000  0.5205960000000  0.5635850000000 1.0
C      1  0.5526140000000  0.4521120000000  0.5318400000000 1.0
C      1  0.5704050000000  0.5836840000000  0.4287490000000 1.0
C      1  0.5473020000000  0.4334340000000  0.5781450000000 1.0
C      1  0.5795990000000  0.5397080000000  0.4505960000000 1.0
C      1  0.4441620000000  0.4479210000000  0.4401320000000 1.0
C      1  0.4368840000000  0.5566110000000  0.5427560000000 1.0
C      1  0.4345340000000  0.4317380000000  0.4737250000000 1.0
C      1  0.5366900000000  0.5581180000000  0.4424160000000 1.0
C      1  0.4819030000000  0.4295270000000  0.4669620000000 1.0
C      1  0.4857170000000  0.5585650000000  0.5428330000000 1.0
C      1  0.5873710000000  0.4377640000000  0.5556160000000 1.0
C      1  0.4498730000000  0.5350790000000  0.4339190000000 1.0
C      1  0.5316550000000  0.4382400000000  0.4609480000000 1.0
C      1  0.4243010000000  0.4602610000000  0.5156070000000 1.0
C      1  0.5507260000000  0.4765240000000  0.4393060000000 1.0
C      1  0.4294700000000  0.4694260000000  0.5606400000000 1.0
C      1  0.5617900000000  0.5194640000000  0.5563680000000 1.0
C      1  0.4701910000000  0.5689570000000  0.4584630000000 1.0
C      1  0.5395880000000  0.5590510000000  0.5418860000000 1.0
C      1  0.4679390000000  0.4504240000000  0.5374170000000 1.0
C      1  0.5622250000000  0.5317590000000  0.5102750000000 1.0
C      1  0.4251780000000  0.5551370000000  0.4681990000000 1.0
C      1  0.5558840000000  0.4666450000000  0.4851560000000 1.0
C      1  0.5258430000000  0.4631140000000  0.4451560000000 1.0
C      1  0.4302890000000  0.5311350000000  0.4542510000000 1.0
C      1  0.4429300000000  0.4416950000000  0.5267610000000 1.0
C      1  0.4743540000000  0.5446440000000  0.4447990000000 1.0
C      1  0.4577100000000  0.4712040000000  0.5565220000000 1.0
C      1  0.5406350000000  0.5371320000000  0.5622190000000 1.0
C      1  0.5559020000000  0.4889430000000  0.4646120000000 1.0
C      1  0.5623880000000  0.5091870000000  0.5301200000000 1.0
C      1  0.4191730000000  0.4802730000000  0.5363680000000 1.0
C      1  0.5611180000000  0.5564120000000  0.5237930000000 1.0
C      1  0.5572600000000  0.4408500000000  0.4734390000000 1.0
C      1  0.4506260000000  0.5627230000000  0.4780130000000 1.0
C      1  0.5387250000000  0.4672690000000  0.5102730000000 1.0
C      1  0.4639290000000  0.4976220000000  0.5433110000000 1.0
C      1  0.4871000000000  0.5334200000000  0.4907810000000 1.0
C      1  0.4415570000000  0.5204870000000  0.5002920000000 1.0
C      1  0.5359400000000  0.5227920000000  0.4968660000000 1.0
C      1  0.4393260000000  0.4770800000000  0.4955530000000 1.0
C      1  0.5132670000000  0.5005300000000  0.5381910000000 1.0
C      1  0.4652920000000  0.5009690000000  0.4606810000000 1.0
C      1  0.5119360000000  0.5089750000000  0.4558290000000 1.0
C      1  0.5089410000000  0.4353730000000  0.4807490000000 1.0
C      1  0.4850840000000  0.4649740000000  0.5161120000000 1.0
C      1  0.5124100000000  0.5549950000000  0.5278540000000 1.0
C      1  0.4604360000000  0.5442390000000  0.4997750000000 1.0
C      1  0.4882830000000  0.4927850000000  0.5269540000000 1.0
C      1  0.5392660000000  0.5147930000000  0.4672880000000 1.0
C      1  0.5113880000000  0.4536000000000  0.5053530000000 1.0
C      1  0.5126600000000  0.5412360000000  0.5016110000000 1.0
C      1  0.4665200000000  0.4636630000000  0.4913730000000 1.0
C      1  0.5134430000000  0.5260860000000  0.5534240000000 1.0
C      1  0.5073460000000  0.4808220000000  0.4600920000000 1.0
C      1  0.4857510000000  0.5228960000000  0.4627510000000 1.0
C      1  0.4385550000000  0.5079280000000  0.4726930000000 1.0
C      1  0.4397020000000  0.5007330000000  0.5243820000000 1.0
C      1  0.5359060000000  0.4969330000000  0.5196560000000 1.0
C      1  0.4783230000000  0.4743000000000  0.4640990000000 1.0
END
