TITL C-3577083-591-140 3.96817828694914e-06 125000 -699.57189334913 0 0 115 (C1) n - 1
REM
REM in /home/bkarasulu/work/CARBON/AIRSS/Generating-Clusters/EDIP-Nigel-Params/with-SteepDescent/Higher-Symm/SD-CG/HFTN-CG
REM
REM
REM
REM
REM
REM ./C.cell (12c818d87b63d06a65506943cc24bca4)
REM
REM compiler GCC version 9.2.1 20190827 (Red Hat 9.2.1-1)
REM options -cpp -mtune=generic -march=x86-64 -g -O0 -fpre-include=/usr/include/finclude/math-vector-fortran.h
REM seed 583874769 907284425 -2034054448 -347945202 -1579915181 138493755 868493187 827632630 1853007215 -558576624 -692875781 -739442556 2099570554 1988093827 1923503337 1437795615 -873758464 -299053967 1874759153 -1770055827 -1128932169 -586506849 1757150596 1812484550 235882379 1964811774 -976880971 1690089351 -1057851312 2090614167 454333377 -363426025 2144303742
REM
CELL 1.54180   50.00000   50.00000   50.00000   90.00000   90.00000   90.00000
LATT -1
SFAC C  
C      1  0.4672030000000  0.5844700000000  0.5481710000000 1.0
C      1  0.4686310000000  0.4785150000000  0.5959620000000 1.0
C      1  0.4687160000000  0.4021320000000  0.5088230000000 1.0
C      1  0.4686900000000  0.4616280000000  0.4095180000000 1.0
C      1  0.4678880000000  0.5745370000000  0.4370110000000 1.0
C      1  0.4576480000000  0.5871600000000  0.4599850000000 1.0
C      1  0.4595960000000  0.4869820000000  0.4041490000000 1.0
C      1  0.4594980000000  0.4047620000000  0.4831030000000 1.0
C      1  0.4595980000000  0.4548820000000  0.5853040000000 1.0
C      1  0.4595680000000  0.5674030000000  0.5683590000000 1.0
C      1  0.5731350000000  0.4574850000000  0.5576690000000 1.0
C      1  0.5730510000000  0.4320350000000  0.4773500000000 1.0
C      1  0.5736070000000  0.5005080000000  0.4282820000000 1.0
C      1  0.5743760000000  0.5684840000000  0.4782350000000 1.0
C      1  0.5736050000000  0.5417820000000  0.5583610000000 1.0
C      1  0.5799930000000  0.4511430000000  0.4448260000000 1.0
C      1  0.5799240000000  0.4324770000000  0.5293830000000 1.0
C      1  0.5801340000000  0.5071170000000  0.5733880000000 1.0
C      1  0.5805600000000  0.5720290000000  0.5159020000000 1.0
C      1  0.5806070000000  0.5373140000000  0.4363780000000 1.0
C      1  0.4511200000000  0.4417240000000  0.4196010000000 1.0
C      1  0.4511930000000  0.5587980000000  0.4201840000000 1.0
C      1  0.4500010000000  0.5893710000000  0.5256330000000 1.0
C      1  0.4510550000000  0.5005910000000  0.5991480000000 1.0
C      1  0.4511320000000  0.4057120000000  0.5307880000000 1.0
C      1  0.4561750000000  0.4223300000000  0.5520950000000 1.0
C      1  0.4561690000000  0.5259430000000  0.5897730000000 1.0
C      1  0.4557430000000  0.5946540000000  0.4985390000000 1.0
C      1  0.4560900000000  0.5327470000000  0.4127840000000 1.0
C      1  0.4560520000000  0.4265810000000  0.4420340000000 1.0
C      1  0.4826790000000  0.5477730000000  0.4417770000000 1.0
C      1  0.4834920000000  0.5703200000000  0.5266030000000 1.0
C      1  0.4831460000000  0.4966180000000  0.5760920000000 1.0
C      1  0.4831350000000  0.4266570000000  0.5200250000000 1.0
C      1  0.4829560000000  0.4585100000000  0.4363690000000 1.0
C      1  0.4699290000000  0.5407120000000  0.5691880000000 1.0
C      1  0.4713880000000  0.5769620000000  0.4825880000000 1.0
C      1  0.4696670000000  0.5083780000000  0.4201830000000 1.0
C      1  0.4696780000000  0.4263650000000  0.4674550000000 1.0
C      1  0.4698890000000  0.4463990000000  0.5600400000000 1.0
C      1  0.5892130000000  0.4573720000000  0.5162290000000 1.0
C      1  0.5893920000000  0.4713020000000  0.4644530000000 1.0
C      1  0.5898230000000  0.5249050000000  0.4617260000000 1.0
C      1  0.5897560000000  0.5440820000000  0.5120380000000 1.0
C      1  0.5893800000000  0.5022290000000  0.5456290000000 1.0
C      1  0.5800020000000  0.4576370000000  0.4885920000000 1.0
C      1  0.5800200000000  0.4760960000000  0.5367930000000 1.0
C      1  0.5803840000000  0.5276460000000  0.5341930000000 1.0
C      1  0.5808540000000  0.5410780000000  0.4842750000000 1.0
C      1  0.5804120000000  0.4977320000000  0.4561410000000 1.0
C      1  0.5222640000000  0.4609720000000  0.5613040000000 1.0
C      1  0.5221180000000  0.4299730000000  0.4817250000000 1.0
C      1  0.5226870000000  0.4962530000000  0.4277250000000 1.0
C      1  0.5237810000000  0.5677870000000  0.4736880000000 1.0
C      1  0.5227170000000  0.5462620000000  0.5562860000000 1.0
C      1  0.5314660000000  0.4488600000000  0.4505400000000 1.0
C      1  0.5314820000000  0.4371340000000  0.5336270000000 1.0
C      1  0.5316350000000  0.5126550000000  0.5703940000000 1.0
C      1  0.5320670000000  0.5709390000000  0.5100680000000 1.0
C      1  0.5318380000000  0.5316920000000  0.4361170000000 1.0
C      1  0.5162840000000  0.4582750000000  0.4924690000000 1.0
C      1  0.5173720000000  0.4948580000000  0.4579060000000 1.0
C      1  0.5180520000000  0.5388700000000  0.4818120000000 1.0
C      1  0.5169580000000  0.5297230000000  0.5310090000000 1.0
C      1  0.5163750000000  0.4799290000000  0.5377640000000 1.0
C      1  0.5280520000000  0.4624680000000  0.5179090000000 1.0
C      1  0.5283390000000  0.5053440000000  0.5414910000000 1.0
C      1  0.5291660000000  0.5411380000000  0.5081780000000 1.0
C      1  0.5292920000000  0.5203870000000  0.4637470000000 1.0
C      1  0.5283590000000  0.4716590000000  0.4698160000000 1.0
C      1  0.4761250000000  0.4961410000000  0.5460430000000 1.0
C      1  0.4760640000000  0.4552030000000  0.5105470000000 1.0
C      1  0.4751580000000  0.4757430000000  0.4606300000000 1.0
C      1  0.4752110000000  0.5291860000000  0.4651700000000 1.0
C      1  0.4765420000000  0.5414330000000  0.5175760000000 1.0
C      1  0.4636050000000  0.5034490000000  0.4518070000000 1.0
C      1  0.4639400000000  0.4551540000000  0.4815220000000 1.0
C      1  0.4644110000000  0.4685060000000  0.5367990000000 1.0
C      1  0.4644320000000  0.5249090000000  0.5412070000000 1.0
C      1  0.4642920000000  0.5458980000000  0.4889910000000 1.0
C      1  0.5518530000000  0.5714790000000  0.4595920000000 1.0
C      1  0.5511810000000  0.5605400000000  0.5553430000000 1.0
C      1  0.5506840000000  0.4662120000000  0.5745130000000 1.0
C      1  0.5504800000000  0.4188690000000  0.4907860000000 1.0
C      1  0.5508820000000  0.4838620000000  0.4198720000000 1.0
C      1  0.5549360000000  0.5768480000000  0.5298600000000 1.0
C      1  0.5550460000000  0.5521220000000  0.4363120000000 1.0
C      1  0.5543090000000  0.4557300000000  0.4310050000000 1.0
C      1  0.5542060000000  0.4207350000000  0.5209160000000 1.0
C      1  0.5544180000000  0.4954740000000  0.5820520000000 1.0
C      1  0.4151890000000  0.5532510000000  0.5071960000000 1.0
C      1  0.4158330000000  0.5097700000000  0.5535920000000 1.0
C      1  0.4156510000000  0.4521650000000  0.5264200000000 1.0
C      1  0.4149610000000  0.4602380000000  0.4632710000000 1.0
C      1  0.4147860000000  0.5228110000000  0.4513850000000 1.0
C      1  0.4154050000000  0.5442890000000  0.4694390000000 1.0
C      1  0.4147710000000  0.4840870000000  0.4484660000000 1.0
C      1  0.4153800000000  0.4454790000000  0.4991680000000 1.0
C      1  0.4158430000000  0.4817930000000  0.5514830000000 1.0
C      1  0.4156370000000  0.5427980000000  0.5332340000000 1.0
C      1  0.5056480000000  0.4225760000000  0.5395340000000 1.0
C      1  0.5055470000000  0.4388070000000  0.4385860000000 1.0
C      1  0.5054230000000  0.5400040000000  0.4235000000000 1.0
C      1  0.5056380000000  0.5859560000000  0.5130880000000 1.0
C      1  0.5056840000000  0.5139440000000  0.5859280000000 1.0
C      1  0.4993070000000  0.4214250000000  0.4615000000000 1.0
C      1  0.4994310000000  0.4390590000000  0.5631670000000 1.0
C      1  0.4994690000000  0.5414540000000  0.5773370000000 1.0
C      1  0.5004600000000  0.5862040000000  0.4839680000000 1.0
C      1  0.4993560000000  0.5127800000000  0.4138270000000 1.0
C      1  0.4347820000000  0.4716090000000  0.5333590000000 1.0
C      1  0.4348000000000  0.5225510000000  0.5371560000000 1.0
C      1  0.4339840000000  0.5029540000000  0.4564360000000 1.0
C      1  0.4343120000000  0.4593130000000  0.4836710000000 1.0
C      1  0.4344740000000  0.5419420000000  0.4900430000000 1.0
END
