TITL C-3578199-7832-197 -1.72967768413477e-06 125000 -895.755663252905 0 0 144 (C1) n - 1
REM
REM in /home/bkarasulu/work/CARBON/AIRSS/Generating-Clusters/EDIP-Nigel-Params/with-SteepDescent/Higher-Symm/SD-CG/HFTN-CG
REM
REM
REM
REM
REM
REM ./C.cell (12c818d87b63d06a65506943cc24bca4)
REM
REM compiler GCC version 9.2.1 20190827 (Red Hat 9.2.1-1)
REM options -cpp -mtune=generic -march=x86-64 -g -O0 -fpre-include=/usr/include/finclude/math-vector-fortran.h
REM seed -327696117 1686041624 1756480330 1770858469 -320615757 -1591072217 1717903313 1042513263 114449525 1461364715 -465471157 1843648945 190824957 -130521567 -1281710319 1664030511 -1913088956 -1018539326 -743151807 -1338396904 -1889330831 -84248001 -2119839341 419207109 1842337283 -1903041810 779273806 1021672876 -1594261943 706607074 -894525210 -1433912006 -1889665122
REM
CELL 1.54180   50.00000   50.00000   50.00000   90.00000   90.00000   90.00000
LATT -1
SFAC C  
C      1  0.5704850000000  0.5661110000000  0.5420460000000 1.0
C      1  0.4295880000000  0.5660380000000  0.4579280000000 1.0
C      1  0.4911520000000  0.5011960000000  0.5368350000000 1.0
C      1  0.5089990000000  0.5012190000000  0.4631620000000 1.0
C      1  0.5642760000000  0.5224020000000  0.4394980000000 1.0
C      1  0.4358130000000  0.5223250000000  0.5605460000000 1.0
C      1  0.4055080000000  0.4645330000000  0.5000400000000 1.0
C      1  0.5940410000000  0.4645730000000  0.4998760000000 1.0
C      1  0.4556190000000  0.5777020000000  0.5079110000000 1.0
C      1  0.5443940000000  0.5776560000000  0.4921260000000 1.0
C      1  0.4799240000000  0.4181830000000  0.5557400000000 1.0
C      1  0.5200720000000  0.4180050000000  0.4441080000000 1.0
C      1  0.5314570000000  0.5467930000000  0.5464020000000 1.0
C      1  0.4685110000000  0.5465410000000  0.4537160000000 1.0
C      1  0.4140040000000  0.4440700000000  0.5447510000000 1.0
C      1  0.5859800000000  0.4440240000000  0.4552490000000 1.0
C      1  0.5103930000000  0.4381250000000  0.4884710000000 1.0
C      1  0.4895150000000  0.4383370000000  0.5112770000000 1.0
C      1  0.5424690000000  0.4335360000000  0.5604180000000 1.0
C      1  0.4574310000000  0.4334520000000  0.4394970000000 1.0
C      1  0.4888090000000  0.5902070000000  0.5697020000000 1.0
C      1  0.5112770000000  0.5900410000000  0.4303110000000 1.0
C      1  0.4093920000000  0.4727360000000  0.5502530000000 1.0
C      1  0.5904390000000  0.4727240000000  0.4498630000000 1.0
C      1  0.4567260000000  0.4121530000000  0.5385700000000 1.0
C      1  0.5432390000000  0.4119870000000  0.4613450000000 1.0
C      1  0.5147810000000  0.5691470000000  0.5291740000000 1.0
C      1  0.4852890000000  0.5689450000000  0.4708840000000 1.0
C      1  0.5142160000000  0.5305840000000  0.4468050000000 1.0
C      1  0.4858890000000  0.5306470000000  0.5533500000000 1.0
C      1  0.5416400000000  0.4516880000000  0.5866360000000 1.0
C      1  0.4583560000000  0.4516880000000  0.4133260000000 1.0
C      1  0.5114300000000  0.5415100000000  0.5694380000000 1.0
C      1  0.4886280000000  0.5412950000000  0.4307150000000 1.0
C      1  0.4568420000000  0.4770030000000  0.5809950000000 1.0
C      1  0.5431270000000  0.4769880000000  0.4190220000000 1.0
C      1  0.4341300000000  0.4292520000000  0.4833570000000 1.0
C      1  0.5657150000000  0.4292770000000  0.5165850000000 1.0
C      1  0.4591230000000  0.4157430000000  0.4882070000000 1.0
C      1  0.5407820000000  0.4157300000000  0.5117000000000 1.0
C      1  0.4491720000000  0.5849440000000  0.5360810000000 1.0
C      1  0.5508510000000  0.5849310000000  0.4639620000000 1.0
C      1  0.3963460000000  0.5108320000000  0.5108910000000 1.0
C      1  0.6036210000000  0.5107300000000  0.4890470000000 1.0
C      1  0.4621170000000  0.5209990000000  0.4694330000000 1.0
C      1  0.5380400000000  0.5212600000000  0.5308980000000 1.0
C      1  0.4745050000000  0.4446500000000  0.5690190000000 1.0
C      1  0.5255850000000  0.4445200000000  0.4308950000000 1.0
C      1  0.5400150000000  0.4595450000000  0.4536320000000 1.0
C      1  0.4600940000000  0.4596900000000  0.5463020000000 1.0
C      1  0.5212680000000  0.4671460000000  0.4769510000000 1.0
C      1  0.4784050000000  0.4676060000000  0.5223140000000 1.0
C      1  0.5133680000000  0.4576190000000  0.5955810000000 1.0
C      1  0.4866470000000  0.4576000000000  0.4044150000000 1.0
C      1  0.4661970000000  0.5253450000000  0.4992520000000 1.0
C      1  0.5343130000000  0.5254350000000  0.5009100000000 1.0
C      1  0.5875590000000  0.5253910000000  0.5596170000000 1.0
C      1  0.4124460000000  0.5253770000000  0.4403590000000 1.0
C      1  0.5494650000000  0.4788150000000  0.5760130000000 1.0
C      1  0.4505610000000  0.4787910000000  0.4240360000000 1.0
C      1  0.4086370000000  0.4846870000000  0.5217680000000 1.0
C      1  0.5909440000000  0.4846930000000  0.4782030000000 1.0
C      1  0.5025980000000  0.4269040000000  0.5368170000000 1.0
C      1  0.4973200000000  0.4266070000000  0.4630160000000 1.0
C      1  0.4387710000000  0.4908760000000  0.5234490000000 1.0
C      1  0.5609180000000  0.4912980000000  0.4764270000000 1.0
C      1  0.4487490000000  0.5515190000000  0.4144630000000 1.0
C      1  0.5513740000000  0.5516250000000  0.5855870000000 1.0
C      1  0.5734230000000  0.5700390000000  0.4560880000000 1.0
C      1  0.4266690000000  0.5698890000000  0.5438580000000 1.0
C      1  0.4801910000000  0.5012550000000  0.4564270000000 1.0
C      1  0.5198390000000  0.5015320000000  0.5440700000000 1.0
C      1  0.5068530000000  0.5708240000000  0.5799860000000 1.0
C      1  0.4932360000000  0.5706080000000  0.4201190000000 1.0
C      1  0.4995260000000  0.4568440000000  0.4299820000000 1.0
C      1  0.5005100000000  0.4569990000000  0.5699850000000 1.0
C      1  0.4691730000000  0.5200910000000  0.5971740000000 1.0
C      1  0.5308370000000  0.5200990000000  0.4029480000000 1.0
C      1  0.4160410000000  0.5519310000000  0.4816740000000 1.0
C      1  0.5842040000000  0.5520090000000  0.5183440000000 1.0
C      1  0.5548850000000  0.4872040000000  0.5214230000000 1.0
C      1  0.4447670000000  0.4870430000000  0.4785600000000 1.0
C      1  0.5317330000000  0.4057860000000  0.4868210000000 1.0
C      1  0.4682530000000  0.4059600000000  0.5131110000000 1.0
C      1  0.5206800000000  0.4949180000000  0.4086930000000 1.0
C      1  0.4793040000000  0.4948970000000  0.5914360000000 1.0
C      1  0.4738180000000  0.4087950000000  0.4648560000000 1.0
C      1  0.5259970000000  0.4089820000000  0.5350310000000 1.0
C      1  0.4178090000000  0.4390330000000  0.5064090000000 1.0
C      1  0.5820700000000  0.4389630000000  0.4936050000000 1.0
C      1  0.4874080000000  0.5906600000000  0.4926010000000 1.0
C      1  0.5126540000000  0.5907370000000  0.5073240000000 1.0
C      1  0.5860510000000  0.4628990000000  0.5494070000000 1.0
C      1  0.4138090000000  0.4628620000000  0.4504480000000 1.0
C      1  0.4076650000000  0.5032030000000  0.4246590000000 1.0
C      1  0.5923260000000  0.5031940000000  0.5752870000000 1.0
C      1  0.4286170000000  0.5479500000000  0.4353290000000 1.0
C      1  0.5714440000000  0.5480140000000  0.5646460000000 1.0
C      1  0.4637480000000  0.5768010000000  0.4218550000000 1.0
C      1  0.5363870000000  0.5769810000000  0.5782490000000 1.0
C      1  0.6040170000000  0.5051510000000  0.5185790000000 1.0
C      1  0.3958350000000  0.5052770000000  0.4813780000000 1.0
C      1  0.5280610000000  0.5531410000000  0.4906730000000 1.0
C      1  0.4719300000000  0.5531890000000  0.5094600000000 1.0
C      1  0.5965950000000  0.5292420000000  0.5328490000000 1.0
C      1  0.4034660000000  0.5292920000000  0.4671450000000 1.0
C      1  0.4545000000000  0.5823450000000  0.4508220000000 1.0
C      1  0.5456120000000  0.5825190000000  0.5492250000000 1.0
C      1  0.4923720000000  0.4865460000000  0.3980220000000 1.0
C      1  0.5076670000000  0.4865540000000  0.6020760000000 1.0
C      1  0.4865030000000  0.5566210000000  0.5349660000000 1.0
C      1  0.5135650000000  0.5565180000000  0.4651350000000 1.0
C      1  0.4619710000000  0.5311020000000  0.5723350000000 1.0
C      1  0.5380800000000  0.5311180000000  0.4277690000000 1.0
C      1  0.4544590000000  0.4747020000000  0.5048260000000 1.0
C      1  0.5441300000000  0.4758200000000  0.4949100000000 1.0
C      1  0.4884300000000  0.5078930000000  0.5081250000000 1.0
C      1  0.5126740000000  0.5071590000000  0.4922510000000 1.0
C      1  0.5836760000000  0.5333350000000  0.4872330000000 1.0
C      1  0.4167550000000  0.5330470000000  0.5127000000000 1.0
C      1  0.5792420000000  0.5425100000000  0.4582150000000 1.0
C      1  0.4210150000000  0.5423280000000  0.5416580000000 1.0
C      1  0.4324280000000  0.4398800000000  0.4559610000000 1.0
C      1  0.5674790000000  0.4398720000000  0.5439700000000 1.0
C      1  0.5794620000000  0.4786630000000  0.5736580000000 1.0
C      1  0.4205380000000  0.4786740000000  0.4262760000000 1.0
C      1  0.4139840000000  0.4802400000000  0.4756200000000 1.0
C      1  0.5856650000000  0.4802440000000  0.5242470000000 1.0
C      1  0.5273440000000  0.5761310000000  0.4484320000000 1.0
C      1  0.4727080000000  0.5762300000000  0.5516570000000 1.0
C      1  0.4411420000000  0.5168020000000  0.5113540000000 1.0
C      1  0.5593240000000  0.5171710000000  0.4887740000000 1.0
C      1  0.5660580000000  0.4903760000000  0.4372190000000 1.0
C      1  0.4339250000000  0.4903700000000  0.5627590000000 1.0
C      1  0.4417350000000  0.4381960000000  0.5368070000000 1.0
C      1  0.5582610000000  0.4380300000000  0.4631230000000 1.0
C      1  0.4812160000000  0.4505740000000  0.4515700000000 1.0
C      1  0.5187930000000  0.4507950000000  0.5483680000000 1.0
C      1  0.5368110000000  0.4781520000000  0.5468500000000 1.0
C      1  0.4631250000000  0.4779590000000  0.4532650000000 1.0
C      1  0.4645720000000  0.5284170000000  0.4037760000000 1.0
C      1  0.5355140000000  0.5284870000000  0.5962490000000 1.0
C      1  0.4659850000000  0.4993460000000  0.4058310000000 1.0
C      1  0.5341000000000  0.4993750000000  0.5943050000000 1.0
END
