TITL C-3577081-279-454 -9.95732204011623e-07 125000 -586.380927231788 0 0 94 (C1) n - 1
REM
REM in /home/bkarasulu/work/CARBON/AIRSS/Generating-Clusters/EDIP-Nigel-Params/with-SteepDescent/Higher-Symm/SD-CG/HFTN-CG
REM
REM
REM
REM
REM
REM ./C.cell (12c818d87b63d06a65506943cc24bca4)
REM
REM compiler GCC version 9.2.1 20190827 (Red Hat 9.2.1-1)
REM options -cpp -mtune=generic -march=x86-64 -g -O0 -fpre-include=/usr/include/finclude/math-vector-fortran.h
REM seed 687263503 158974752 1029490983 -986283217 -1033357600 -1129852088 -137241516 740975321 842413425 788121749 -901200354 46475539 -1933043147 156590274 -1455160070 220883906 2044252696 -1763242859 1100769926 -77516001 -1269015366 506191606 1004547660 -1460582233 1278823580 -1988300314 141461355 -483495208 -2130737163 -2133135604 -437711244 -1637290767 388944412
REM
CELL 1.54180   50.00000   50.00000   50.00000   90.00000   90.00000   90.00000
LATT -1
SFAC C  
C      1  0.5429280000000  0.5636860000000  0.4933970000000 1.0
C      1  0.5487120000000  0.4295370000000  0.5006940000000 1.0
C      1  0.4744090000000  0.4816780000000  0.5638130000000 1.0
C      1  0.4759650000000  0.5208800000000  0.4353330000000 1.0
C      1  0.4978910000000  0.4076520000000  0.4571120000000 1.0
C      1  0.4972210000000  0.5920100000000  0.5438180000000 1.0
C      1  0.4409500000000  0.5026610000000  0.4624610000000 1.0
C      1  0.4347350000000  0.5007920000000  0.5403170000000 1.0
C      1  0.5804140000000  0.4944520000000  0.5386610000000 1.0
C      1  0.5847630000000  0.5027030000000  0.4628790000000 1.0
C      1  0.4463570000000  0.4367610000000  0.5010280000000 1.0
C      1  0.4472940000000  0.5635250000000  0.4992930000000 1.0
C      1  0.5809180000000  0.5055110000000  0.5121480000000 1.0
C      1  0.5871450000000  0.4906630000000  0.4881450000000 1.0
C      1  0.5180080000000  0.5120300000000  0.5040310000000 1.0
C      1  0.5330760000000  0.4840990000000  0.4987700000000 1.0
C      1  0.5183790000000  0.5814310000000  0.5313880000000 1.0
C      1  0.5206920000000  0.4203180000000  0.4624570000000 1.0
C      1  0.5354250000000  0.4594240000000  0.5678870000000 1.0
C      1  0.5309770000000  0.5431060000000  0.4426970000000 1.0
C      1  0.5113790000000  0.4008520000000  0.5154030000000 1.0
C      1  0.5133980000000  0.5958860000000  0.4778890000000 1.0
C      1  0.5008080000000  0.5142380000000  0.4188550000000 1.0
C      1  0.4992000000000  0.4898160000000  0.5785080000000 1.0
C      1  0.5149470000000  0.4895420000000  0.4346310000000 1.0
C      1  0.5102340000000  0.5112270000000  0.5597630000000 1.0
C      1  0.4568840000000  0.5609380000000  0.5459670000000 1.0
C      1  0.4611260000000  0.4429130000000  0.4558320000000 1.0
C      1  0.4810930000000  0.4236970000000  0.5450970000000 1.0
C      1  0.4802570000000  0.5777620000000  0.4551420000000 1.0
C      1  0.5781600000000  0.4518570000000  0.4621270000000 1.0
C      1  0.5728560000000  0.5472920000000  0.5340390000000 1.0
C      1  0.5431590000000  0.4842820000000  0.4466200000000 1.0
C      1  0.5385370000000  0.5177840000000  0.5537370000000 1.0
C      1  0.5457440000000  0.5426450000000  0.5393150000000 1.0
C      1  0.5509310000000  0.4576580000000  0.4578680000000 1.0
C      1  0.4530000000000  0.5030700000000  0.5640150000000 1.0
C      1  0.4546560000000  0.4992390000000  0.4355020000000 1.0
C      1  0.5392530000000  0.5151490000000  0.4810900000000 1.0
C      1  0.5511650000000  0.4751500000000  0.5223890000000 1.0
C      1  0.4652600000000  0.4545270000000  0.5724750000000 1.0
C      1  0.4653470000000  0.5474950000000  0.4270550000000 1.0
C      1  0.4819660000000  0.5396470000000  0.5254260000000 1.0
C      1  0.4886480000000  0.4630940000000  0.4748500000000 1.0
C      1  0.4144910000000  0.4853370000000  0.5003780000000 1.0
C      1  0.4129960000000  0.5157880000000  0.4984980000000 1.0
C      1  0.5111490000000  0.4616840000000  0.5839590000000 1.0
C      1  0.5126120000000  0.5424440000000  0.4190860000000 1.0
C      1  0.4725580000000  0.5772300000000  0.5036420000000 1.0
C      1  0.4701180000000  0.4208230000000  0.4970810000000 1.0
C      1  0.4853400000000  0.4109510000000  0.5197600000000 1.0
C      1  0.4853540000000  0.5917850000000  0.4806090000000 1.0
C      1  0.5567410000000  0.5316470000000  0.4364470000000 1.0
C      1  0.5554130000000  0.4770600000000  0.5762000000000 1.0
C      1  0.5665410000000  0.4513430000000  0.5105530000000 1.0
C      1  0.5586350000000  0.5397310000000  0.4873880000000 1.0
C      1  0.4973590000000  0.5502920000000  0.4799460000000 1.0
C      1  0.5090400000000  0.4483000000000  0.5221680000000 1.0
C      1  0.5336670000000  0.4411130000000  0.4768070000000 1.0
C      1  0.5284860000000  0.5576690000000  0.5194110000000 1.0
C      1  0.5832110000000  0.4619030000000  0.4880410000000 1.0
C      1  0.5774240000000  0.5338280000000  0.5095930000000 1.0
C      1  0.4906240000000  0.4410280000000  0.5780550000000 1.0
C      1  0.4905180000000  0.5617430000000  0.4213400000000 1.0
C      1  0.5601620000000  0.4985020000000  0.5587430000000 1.0
C      1  0.5633900000000  0.5054800000000  0.4450170000000 1.0
C      1  0.4932740000000  0.4715940000000  0.4459980000000 1.0
C      1  0.4897780000000  0.5322100000000  0.5537270000000 1.0
C      1  0.4567530000000  0.4389840000000  0.5491810000000 1.0
C      1  0.4555750000000  0.5619670000000  0.4511440000000 1.0
C      1  0.4256650000000  0.5255780000000  0.5237610000000 1.0
C      1  0.4302960000000  0.4770470000000  0.4767700000000 1.0
C      1  0.4672380000000  0.4796750000000  0.4895880000000 1.0
C      1  0.4624720000000  0.5191770000000  0.5127030000000 1.0
C      1  0.5143110000000  0.4595450000000  0.4921290000000 1.0
C      1  0.5063150000000  0.5397710000000  0.5079580000000 1.0
C      1  0.5269980000000  0.4672620000000  0.5403730000000 1.0
C      1  0.5199320000000  0.5197970000000  0.4583830000000 1.0
C      1  0.4740480000000  0.5817690000000  0.5323980000000 1.0
C      1  0.4768410000000  0.4213700000000  0.4689080000000 1.0
C      1  0.4906620000000  0.4792400000000  0.5365720000000 1.0
C      1  0.4889210000000  0.5239170000000  0.4642590000000 1.0
C      1  0.4674540000000  0.4733170000000  0.4333070000000 1.0
C      1  0.4644700000000  0.5293560000000  0.5671620000000 1.0
C      1  0.4669540000000  0.4881430000000  0.5197960000000 1.0
C      1  0.4658870000000  0.5100030000000  0.4809970000000 1.0
C      1  0.4256820000000  0.4753870000000  0.5267270000000 1.0
C      1  0.4252670000000  0.5262450000000  0.4724740000000 1.0
C      1  0.4395300000000  0.4488290000000  0.4751660000000 1.0
C      1  0.4374000000000  0.5532940000000  0.5247520000000 1.0
C      1  0.5276000000000  0.4234130000000  0.5207410000000 1.0
C      1  0.5221930000000  0.5683120000000  0.4718720000000 1.0
C      1  0.4440200000000  0.4519130000000  0.5257380000000 1.0
C      1  0.4443720000000  0.5485260000000  0.4747750000000 1.0
END
