TITL C-3578204-4308-579 -2.86227189006456e-06 125000 -964.334468942709 0 0 152 (C1) n - 1
REM
REM in /home/bkarasulu/work/CARBON/AIRSS/Generating-Clusters/EDIP-Nigel-Params/with-SteepDescent/Higher-Symm/SD-CG/HFTN-CG
REM
REM
REM
REM
REM
REM ./C.cell (12c818d87b63d06a65506943cc24bca4)
REM
REM compiler GCC version 9.2.1 20190827 (Red Hat 9.2.1-1)
REM options -cpp -mtune=generic -march=x86-64 -g -O0 -fpre-include=/usr/include/finclude/math-vector-fortran.h
REM seed 655997388 1887297318 14540105 1110132077 -961766552 -1402731366 1249857711 -1658703513 -2026223527 -2119651637 1786893610 1573575001 1091705091 1477910225 717938004 1449725023 -1770595817 -863842098 -1628995883 101061597 566234285 994235597 2093156304 -1554335100 -1156720877 -201216935 -2036090957 1481808466 1840233840 -714124438 1009243122 1331072220 2048108700
REM
CELL 1.54180   50.00000   50.00000   50.00000   90.00000   90.00000   90.00000
LATT -1
SFAC C  
C      1  0.5958640000000  0.5144330000000  0.5376140000000 1.0
C      1  0.4838850000000  0.5127710000000  0.3981050000000 1.0
C      1  0.4214160000000  0.5143740000000  0.5645040000000 1.0
C      1  0.5955100000000  0.4891600000000  0.4639470000000 1.0
C      1  0.4843100000000  0.4873610000000  0.5992590000000 1.0
C      1  0.4210950000000  0.4867240000000  0.4366090000000 1.0
C      1  0.5104560000000  0.4740790000000  0.4473570000000 1.0
C      1  0.4472440000000  0.4720150000000  0.5163880000000 1.0
C      1  0.5397440000000  0.4755500000000  0.5352940000000 1.0
C      1  0.5131580000000  0.5286560000000  0.5524180000000 1.0
C      1  0.4474710000000  0.5262310000000  0.4844790000000 1.0
C      1  0.5425410000000  0.5237700000000  0.4580310000000 1.0
C      1  0.4964080000000  0.4988210000000  0.3768410000000 1.0
C      1  0.3973090000000  0.4999670000000  0.5631930000000 1.0
C      1  0.6018540000000  0.4991630000000  0.5602330000000 1.0
C      1  0.4968500000000  0.5007810000000  0.6206250000000 1.0
C      1  0.3967750000000  0.5009710000000  0.4358770000000 1.0
C      1  0.6044130000000  0.5034170000000  0.4413330000000 1.0
C      1  0.5576170000000  0.5049810000000  0.4357820000000 1.0
C      1  0.4111880000000  0.4962740000000  0.4853410000000 1.0
C      1  0.5328180000000  0.4953910000000  0.5834070000000 1.0
C      1  0.5590910000000  0.5036960000000  0.5663900000000 1.0
C      1  0.4111610000000  0.5032410000000  0.5162170000000 1.0
C      1  0.5339440000000  0.5024700000000  0.4149810000000 1.0
C      1  0.3968950000000  0.4631200000000  0.4738740000000 1.0
C      1  0.5266110000000  0.4626160000000  0.6021540000000 1.0
C      1  0.5715040000000  0.4701870000000  0.4269450000000 1.0
C      1  0.3981920000000  0.5371760000000  0.5265830000000 1.0
C      1  0.5282190000000  0.5355440000000  0.3973780000000 1.0
C      1  0.5747930000000  0.5375270000000  0.5748140000000 1.0
C      1  0.5483190000000  0.4967760000000  0.4757560000000 1.0
C      1  0.4399690000000  0.4986890000000  0.4741610000000 1.0
C      1  0.5079570000000  0.5005850000000  0.5646510000000 1.0
C      1  0.5533630000000  0.5022670000000  0.5356420000000 1.0
C      1  0.4399900000000  0.4998340000000  0.5271690000000 1.0
C      1  0.5081790000000  0.4999760000000  0.4315810000000 1.0
C      1  0.4159100000000  0.4554450000000  0.5579700000000 1.0
C      1  0.5887250000000  0.4563300000000  0.5443630000000 1.0
C      1  0.4917510000000  0.4552160000000  0.3984870000000 1.0
C      1  0.4183560000000  0.5442100000000  0.4422630000000 1.0
C      1  0.5885210000000  0.5446410000000  0.4551650000000 1.0
C      1  0.4925120000000  0.5445010000000  0.5999820000000 1.0
C      1  0.5858670000000  0.4968910000000  0.5149720000000 1.0
C      1  0.4716540000000  0.4940660000000  0.4200460000000 1.0
C      1  0.4457380000000  0.4951700000000  0.5636010000000 1.0
C      1  0.5896910000000  0.5068770000000  0.4870350000000 1.0
C      1  0.4723360000000  0.5055900000000  0.5776550000000 1.0
C      1  0.4468020000000  0.5044890000000  0.4366910000000 1.0
C      1  0.5445900000000  0.5624390000000  0.4367860000000 1.0
C      1  0.4296320000000  0.5522670000000  0.4899730000000 1.0
C      1  0.5277970000000  0.5530130000000  0.5662820000000 1.0
C      1  0.5426760000000  0.4446090000000  0.5585330000000 1.0
C      1  0.4279340000000  0.4467490000000  0.5103740000000 1.0
C      1  0.5263950000000  0.4495840000000  0.4342130000000 1.0
C      1  0.4875720000000  0.5980190000000  0.5530900000000 1.0
C      1  0.5522490000000  0.5966570000000  0.4862100000000 1.0
C      1  0.4635630000000  0.5944070000000  0.4632150000000 1.0
C      1  0.4861060000000  0.4033580000000  0.4468890000000 1.0
C      1  0.5512280000000  0.4053320000000  0.5131880000000 1.0
C      1  0.4608300000000  0.4038890000000  0.5374810000000 1.0
C      1  0.5222890000000  0.5829680000000  0.5217550000000 1.0
C      1  0.5087200000000  0.5810890000000  0.4717650000000 1.0
C      1  0.4719570000000  0.5829010000000  0.5087440000000 1.0
C      1  0.5209290000000  0.4181250000000  0.4778500000000 1.0
C      1  0.5064870000000  0.4187140000000  0.5284550000000 1.0
C      1  0.4700450000000  0.4167560000000  0.4916300000000 1.0
C      1  0.5750610000000  0.5296420000000  0.4117360000000 1.0
C      1  0.3889440000000  0.5262640000000  0.4785730000000 1.0
C      1  0.5381950000000  0.5252540000000  0.6062200000000 1.0
C      1  0.5700310000000  0.4739850000000  0.5872640000000 1.0
C      1  0.3875320000000  0.4740150000000  0.5212720000000 1.0
C      1  0.5374610000000  0.4732450000000  0.3913400000000 1.0
C      1  0.4814110000000  0.4236080000000  0.4286870000000 1.0
C      1  0.4474460000000  0.4234120000000  0.5515500000000 1.0
C      1  0.5685250000000  0.4261020000000  0.5185140000000 1.0
C      1  0.4820270000000  0.5777420000000  0.5710900000000 1.0
C      1  0.4502830000000  0.5749150000000  0.4491290000000 1.0
C      1  0.5706920000000  0.5770430000000  0.4802230000000 1.0
C      1  0.3980840000000  0.4762830000000  0.5480580000000 1.0
C      1  0.5912100000000  0.4743840000000  0.5673780000000 1.0
C      1  0.5087490000000  0.4769930000000  0.3895980000000 1.0
C      1  0.4011820000000  0.5230950000000  0.4525390000000 1.0
C      1  0.5947890000000  0.5280780000000  0.4324690000000 1.0
C      1  0.5095890000000  0.5226850000000  0.6086680000000 1.0
C      1  0.5007260000000  0.5361230000000  0.4069100000000 1.0
C      1  0.4212970000000  0.5360760000000  0.5443500000000 1.0
C      1  0.5794690000000  0.5370420000000  0.5462450000000 1.0
C      1  0.5009600000000  0.4650350000000  0.5898130000000 1.0
C      1  0.4197920000000  0.4640540000000  0.4559160000000 1.0
C      1  0.5755250000000  0.4697030000000  0.4550480000000 1.0
C      1  0.5248110000000  0.4608330000000  0.4892270000000 1.0
C      1  0.4747750000000  0.4592380000000  0.4799120000000 1.0
C      1  0.4942500000000  0.4611260000000  0.5323470000000 1.0
C      1  0.5287070000000  0.5411530000000  0.5082390000000 1.0
C      1  0.4784240000000  0.5398110000000  0.5170100000000 1.0
C      1  0.4951980000000  0.5251610000000  0.4734410000000 1.0
C      1  0.5132730000000  0.5226690000000  0.4512000000000 1.0
C      1  0.4583490000000  0.5194990000000  0.5104850000000 1.0
C      1  0.5295390000000  0.5213590000000  0.5292730000000 1.0
C      1  0.5117260000000  0.4824230000000  0.5401500000000 1.0
C      1  0.4583130000000  0.4800220000000  0.4907470000000 1.0
C      1  0.5220420000000  0.4828020000000  0.4725270000000 1.0
C      1  0.5405450000000  0.4333000000000  0.4586490000000 1.0
C      1  0.4426610000000  0.4296480000000  0.4852220000000 1.0
C      1  0.5142150000000  0.4301020000000  0.5559620000000 1.0
C      1  0.5414030000000  0.5687100000000  0.5405280000000 1.0
C      1  0.4452540000000  0.5689020000000  0.5149500000000 1.0
C      1  0.5158030000000  0.5693990000000  0.4443350000000 1.0
C      1  0.4417450000000  0.5574840000000  0.5432980000000 1.0
C      1  0.5677940000000  0.5574990000000  0.5288350000000 1.0
C      1  0.4933910000000  0.5551390000000  0.4286540000000 1.0
C      1  0.4403410000000  0.4427390000000  0.4570990000000 1.0
C      1  0.5666280000000  0.4462010000000  0.4703170000000 1.0
C      1  0.4913470000000  0.4431510000000  0.5725660000000 1.0
C      1  0.5689450000000  0.4342320000000  0.5464040000000 1.0
C      1  0.5054440000000  0.4347930000000  0.4157650000000 1.0
C      1  0.4233440000000  0.4338030000000  0.5384030000000 1.0
C      1  0.5698810000000  0.5673210000000  0.4526090000000 1.0
C      1  0.5059120000000  0.5664550000000  0.5845000000000 1.0
C      1  0.4257670000000  0.5654120000000  0.4620410000000 1.0
C      1  0.4860130000000  0.5374010000000  0.5445930000000 1.0
C      1  0.5500590000000  0.5327420000000  0.4900450000000 1.0
C      1  0.4685600000000  0.5311930000000  0.4646630000000 1.0
C      1  0.4824350000000  0.4661270000000  0.4529480000000 1.0
C      1  0.5476590000000  0.4710640000000  0.5061980000000 1.0
C      1  0.4670320000000  0.4659100000000  0.5376750000000 1.0
C      1  0.4620200000000  0.4481880000000  0.5607620000000 1.0
C      1  0.5704410000000  0.4509950000000  0.5014180000000 1.0
C      1  0.4654160000000  0.4479790000000  0.4367490000000 1.0
C      1  0.4652000000000  0.5499780000000  0.4411860000000 1.0
C      1  0.5729110000000  0.5524920000000  0.4976570000000 1.0
C      1  0.4673990000000  0.5529080000000  0.5614830000000 1.0
C      1  0.4008150000000  0.4570300000000  0.5018590000000 1.0
C      1  0.5488040000000  0.4546520000000  0.5861040000000 1.0
C      1  0.5472880000000  0.4605220000000  0.4154550000000 1.0
C      1  0.4023590000000  0.5426150000000  0.4984660000000 1.0
C      1  0.5497590000000  0.5434770000000  0.4147570000000 1.0
C      1  0.5484860000000  0.5421390000000  0.5851050000000 1.0
C      1  0.5914250000000  0.4673920000000  0.5164320000000 1.0
C      1  0.4666510000000  0.4652820000000  0.4115590000000 1.0
C      1  0.4400120000000  0.4661470000000  0.5726800000000 1.0
C      1  0.5938360000000  0.5355840000000  0.4833390000000 1.0
C      1  0.4682170000000  0.5346400000000  0.5855230000000 1.0
C      1  0.4428420000000  0.5335400000000  0.4285640000000 1.0
C      1  0.4781420000000  0.4170900000000  0.5200950000000 1.0
C      1  0.5268330000000  0.4171360000000  0.5068760000000 1.0
C      1  0.4919580000000  0.4160370000000  0.4710320000000 1.0
C      1  0.4807990000000  0.5810570000000  0.4806380000000 1.0
C      1  0.5288470000000  0.5828830000000  0.4930120000000 1.0
C      1  0.4936350000000  0.5852790000000  0.5290020000000 1.0
C      1  0.4984520000000  0.4501660000000  0.4984470000000 1.0
C      1  0.5010960000000  0.5441800000000  0.4953080000000 1.0
END
