TITL C-3578206-1180-408 -2.52184532957344e-06 125000 -1206.92735395855 0 0 194 (C1) n - 1
REM
REM in /home/bkarasulu/work/CARBON/AIRSS/Generating-Clusters/EDIP-Nigel-Params/with-SteepDescent/Higher-Symm/SD-CG/HFTN-CG
REM
REM
REM
REM
REM
REM ./C.cell (12c818d87b63d06a65506943cc24bca4)
REM
REM compiler GCC version 9.2.1 20190827 (Red Hat 9.2.1-1)
REM options -cpp -mtune=generic -march=x86-64 -g -O0 -fpre-include=/usr/include/finclude/math-vector-fortran.h
REM seed 209442917 1073820348 -211239469 1331262158 1285665123 382906844 -1536510178 -1719400014 -1503102345 1447031890 -647731849 1864014661 1276777153 1320463199 -1150485830 1735572140 1530650159 1004000580 -869102545 -1049670395 -1975501761 -125950279 -906484374 1559392443 1669173667 1352441201 -1108529647 -250141139 -1217448483 -582702142 -1285690199 -1771477316 -923335977
REM
CELL 1.54180   50.00000   50.00000   50.00000   90.00000   90.00000   90.00000
LATT -1
SFAC C  
C      1  0.3946410000000  0.5164490000000  0.4524730000000 1.0
C      1  0.4256650000000  0.5138320000000  0.5847770000000 1.0
C      1  0.5586590000000  0.5158290000000  0.6006220000000 1.0
C      1  0.6109720000000  0.5157410000000  0.4769290000000 1.0
C      1  0.5130640000000  0.5141810000000  0.3851430000000 1.0
C      1  0.4705250000000  0.5146210000000  0.5997470000000 1.0
C      1  0.5856160000000  0.5178570000000  0.5602800000000 1.0
C      1  0.5818130000000  0.5154040000000  0.4387310000000 1.0
C      1  0.4663850000000  0.5160280000000  0.4011740000000 1.0
C      1  0.3938540000000  0.5173680000000  0.5024070000000 1.0
C      1  0.4570430000000  0.4669250000000  0.5602870000000 1.0
C      1  0.5453530000000  0.4660780000000  0.5564840000000 1.0
C      1  0.5673450000000  0.4665000000000  0.4828510000000 1.0
C      1  0.5012750000000  0.4666310000000  0.4339740000000 1.0
C      1  0.4270930000000  0.4663840000000  0.4766100000000 1.0
C      1  0.4716220000000  0.4945190000000  0.5393980000000 1.0
C      1  0.5293900000000  0.4937340000000  0.5399500000000 1.0
C      1  0.5432830000000  0.4981260000000  0.4862200000000 1.0
C      1  0.4978770000000  0.4973450000000  0.4532850000000 1.0
C      1  0.4485430000000  0.4969230000000  0.4851420000000 1.0
C      1  0.5657760000000  0.4376190000000  0.4958990000000 1.0
C      1  0.5103800000000  0.4351570000000  0.4410150000000 1.0
C      1  0.4340830000000  0.4357030000000  0.4678640000000 1.0
C      1  0.4516190000000  0.4383160000000  0.5485140000000 1.0
C      1  0.5315920000000  0.4388580000000  0.5547520000000 1.0
C      1  0.4620440000000  0.5802770000000  0.4280010000000 1.0
C      1  0.4201740000000  0.5808380000000  0.5143310000000 1.0
C      1  0.4906540000000  0.5779900000000  0.5786030000000 1.0
C      1  0.5746440000000  0.5802680000000  0.5347330000000 1.0
C      1  0.5555890000000  0.5779690000000  0.4419110000000 1.0
C      1  0.5847520000000  0.5092120000000  0.4667040000000 1.0
C      1  0.4941110000000  0.5094090000000  0.4072990000000 1.0
C      1  0.4078840000000  0.5122770000000  0.4775640000000 1.0
C      1  0.4529560000000  0.5075410000000  0.5780760000000 1.0
C      1  0.5606180000000  0.5091580000000  0.5719920000000 1.0
C      1  0.4390030000000  0.4599240000000  0.5849700000000 1.0
C      1  0.5610530000000  0.4662350000000  0.5834410000000 1.0
C      1  0.5962330000000  0.4665390000000  0.4714920000000 1.0
C      1  0.5021530000000  0.4662030000000  0.4028390000000 1.0
C      1  0.3982040000000  0.4613490000000  0.4667650000000 1.0
C      1  0.4240450000000  0.4292610000000  0.5392600000000 1.0
C      1  0.5156790000000  0.4286540000000  0.5786200000000 1.0
C      1  0.5887900000000  0.4277460000000  0.5142530000000 1.0
C      1  0.5378580000000  0.4260440000000  0.4311520000000 1.0
C      1  0.4380820000000  0.4271200000000  0.4378410000000 1.0
C      1  0.4463900000000  0.5027760000000  0.4419280000000 1.0
C      1  0.4281120000000  0.5019860000000  0.5327190000000 1.0
C      1  0.5139240000000  0.5019940000000  0.5860370000000 1.0
C      1  0.5790870000000  0.4994450000000  0.5171500000000 1.0
C      1  0.5386620000000  0.5020790000000  0.4246950000000 1.0
C      1  0.5648880000000  0.6027000000000  0.4940480000000 1.0
C      1  0.5153750000000  0.6024910000000  0.4371220000000 1.0
C      1  0.4451560000000  0.6049300000000  0.4654240000000 1.0
C      1  0.4534390000000  0.6017810000000  0.5404930000000 1.0
C      1  0.5260160000000  0.6022180000000  0.5583590000000 1.0
C      1  0.4245060000000  0.5653720000000  0.5397710000000 1.0
C      1  0.5160050000000  0.5634130000000  0.5837640000000 1.0
C      1  0.5854140000000  0.5645520000000  0.5121330000000 1.0
C      1  0.5379970000000  0.5639470000000  0.4225050000000 1.0
C      1  0.4387840000000  0.5659470000000  0.4394500000000 1.0
C      1  0.6004560000000  0.4922350000000  0.5614090000000 1.0
C      1  0.5839510000000  0.4880380000000  0.4275780000000 1.0
C      1  0.4565240000000  0.4884160000000  0.3965030000000 1.0
C      1  0.3858290000000  0.4896560000000  0.5088480000000 1.0
C      1  0.4747960000000  0.4875730000000  0.6112390000000 1.0
C      1  0.6065930000000  0.5457640000000  0.5160800000000 1.0
C      1  0.5478930000000  0.5442970000000  0.4036080000000 1.0
C      1  0.4234200000000  0.5470570000000  0.4241330000000 1.0
C      1  0.4056480000000  0.5465770000000  0.5511750000000 1.0
C      1  0.5193440000000  0.5452490000000  0.6063200000000 1.0
C      1  0.4775030000000  0.3941330000000  0.5552710000000 1.0
C      1  0.5495200000000  0.3949310000000  0.5331890000000 1.0
C      1  0.5519620000000  0.3957940000000  0.4700730000000 1.0
C      1  0.4851730000000  0.3932710000000  0.4391800000000 1.0
C      1  0.4356390000000  0.3937010000000  0.4954760000000 1.0
C      1  0.4658040000000  0.6042570000000  0.4441790000000 1.0
C      1  0.4399830000000  0.6022320000000  0.5147600000000 1.0
C      1  0.4975090000000  0.6012900000000  0.5626250000000 1.0
C      1  0.5611410000000  0.6033580000000  0.5228770000000 1.0
C      1  0.5409380000000  0.6013480000000  0.4505010000000 1.0
C      1  0.6096240000000  0.5195460000000  0.5048970000000 1.0
C      1  0.5396460000000  0.5162820000000  0.3972780000000 1.0
C      1  0.4140680000000  0.5209860000000  0.4320370000000 1.0
C      1  0.4101530000000  0.5199640000000  0.5617650000000 1.0
C      1  0.5302680000000  0.5173370000000  0.6075470000000 1.0
C      1  0.5464960000000  0.5415960000000  0.4656240000000 1.0
C      1  0.4811370000000  0.5429030000000  0.4423360000000 1.0
C      1  0.4376780000000  0.5424350000000  0.5019620000000 1.0
C      1  0.4847360000000  0.5396860000000  0.5570690000000 1.0
C      1  0.5474040000000  0.5390750000000  0.5340860000000 1.0
C      1  0.4714040000000  0.5514990000000  0.5063210000000 1.0
C      1  0.4942970000000  0.5469310000000  0.5272080000000 1.0
C      1  0.5221360000000  0.5460420000000  0.5148750000000 1.0
C      1  0.5213680000000  0.5492940000000  0.4844210000000 1.0
C      1  0.4925280000000  0.5544860000000  0.4736570000000 1.0
C      1  0.5240980000000  0.3846050000000  0.5402400000000 1.0
C      1  0.5629920000000  0.3779850000000  0.4890500000000 1.0
C      1  0.5113980000000  0.3846500000000  0.4446750000000 1.0
C      1  0.4510890000000  0.3841910000000  0.4741860000000 1.0
C      1  0.4608500000000  0.3846020000000  0.5351120000000 1.0
C      1  0.5146210000000  0.4585930000000  0.4836870000000 1.0
C      1  0.4685080000000  0.4556870000000  0.4682090000000 1.0
C      1  0.4687040000000  0.4568600000000  0.5130550000000 1.0
C      1  0.4983520000000  0.4530590000000  0.5304730000000 1.0
C      1  0.5244780000000  0.4591130000000  0.5127860000000 1.0
C      1  0.5811680000000  0.5795830000000  0.4869650000000 1.0
C      1  0.5133180000000  0.5801280000000  0.4184940000000 1.0
C      1  0.4268360000000  0.5819630000000  0.4614950000000 1.0
C      1  0.4441650000000  0.5794560000000  0.5564450000000 1.0
C      1  0.5382450000000  0.5792580000000  0.5717530000000 1.0
C      1  0.4717050000000  0.4608490000000  0.4381570000000 1.0
C      1  0.4305820000000  0.4615190000000  0.5061730000000 1.0
C      1  0.4867490000000  0.4631610000000  0.5661010000000 1.0
C      1  0.5694500000000  0.4604110000000  0.5402350000000 1.0
C      1  0.5464040000000  0.4645000000000  0.4602030000000 1.0
C      1  0.5470050000000  0.4534200000000  0.4107250000000 1.0
C      1  0.4258720000000  0.4558820000000  0.4261500000000 1.0
C      1  0.4067100000000  0.4559500000000  0.5480120000000 1.0
C      1  0.5184210000000  0.4542200000000  0.6015600000000 1.0
C      1  0.6075880000000  0.4553060000000  0.5173000000000 1.0
C      1  0.5485230000000  0.4898930000000  0.5146500000000 1.0
C      1  0.5139800000000  0.5023590000000  0.4790900000000 1.0
C      1  0.4684200000000  0.4997540000000  0.4623240000000 1.0
C      1  0.4533640000000  0.4978980000000  0.5161430000000 1.0
C      1  0.5003350000000  0.4969540000000  0.5289240000000 1.0
C      1  0.5350020000000  0.6108000000000  0.5323020000000 1.0
C      1  0.5427320000000  0.6106900000000  0.4775010000000 1.0
C      1  0.4927350000000  0.6112740000000  0.4525140000000 1.0
C      1  0.4593680000000  0.6034510000000  0.4917410000000 1.0
C      1  0.4808390000000  0.6097790000000  0.5409470000000 1.0
C      1  0.5090770000000  0.4885590000000  0.3711920000000 1.0
C      1  0.3785520000000  0.4918610000000  0.4514160000000 1.0
C      1  0.4194790000000  0.4899820000000  0.6010190000000 1.0
C      1  0.5717970000000  0.4918080000000  0.6111680000000 1.0
C      1  0.6256330000000  0.4923070000000  0.4673720000000 1.0
C      1  0.5773100000000  0.4333780000000  0.5408420000000 1.0
C      1  0.5550020000000  0.4378450000000  0.4512140000000 1.0
C      1  0.4653100000000  0.4350090000000  0.4259560000000 1.0
C      1  0.4177600000000  0.4355650000000  0.5103010000000 1.0
C      1  0.4870780000000  0.4358130000000  0.5762980000000 1.0
C      1  0.4104380000000  0.4629030000000  0.5762040000000 1.0
C      1  0.5450350000000  0.4642480000000  0.6079070000000 1.0
C      1  0.6177570000000  0.4642240000000  0.4917830000000 1.0
C      1  0.5282960000000  0.4615060000000  0.3902640000000 1.0
C      1  0.3995880000000  0.4640800000000  0.4369320000000 1.0
C      1  0.4489100000000  0.4776350000000  0.4246340000000 1.0
C      1  0.4112940000000  0.4775070000000  0.5248140000000 1.0
C      1  0.4986820000000  0.4765970000000  0.5923160000000 1.0
C      1  0.5919930000000  0.4776920000000  0.5343340000000 1.0
C      1  0.5545440000000  0.4768780000000  0.4299130000000 1.0
C      1  0.4897080000000  0.4188150000000  0.4261710000000 1.0
C      1  0.4209260000000  0.4173850000000  0.4875050000000 1.0
C      1  0.4662620000000  0.4191580000000  0.5653810000000 1.0
C      1  0.5535430000000  0.4191300000000  0.5485800000000 1.0
C      1  0.5645620000000  0.4210330000000  0.4716660000000 1.0
C      1  0.5369880000000  0.3961570000000  0.4440810000000 1.0
C      1  0.4631120000000  0.4046610000000  0.4581680000000 1.0
C      1  0.4488430000000  0.4058020000000  0.5199350000000 1.0
C      1  0.5051160000000  0.4050670000000  0.5490650000000 1.0
C      1  0.5691140000000  0.3942970000000  0.5111380000000 1.0
C      1  0.5002390000000  0.5209500000000  0.4344240000000 1.0
C      1  0.4347730000000  0.5230560000000  0.4793550000000 1.0
C      1  0.4632230000000  0.5192460000000  0.5536010000000 1.0
C      1  0.5386600000000  0.5185490000000  0.5537460000000 1.0
C      1  0.5613110000000  0.5207280000000  0.4807990000000 1.0
C      1  0.4765970000000  0.4264320000000  0.4770320000000 1.0
C      1  0.4714270000000  0.4249580000000  0.5084110000000 1.0
C      1  0.4989580000000  0.4217910000000  0.5229960000000 1.0
C      1  0.5409310000000  0.4335780000000  0.5135520000000 1.0
C      1  0.5077630000000  0.4297540000000  0.4743900000000 1.0
C      1  0.4941000000000  0.5253680000000  0.5850240000000 1.0
C      1  0.5777230000000  0.5261750000000  0.5327460000000 1.0
C      1  0.5540420000000  0.5259880000000  0.4370900000000 1.0
C      1  0.4564050000000  0.5275290000000  0.4268010000000 1.0
C      1  0.4161930000000  0.5270120000000  0.5197330000000 1.0
C      1  0.4472970000000  0.4740870000000  0.6116710000000 1.0
C      1  0.5906440000000  0.4779560000000  0.5867170000000 1.0
C      1  0.6052460000000  0.4747820000000  0.4433780000000 1.0
C      1  0.4791540000000  0.4738020000000  0.3835250000000 1.0
C      1  0.3764470000000  0.4769660000000  0.4825170000000 1.0
C      1  0.5234380000000  0.6299280000000  0.4875340000000 1.0
C      1  0.4968860000000  0.6303750000000  0.4741820000000 1.0
C      1  0.4763310000000  0.6286550000000  0.4953190000000 1.0
C      1  0.4901480000000  0.6293370000000  0.5216170000000 1.0
C      1  0.5192430000000  0.6298080000000  0.5168180000000 1.0
C      1  0.4172230000000  0.5700320000000  0.4869510000000 1.0
C      1  0.4641730000000  0.5669720000000  0.5734640000000 1.0
C      1  0.5596290000000  0.5672360000000  0.5561300000000 1.0
C      1  0.5743050000000  0.5673530000000  0.4615070000000 1.0
C      1  0.4863680000000  0.5692040000000  0.4156860000000 1.0
C      1  0.5191620000000  0.4167530000000  0.5003690000000 1.0
C      1  0.4771480000000  0.5771840000000  0.4907690000000 1.0
C      1  0.4857170000000  0.4700800000000  0.4893340000000 1.0
C      1  0.4965200000000  0.5050410000000  0.5016460000000 1.0
END
