TITL C-3578197-9521-687 6.96690337849358e-08 125000 -190.117230339062 0 0 31 (C1) n - 1
REM
REM in /home/bkarasulu/work/CARBON/AIRSS/Generating-Clusters/EDIP-Nigel-Params/with-SteepDescent/Higher-Symm/SD-CG/HFTN-CG
REM
REM
REM
REM
REM
REM ./C.cell (12c818d87b63d06a65506943cc24bca4)
REM
REM compiler GCC version 9.2.1 20190827 (Red Hat 9.2.1-1)
REM options -cpp -mtune=generic -march=x86-64 -g -O0 -fpre-include=/usr/include/finclude/math-vector-fortran.h
REM seed 888342946 -2139086248 1344952337 -1699720138 2129709184 -708353334 1084677331 180293076 1818879668 1324602392 994453442 134241947 -1949603716 1300841981 249359080 -508470578 -885310893 693391334 1677479142 -554745442 -823830943 -1385277327 1805719017 209340775 1846530624 1769183244 122112989 890264000 877549176 -1534706057 -427408147 697400117 761980039
REM
CELL 1.54180   50.00000   50.00000   50.00000   90.00000   90.00000   90.00000
LATT -1
SFAC C  
C      1  0.4590820000000  0.5070990000000  0.4722760000000 1.0
C      1  0.4665970000000  0.5365330000000  0.4778070000000 1.0
C      1  0.4966350000000  0.5372150000000  0.4795230000000 1.0
C      1  0.5323690000000  0.5058030000000  0.4796810000000 1.0
C      1  0.5394130000000  0.4766730000000  0.4714800000000 1.0
C      1  0.5168380000000  0.4556780000000  0.4736930000000 1.0
C      1  0.4890100000000  0.4651090000000  0.4678270000000 1.0
C      1  0.5066380000000  0.5563730000000  0.4999100000000 1.0
C      1  0.5496990000000  0.5270770000000  0.4951770000000 1.0
C      1  0.5530660000000  0.4786170000000  0.4995700000000 1.0
C      1  0.5175980000000  0.4457000000000  0.5026470000000 1.0
C      1  0.4689940000000  0.4517710000000  0.4964440000000 1.0
C      1  0.4435640000000  0.4978900000000  0.4974900000000 1.0
C      1  0.4591290000000  0.5437000000000  0.5062150000000 1.0
C      1  0.4852490000000  0.5515470000000  0.5202310000000 1.0
C      1  0.5336360000000  0.5469860000000  0.5121030000000 1.0
C      1  0.5588320000000  0.5056760000000  0.5138650000000 1.0
C      1  0.5351280000000  0.4639890000000  0.5178470000000 1.0
C      1  0.4904260000000  0.4448340000000  0.5155040000000 1.0
C      1  0.4520140000000  0.4713920000000  0.5103960000000 1.0
C      1  0.4467160000000  0.5192080000000  0.5187850000000 1.0
C      1  0.4967490000000  0.5286890000000  0.5363290000000 1.0
C      1  0.5268300000000  0.5329500000000  0.5380640000000 1.0
C      1  0.5409510000000  0.5066840000000  0.5382940000000 1.0
C      1  0.5198660000000  0.4840280000000  0.5343710000000 1.0
C      1  0.4898400000000  0.4636740000000  0.5384160000000 1.0
C      1  0.4644920000000  0.4780910000000  0.5364820000000 1.0
C      1  0.4646850000000  0.5075430000000  0.5393490000000 1.0
C      1  0.4860170000000  0.4938770000000  0.4688270000000 1.0
C      1  0.4974010000000  0.5017300000000  0.5191670000000 1.0
C      1  0.5034800000000  0.5089910000000  0.4875680000000 1.0
END
