TITL C-3577083-591-478 -9.45445549566365e-07 125000 -958.264770192092 0 0 156 (C1) n - 1
REM
REM in /home/bkarasulu/work/CARBON/AIRSS/Generating-Clusters/EDIP-Nigel-Params/with-SteepDescent/Higher-Symm/SD-CG/HFTN-CG
REM
REM
REM
REM
REM
REM ./C.cell (12c818d87b63d06a65506943cc24bca4)
REM
REM compiler GCC version 9.2.1 20190827 (Red Hat 9.2.1-1)
REM options -cpp -mtune=generic -march=x86-64 -g -O0 -fpre-include=/usr/include/finclude/math-vector-fortran.h
REM seed 587275312 58588229 872612127 1010539296 -935333163 1832838303 1457807984 -1941102356 953115203 -1819439396 -330197791 832043868 817971703 -931324312 -1987182463 -232286609 1448720439 -1893085274 -32300444 172665361 -286680010 156732508 1019240068 -841629826 2010340356 259002117 443135928 -1919110379 1673861742 -887562140 72478117 -1013757133 580664979
REM
CELL 1.54180   50.00000   50.00000   50.00000   90.00000   90.00000   90.00000
LATT -1
SFAC C  
C      1  0.5754780000000  0.5352720000000  0.4329520000000 1.0
C      1  0.5707470000000  0.5635980000000  0.4369490000000 1.0
C      1  0.5444420000000  0.5723800000000  0.4299820000000 1.0
C      1  0.4652480000000  0.5746110000000  0.4333190000000 1.0
C      1  0.4367680000000  0.5702160000000  0.4367430000000 1.0
C      1  0.4275800000000  0.5440160000000  0.4299890000000 1.0
C      1  0.4252630000000  0.4651280000000  0.4333350000000 1.0
C      1  0.4296410000000  0.4366450000000  0.4366840000000 1.0
C      1  0.4558930000000  0.4275910000000  0.4298950000000 1.0
C      1  0.5350990000000  0.4253130000000  0.4330360000000 1.0
C      1  0.5636050000000  0.4293790000000  0.4364830000000 1.0
C      1  0.5732420000000  0.4554540000000  0.4299230000000 1.0
C      1  0.5974530000000  0.5497480000000  0.4889630000000 1.0
C      1  0.5823880000000  0.5921600000000  0.5008750000000 1.0
C      1  0.5188700000000  0.6044340000000  0.4916150000000 1.0
C      1  0.4506340000000  0.5980300000000  0.4887780000000 1.0
C      1  0.4101450000000  0.5844640000000  0.5012970000000 1.0
C      1  0.3950790000000  0.5188500000000  0.4914590000000 1.0
C      1  0.4022020000000  0.4506920000000  0.4890340000000 1.0
C      1  0.4156420000000  0.4101630000000  0.5015360000000 1.0
C      1  0.4809470000000  0.3947720000000  0.4911260000000 1.0
C      1  0.5491880000000  0.3996790000000  0.4887350000000 1.0
C      1  0.5892660000000  0.4147840000000  0.5009620000000 1.0
C      1  0.6049190000000  0.4808160000000  0.4915960000000 1.0
C      1  0.4007270000000  0.5036860000000  0.5389510000000 1.0
C      1  0.3982510000000  0.4474060000000  0.5458220000000 1.0
C      1  0.4415610000000  0.4215890000000  0.5431680000000 1.0
C      1  0.4962670000000  0.4005080000000  0.5385180000000 1.0
C      1  0.5521460000000  0.3977190000000  0.5455180000000 1.0
C      1  0.5807460000000  0.4396500000000  0.5442690000000 1.0
C      1  0.5988620000000  0.4966220000000  0.5389000000000 1.0
C      1  0.5971190000000  0.5530500000000  0.5432980000000 1.0
C      1  0.5607280000000  0.5779890000000  0.5417020000000 1.0
C      1  0.5035360000000  0.5996860000000  0.5386680000000 1.0
C      1  0.4471040000000  0.6021680000000  0.5456890000000 1.0
C      1  0.4213720000000  0.5588310000000  0.5431380000000 1.0
C      1  0.4119230000000  0.4945420000000  0.4890190000000 1.0
C      1  0.4348000000000  0.4510950000000  0.4933810000000 1.0
C      1  0.4436030000000  0.4218980000000  0.4953120000000 1.0
C      1  0.5055050000000  0.4111880000000  0.4883810000000 1.0
C      1  0.5490060000000  0.4348600000000  0.4919750000000 1.0
C      1  0.5782630000000  0.4430310000000  0.4953660000000 1.0
C      1  0.5882550000000  0.5052310000000  0.4883120000000 1.0
C      1  0.5656420000000  0.5487650000000  0.4937410000000 1.0
C      1  0.5563900000000  0.5777010000000  0.4951630000000 1.0
C      1  0.4944090000000  0.5880630000000  0.4889470000000 1.0
C      1  0.4511110000000  0.5652240000000  0.4932270000000 1.0
C      1  0.4218680000000  0.5564720000000  0.4952760000000 1.0
C      1  0.5822730000000  0.5363730000000  0.5633610000000 1.0
C      1  0.5534150000000  0.5686820000000  0.5674680000000 1.0
C      1  0.5098260000000  0.5854540000000  0.5621210000000 1.0
C      1  0.4634920000000  0.5846490000000  0.5628500000000 1.0
C      1  0.4326870000000  0.5505970000000  0.5674100000000 1.0
C      1  0.4156660000000  0.5110440000000  0.5619550000000 1.0
C      1  0.4157490000000  0.4640060000000  0.5627610000000 1.0
C      1  0.4498350000000  0.4330880000000  0.5673020000000 1.0
C      1  0.4892030000000  0.4156780000000  0.5614600000000 1.0
C      1  0.5356700000000  0.4150180000000  0.5628160000000 1.0
C      1  0.5672970000000  0.4478750000000  0.5672980000000 1.0
C      1  0.5828000000000  0.4908270000000  0.5616330000000 1.0
C      1  0.5400140000000  0.5762940000000  0.5208570000000 1.0
C      1  0.4824440000000  0.5902330000000  0.5190730000000 1.0
C      1  0.4599010000000  0.5676510000000  0.5225210000000 1.0
C      1  0.4226810000000  0.5396440000000  0.5209270000000 1.0
C      1  0.4101210000000  0.4826760000000  0.5191710000000 1.0
C      1  0.4328080000000  0.4600990000000  0.5226420000000 1.0
C      1  0.4606340000000  0.4227470000000  0.5208410000000 1.0
C      1  0.5172820000000  0.4090960000000  0.5183200000000 1.0
C      1  0.5394660000000  0.4312050000000  0.5206650000000 1.0
C      1  0.5780910000000  0.4589390000000  0.5217630000000 1.0
C      1  0.5899530000000  0.5167780000000  0.5182870000000 1.0
C      1  0.5667580000000  0.5383660000000  0.5229440000000 1.0
C      1  0.3998890000000  0.4221570000000  0.4786920000000 1.0
C      1  0.4601580000000  0.4064170000000  0.4744420000000 1.0
C      1  0.5249630000000  0.3956050000000  0.4709450000000 1.0
C      1  0.5777580000000  0.3989840000000  0.4782130000000 1.0
C      1  0.5937370000000  0.4598490000000  0.4748960000000 1.0
C      1  0.6035300000000  0.5255310000000  0.4714510000000 1.0
C      1  0.5993490000000  0.5786650000000  0.4795350000000 1.0
C      1  0.5392730000000  0.5928560000000  0.4746590000000 1.0
C      1  0.4748690000000  0.6035220000000  0.4713660000000 1.0
C      1  0.4221060000000  0.6001820000000  0.4784300000000 1.0
C      1  0.4063900000000  0.5397160000000  0.4746120000000 1.0
C      1  0.3965660000000  0.4748130000000  0.4715890000000 1.0
C      1  0.4829250000000  0.5519640000000  0.4272350000000 1.0
C      1  0.4696280000000  0.5272980000000  0.4261840000000 1.0
C      1  0.4480620000000  0.5114890000000  0.4368300000000 1.0
C      1  0.4479440000000  0.4827450000000  0.4272230000000 1.0
C      1  0.4726140000000  0.4694460000000  0.4258170000000 1.0
C      1  0.4886680000000  0.4479730000000  0.4362500000000 1.0
C      1  0.5175550000000  0.4480840000000  0.4269240000000 1.0
C      1  0.5309220000000  0.4727840000000  0.4255050000000 1.0
C      1  0.5529650000000  0.4885520000000  0.4353520000000 1.0
C      1  0.5527990000000  0.5176690000000  0.4266620000000 1.0
C      1  0.5280990000000  0.5310270000000  0.4256580000000 1.0
C      1  0.5117220000000  0.5520040000000  0.4367570000000 1.0
C      1  0.4512370000000  0.5235880000000  0.5207860000000 1.0
C      1  0.4599440000000  0.4973210000000  0.5250330000000 1.0
C      1  0.4585100000000  0.4704630000000  0.5318310000000 1.0
C      1  0.4770110000000  0.4513240000000  0.5205180000000 1.0
C      1  0.5033760000000  0.4594770000000  0.5253940000000 1.0
C      1  0.5301400000000  0.4561630000000  0.5320870000000 1.0
C      1  0.5501380000000  0.4746950000000  0.5229720000000 1.0
C      1  0.5398350000000  0.5006480000000  0.5227840000000 1.0
C      1  0.5412180000000  0.5271030000000  0.5303680000000 1.0
C      1  0.5234050000000  0.5478210000000  0.5208630000000 1.0
C      1  0.4970080000000  0.5405240000000  0.5259200000000 1.0
C      1  0.4701330000000  0.5421770000000  0.5323080000000 1.0
C      1  0.5841580000000  0.4712190000000  0.4502310000000 1.0
C      1  0.5988050000000  0.5254040000000  0.4441160000000 1.0
C      1  0.5878350000000  0.5788640000000  0.4536730000000 1.0
C      1  0.5283500000000  0.5843860000000  0.4494370000000 1.0
C      1  0.4751140000000  0.5980650000000  0.4441850000000 1.0
C      1  0.4214410000000  0.5873550000000  0.4532900000000 1.0
C      1  0.4159020000000  0.5283150000000  0.4499430000000 1.0
C      1  0.4018930000000  0.4750000000000  0.4443810000000 1.0
C      1  0.4126450000000  0.4214150000000  0.4535000000000 1.0
C      1  0.4716840000000  0.4161010000000  0.4498870000000 1.0
C      1  0.5252070000000  0.4018920000000  0.4439530000000 1.0
C      1  0.5784810000000  0.4120410000000  0.4531950000000 1.0
C      1  0.5304600000000  0.4541460000000  0.4784710000000 1.0
C      1  0.5387970000000  0.4812790000000  0.4755380000000 1.0
C      1  0.5573780000000  0.5031550000000  0.4770220000000 1.0
C      1  0.5467760000000  0.5309150000000  0.4783680000000 1.0
C      1  0.5193900000000  0.5392120000000  0.4774280000000 1.0
C      1  0.4969600000000  0.5571980000000  0.4782480000000 1.0
C      1  0.4695030000000  0.5460500000000  0.4792300000000 1.0
C      1  0.4609420000000  0.5188930000000  0.4776210000000 1.0
C      1  0.4427550000000  0.4967440000000  0.4782580000000 1.0
C      1  0.4538530000000  0.4692430000000  0.4790630000000 1.0
C      1  0.4809380000000  0.4604150000000  0.4772040000000 1.0
C      1  0.5032410000000  0.4424130000000  0.4777040000000 1.0
C      1  0.5066630000000  0.5593810000000  0.5725610000000 1.0
C      1  0.4756110000000  0.5596420000000  0.5725400000000 1.0
C      1  0.4559080000000  0.5354470000000  0.5738780000000 1.0
C      1  0.4417270000000  0.5068130000000  0.5722710000000 1.0
C      1  0.4409130000000  0.4760910000000  0.5719620000000 1.0
C      1  0.4649350000000  0.4563580000000  0.5735990000000 1.0
C      1  0.4934430000000  0.4417200000000  0.5719360000000 1.0
C      1  0.5242240000000  0.4402410000000  0.5727790000000 1.0
C      1  0.5446600000000  0.4639840000000  0.5734230000000 1.0
C      1  0.5566090000000  0.4937400000000  0.5726300000000 1.0
C      1  0.5566600000000  0.5250190000000  0.5718370000000 1.0
C      1  0.5355830000000  0.5478030000000  0.5756950000000 1.0
C      1  0.4742580000000  0.3966410000000  0.5199790000000 1.0
C      1  0.5401580000000  0.3874120000000  0.5189800000000 1.0
C      1  0.5733110000000  0.4146080000000  0.5301110000000 1.0
C      1  0.6031810000000  0.4741890000000  0.5206320000000 1.0
C      1  0.6100910000000  0.5412430000000  0.5177010000000 1.0
C      1  0.5860380000000  0.5870200000000  0.5299200000000 1.0
C      1  0.5258340000000  0.6022290000000  0.5203230000000 1.0
C      1  0.4593940000000  0.6114490000000  0.5191700000000 1.0
C      1  0.4258750000000  0.5850860000000  0.5304000000000 1.0
C      1  0.3967640000000  0.5256310000000  0.5202870000000 1.0
C      1  0.3889400000000  0.4596100000000  0.5193340000000 1.0
C      1  0.4152710000000  0.4260940000000  0.5305650000000 1.0
END
