TITL C-3578201-9217-314 -1.27230770303687e-07 125000 -351.131943230401 0 0 60 (C1) n - 1
REM
REM in /home/bkarasulu/work/CARBON/AIRSS/Generating-Clusters/EDIP-Nigel-Params/with-SteepDescent/Higher-Symm/SD-CG/HFTN-CG
REM
REM
REM
REM
REM
REM ./C.cell (12c818d87b63d06a65506943cc24bca4)
REM
REM compiler GCC version 9.2.1 20190827 (Red Hat 9.2.1-1)
REM options -cpp -mtune=generic -march=x86-64 -g -O0 -fpre-include=/usr/include/finclude/math-vector-fortran.h
REM seed 2001773380 1285392402 665473025 -1160044422 -1204694394 -11710742 2002592568 1567864674 80626464 -550071118 -408293033 -250534492 843618759 -908814583 -17191091 1175743716 -2062809008 -1329543282 864174631 -902431900 -678415022 47694004 677511231 -110920639 -1703432234 39805125 1704096822 515895476 -1568028644 1289887331 2080876643 2069556853 1748118348
REM
CELL 1.54180   50.00000   50.00000   50.00000   90.00000   90.00000   90.00000
LATT -1
SFAC C  
C      1  0.5547100000000  0.4929900000000  0.5287800000000 1.0
C      1  0.5424260000000  0.5401830000000  0.5266820000000 1.0
C      1  0.4958360000000  0.5570730000000  0.5267840000000 1.0
C      1  0.4526930000000  0.5294320000000  0.5272760000000 1.0
C      1  0.4502030000000  0.4776960000000  0.5275810000000 1.0
C      1  0.4802400000000  0.4447500000000  0.5266010000000 1.0
C      1  0.5293700000000  0.4519470000000  0.5268110000000 1.0
C      1  0.5181880000000  0.4664290000000  0.5494060000000 1.0
C      1  0.5365900000000  0.5000930000000  0.5513970000000 1.0
C      1  0.5288390000000  0.5287430000000  0.5506350000000 1.0
C      1  0.5003070000000  0.5402460000000  0.5511170000000 1.0
C      1  0.4676110000000  0.5205900000000  0.5511230000000 1.0
C      1  0.4690170000000  0.4818060000000  0.5513060000000 1.0
C      1  0.4896110000000  0.4593870000000  0.5512390000000 1.0
C      1  0.4620640000000  0.4628390000000  0.4467560000000 1.0
C      1  0.5072370000000  0.4480810000000  0.4458910000000 1.0
C      1  0.5494360000000  0.4703710000000  0.4467750000000 1.0
C      1  0.5522480000000  0.5172380000000  0.4467030000000 1.0
C      1  0.5179050000000  0.5501670000000  0.4455400000000 1.0
C      1  0.4709670000000  0.5449130000000  0.4461050000000 1.0
C      1  0.4435300000000  0.5060430000000  0.4470270000000 1.0
C      1  0.4851790000000  0.4128690000000  0.4947450000000 1.0
C      1  0.5582600000000  0.4345420000000  0.4970270000000 1.0
C      1  0.5883940000000  0.5026250000000  0.4996800000000 1.0
C      1  0.5514690000000  0.5711680000000  0.4957290000000 1.0
C      1  0.4788800000000  0.5859110000000  0.4962220000000 1.0
C      1  0.4196280000000  0.5362740000000  0.4973330000000 1.0
C      1  0.4209760000000  0.4595190000000  0.4983510000000 1.0
C      1  0.4932070000000  0.5598070000000  0.4542080000000 1.0
C      1  0.4477590000000  0.5324560000000  0.4551680000000 1.0
C      1  0.4414930000000  0.4796090000000  0.4556740000000 1.0
C      1  0.4808360000000  0.4435730000000  0.4540710000000 1.0
C      1  0.5337020000000  0.4487160000000  0.4547140000000 1.0
C      1  0.5626300000000  0.4930540000000  0.4562010000000 1.0
C      1  0.5433750000000  0.5425280000000  0.4541900000000 1.0
C      1  0.5661530000000  0.4920080000000  0.4856700000000 1.0
C      1  0.5474740000000  0.5460760000000  0.4830580000000 1.0
C      1  0.4938310000000  0.5655710000000  0.4832340000000 1.0
C      1  0.4447160000000  0.5365780000000  0.4841530000000 1.0
C      1  0.4372160000000  0.4784500000000  0.4849390000000 1.0
C      1  0.4783010000000  0.4376590000000  0.4828040000000 1.0
C      1  0.5349640000000  0.4435920000000  0.4836250000000 1.0
C      1  0.4251970000000  0.5340350000000  0.5240560000000 1.0
C      1  0.4270410000000  0.4617330000000  0.5249550000000 1.0
C      1  0.4869060000000  0.4174350000000  0.5217500000000 1.0
C      1  0.5548090000000  0.4398170000000  0.5237510000000 1.0
C      1  0.5813540000000  0.5027430000000  0.5261840000000 1.0
C      1  0.5472390000000  0.5680260000000  0.5227130000000 1.0
C      1  0.4808480000000  0.5807000000000  0.5230890000000 1.0
C      1  0.4610570000000  0.4858680000000  0.5011480000000 1.0
C      1  0.4857020000000  0.4606070000000  0.5009610000000 1.0
C      1  0.5208160000000  0.4640600000000  0.5008700000000 1.0
C      1  0.5409930000000  0.4945240000000  0.5017720000000 1.0
C      1  0.5305440000000  0.5282610000000  0.5011340000000 1.0
C      1  0.4967600000000  0.5416010000000  0.5012640000000 1.0
C      1  0.4658300000000  0.5238180000000  0.5013390000000 1.0
C      1  0.5003710000000  0.4998700000000  0.4616230000000 1.0
C      1  0.4998120000000  0.5001170000000  0.4873380000000 1.0
C      1  0.4996850000000  0.5000510000000  0.5149130000000 1.0
C      1  0.4939560000000  0.5026800000000  0.5429110000000 1.0
END
