TITL C-3578201-9217-431 -1.82807620641987e-06 125000 -933.662459445178 0 0 150 (C1) n - 1
REM
REM in /home/bkarasulu/work/CARBON/AIRSS/Generating-Clusters/EDIP-Nigel-Params/with-SteepDescent/Higher-Symm/SD-CG/HFTN-CG
REM
REM
REM
REM
REM
REM ./C.cell (12c818d87b63d06a65506943cc24bca4)
REM
REM compiler GCC version 9.2.1 20190827 (Red Hat 9.2.1-1)
REM options -cpp -mtune=generic -march=x86-64 -g -O0 -fpre-include=/usr/include/finclude/math-vector-fortran.h
REM seed 921807801 -150895409 664926157 -1452375086 -2085243436 -792064400 95609323 -1607484075 1774774424 -711340313 -623996842 1962348389 -1402348026 -1432910100 -1590054984 1544371851 1822161880 1470965494 784169791 -1705784252 -1783214039 -1084015132 1801556088 592061451 -302641561 1884748526 389186617 998016485 -584571000 -997551140 -1442738634 -419965114 1088727173
REM
CELL 1.54180   50.00000   50.00000   50.00000   90.00000   90.00000   90.00000
LATT -1
SFAC C  
C      1  0.5432360000000  0.5287800000000  0.5707890000000 1.0
C      1  0.4671260000000  0.4772370000000  0.4404510000000 1.0
C      1  0.5312960000000  0.6030150000000  0.5321750000000 1.0
C      1  0.4648410000000  0.4040530000000  0.4699730000000 1.0
C      1  0.5234990000000  0.4199750000000  0.4408560000000 1.0
C      1  0.4739710000000  0.5825680000000  0.5572240000000 1.0
C      1  0.5618110000000  0.4883300000000  0.4850340000000 1.0
C      1  0.4272680000000  0.5048720000000  0.5169750000000 1.0
C      1  0.3903630000000  0.5070630000000  0.5058130000000 1.0
C      1  0.6055180000000  0.4895360000000  0.4925760000000 1.0
C      1  0.5122100000000  0.5190590000000  0.4443450000000 1.0
C      1  0.4867730000000  0.4826000000000  0.5537190000000 1.0
C      1  0.4846920000000  0.5006830000000  0.4730080000000 1.0
C      1  0.5179050000000  0.5003920000000  0.5360110000000 1.0
C      1  0.4036150000000  0.4726660000000  0.4787820000000 1.0
C      1  0.6033910000000  0.5295180000000  0.5188700000000 1.0
C      1  0.5834010000000  0.4930580000000  0.4318680000000 1.0
C      1  0.4171450000000  0.5073040000000  0.5696180000000 1.0
C      1  0.5682130000000  0.5115580000000  0.4174850000000 1.0
C      1  0.4331930000000  0.4888550000000  0.5834600000000 1.0
C      1  0.5832240000000  0.4699620000000  0.4765670000000 1.0
C      1  0.4123970000000  0.5313380000000  0.5259210000000 1.0
C      1  0.4907720000000  0.5689660000000  0.5372480000000 1.0
C      1  0.5036100000000  0.4331060000000  0.4580130000000 1.0
C      1  0.4970160000000  0.5404320000000  0.5388920000000 1.0
C      1  0.5029550000000  0.4619210000000  0.4618900000000 1.0
C      1  0.4363190000000  0.4841810000000  0.4165030000000 1.0
C      1  0.5624840000000  0.5157220000000  0.5883940000000 1.0
C      1  0.5499250000000  0.4290110000000  0.4510010000000 1.0
C      1  0.4468800000000  0.5733700000000  0.5497450000000 1.0
C      1  0.4380380000000  0.4282490000000  0.4845740000000 1.0
C      1  0.5678600000000  0.5663650000000  0.5094710000000 1.0
C      1  0.5062550000000  0.4767610000000  0.4109060000000 1.0
C      1  0.4950260000000  0.5254190000000  0.5857390000000 1.0
C      1  0.4405850000000  0.4657590000000  0.4504980000000 1.0
C      1  0.5478140000000  0.5356580000000  0.5410980000000 1.0
C      1  0.5665530000000  0.5193180000000  0.5219610000000 1.0
C      1  0.4332640000000  0.4770230000000  0.4784850000000 1.0
C      1  0.4849620000000  0.5188670000000  0.5566580000000 1.0
C      1  0.5095530000000  0.4852590000000  0.4413480000000 1.0
C      1  0.4381750000000  0.5067960000000  0.4885450000000 1.0
C      1  0.5568020000000  0.4902920000000  0.5139330000000 1.0
C      1  0.4438160000000  0.5736410000000  0.5214270000000 1.0
C      1  0.5532550000000  0.4278800000000  0.4792570000000 1.0
C      1  0.5780280000000  0.4430430000000  0.5197150000000 1.0
C      1  0.4223180000000  0.5544640000000  0.4812620000000 1.0
C      1  0.5153990000000  0.5019000000000  0.4872250000000 1.0
C      1  0.4772680000000  0.5063060000000  0.5195040000000 1.0
C      1  0.4647590000000  0.5777500000000  0.4809910000000 1.0
C      1  0.5355340000000  0.4208510000000  0.5209600000000 1.0
C      1  0.5470580000000  0.5894570000000  0.4856670000000 1.0
C      1  0.4558580000000  0.4075180000000  0.5188440000000 1.0
C      1  0.5665280000000  0.5390580000000  0.4965170000000 1.0
C      1  0.4400790000000  0.4562990000000  0.5009450000000 1.0
C      1  0.5544840000000  0.4903610000000  0.6005890000000 1.0
C      1  0.4471680000000  0.5089810000000  0.4007730000000 1.0
C      1  0.5521070000000  0.4415050000000  0.5597650000000 1.0
C      1  0.4506000000000  0.5580290000000  0.4411150000000 1.0
C      1  0.4725160000000  0.4588780000000  0.5882580000000 1.0
C      1  0.5300070000000  0.5417340000000  0.4108330000000 1.0
C      1  0.4746330000000  0.4075340000000  0.4966620000000 1.0
C      1  0.5263720000000  0.6014370000000  0.5046790000000 1.0
C      1  0.5210540000000  0.5291260000000  0.5271420000000 1.0
C      1  0.4835840000000  0.4715550000000  0.4806010000000 1.0
C      1  0.5546950000000  0.5637350000000  0.5371980000000 1.0
C      1  0.4394570000000  0.4364440000000  0.4536400000000 1.0
C      1  0.5408090000000  0.4720320000000  0.3941010000000 1.0
C      1  0.4619980000000  0.5293750000000  0.6049050000000 1.0
C      1  0.4669700000000  0.5370400000000  0.4547780000000 1.0
C      1  0.5331620000000  0.4598410000000  0.5461250000000 1.0
C      1  0.5192840000000  0.5297210000000  0.4972100000000 1.0
C      1  0.4888390000000  0.4715350000000  0.5096130000000 1.0
C      1  0.5859300000000  0.5077730000000  0.5599070000000 1.0
C      1  0.4117390000000  0.4950330000000  0.4349460000000 1.0
C      1  0.4588360000000  0.4751790000000  0.5453510000000 1.0
C      1  0.5403070000000  0.5217230000000  0.4545910000000 1.0
C      1  0.5483040000000  0.4997270000000  0.3987690000000 1.0
C      1  0.4554400000000  0.5016890000000  0.5983730000000 1.0
C      1  0.5598230000000  0.4256200000000  0.5359790000000 1.0
C      1  0.4410740000000  0.5718630000000  0.4654970000000 1.0
C      1  0.4779800000000  0.4840280000000  0.6019090000000 1.0
C      1  0.5257820000000  0.5177150000000  0.3940020000000 1.0
C      1  0.4410080000000  0.5491850000000  0.5640820000000 1.0
C      1  0.5582050000000  0.4522440000000  0.4364530000000 1.0
C      1  0.4759500000000  0.5179700000000  0.4023850000000 1.0
C      1  0.5271730000000  0.4827860000000  0.5889850000000 1.0
C      1  0.4513630000000  0.5018970000000  0.5349830000000 1.0
C      1  0.5388580000000  0.4933020000000  0.4676200000000 1.0
C      1  0.5203990000000  0.5431290000000  0.5826700000000 1.0
C      1  0.4804580000000  0.4620450000000  0.4173220000000 1.0
C      1  0.4794530000000  0.5714520000000  0.5836870000000 1.0
C      1  0.5212280000000  0.4303860000000  0.4136360000000 1.0
C      1  0.4999040000000  0.5022800000000  0.3954420000000 1.0
C      1  0.5030940000000  0.4989160000000  0.5977480000000 1.0
C      1  0.6058420000000  0.5086010000000  0.5383190000000 1.0
C      1  0.3921900000000  0.4914600000000  0.4590620000000 1.0
C      1  0.4314590000000  0.5321720000000  0.4109680000000 1.0
C      1  0.5714000000000  0.4686600000000  0.5887010000000 1.0
C      1  0.5417900000000  0.4508750000000  0.4126680000000 1.0
C      1  0.4590640000000  0.5509680000000  0.5868080000000 1.0
C      1  0.4626040000000  0.5898340000000  0.5064060000000 1.0
C      1  0.5368220000000  0.4101210000000  0.4946960000000 1.0
C      1  0.5374520000000  0.4866100000000  0.5583510000000 1.0
C      1  0.4606280000000  0.5098060000000  0.4421430000000 1.0
C      1  0.5777580000000  0.4719800000000  0.5293170000000 1.0
C      1  0.4197690000000  0.5262360000000  0.4712720000000 1.0
C      1  0.4926380000000  0.4259040000000  0.5486110000000 1.0
C      1  0.5082630000000  0.5708700000000  0.4548030000000 1.0
C      1  0.5373500000000  0.5681490000000  0.4660250000000 1.0
C      1  0.4637300000000  0.4287870000000  0.5378780000000 1.0
C      1  0.6042920000000  0.4837060000000  0.5220730000000 1.0
C      1  0.3920750000000  0.5156090000000  0.4768810000000 1.0
C      1  0.5802190000000  0.4691800000000  0.4459360000000 1.0
C      1  0.4186090000000  0.5319270000000  0.5560750000000 1.0
C      1  0.4395400000000  0.4347350000000  0.5569240000000 1.0
C      1  0.5600030000000  0.5634670000000  0.4450910000000 1.0
C      1  0.5936420000000  0.5355250000000  0.4699940000000 1.0
C      1  0.4175570000000  0.4623100000000  0.5208250000000 1.0
C      1  0.4628580000000  0.4211920000000  0.4458520000000 1.0
C      1  0.5365010000000  0.5821350000000  0.5501250000000 1.0
C      1  0.5186070000000  0.4834790000000  0.5116530000000 1.0
C      1  0.4671260000000  0.5141490000000  0.4924780000000 1.0
C      1  0.5709480000000  0.4818100000000  0.5597730000000 1.0
C      1  0.4272100000000  0.5204050000000  0.4401060000000 1.0
C      1  0.5220670000000  0.4535070000000  0.5954770000000 1.0
C      1  0.4805590000000  0.5470880000000  0.4030540000000 1.0
C      1  0.4559380000000  0.5606270000000  0.4114010000000 1.0
C      1  0.5470740000000  0.4397280000000  0.5890900000000 1.0
C      1  0.5011350000000  0.3995290000000  0.5038870000000 1.0
C      1  0.4989080000000  0.6003070000000  0.4970340000000 1.0
C      1  0.6059810000000  0.5199460000000  0.4917070000000 1.0
C      1  0.3948450000000  0.4766200000000  0.5068960000000 1.0
C      1  0.4901460000000  0.5885060000000  0.4716870000000 1.0
C      1  0.5107060000000  0.4089780000000  0.5304960000000 1.0
C      1  0.5145100000000  0.5689060000000  0.5679410000000 1.0
C      1  0.4847060000000  0.4334180000000  0.4244620000000 1.0
C      1  0.4966680000000  0.4419550000000  0.5835790000000 1.0
C      1  0.5047960000000  0.5548640000000  0.4196540000000 1.0
C      1  0.5789340000000  0.5835390000000  0.4861370000000 1.0
C      1  0.4275780000000  0.4149830000000  0.5125700000000 1.0
C      1  0.4245160000000  0.5549900000000  0.5103230000000 1.0
C      1  0.5757140000000  0.4428600000000  0.4901820000000 1.0
C      1  0.4638940000000  0.4560230000000  0.5220920000000 1.0
C      1  0.5404410000000  0.5401280000000  0.4797500000000 1.0
C      1  0.5844810000000  0.5635470000000  0.4630720000000 1.0
C      1  0.4182390000000  0.4351390000000  0.5344110000000 1.0
C      1  0.5536050000000  0.5362050000000  0.4302390000000 1.0
C      1  0.4468030000000  0.4626590000000  0.5708170000000 1.0
C      1  0.5038790000000  0.4556190000000  0.5479210000000 1.0
C      1  0.4960440000000  0.5418000000000  0.4552450000000 1.0
END
