TITL C-3577085-527-129 3.31620734973615e-07 125000 -529.052523187704 0 0 87 (C1) n - 1
REM
REM in /home/bkarasulu/work/CARBON/AIRSS/Generating-Clusters/EDIP-Nigel-Params/with-SteepDescent/Higher-Symm/SD-CG/HFTN-CG
REM
REM
REM
REM
REM
REM ./C.cell (12c818d87b63d06a65506943cc24bca4)
REM
REM compiler GCC version 9.2.1 20190827 (Red Hat 9.2.1-1)
REM options -cpp -mtune=generic -march=x86-64 -g -O0 -fpre-include=/usr/include/finclude/math-vector-fortran.h
REM seed -1258860907 -1938443776 -90936835 238254073 -885461974 -1104014194 -42971484 303420691 -483746070 1504302325 -1853164133 1053191973 -1748967651 -2020049843 -1544222082 -1159189432 1591794207 -1680497281 -1163694654 -1036402051 -461314382 -74402565 -789425996 -1835942999 -1546871857 -937118222 1923208849 240520292 -291742167 1120046791 -1941618431 -61289885 -1828086021
REM
CELL 1.54180   50.00000   50.00000   50.00000   90.00000   90.00000   90.00000
LATT -1
SFAC C  
C      1  0.5527840000000  0.5092980000000  0.5662640000000 1.0
C      1  0.5107150000000  0.4698470000000  0.4323210000000 1.0
C      1  0.4766870000000  0.5438340000000  0.5557360000000 1.0
C      1  0.5589070000000  0.5390960000000  0.4711390000000 1.0
C      1  0.4578360000000  0.4762670000000  0.5685940000000 1.0
C      1  0.5201850000000  0.5706740000000  0.4629070000000 1.0
C      1  0.4943480000000  0.5406370000000  0.4474040000000 1.0
C      1  0.5253870000000  0.5014250000000  0.4691330000000 1.0
C      1  0.4285210000000  0.4793060000000  0.4514510000000 1.0
C      1  0.4540840000000  0.4963090000000  0.4434640000000 1.0
C      1  0.4496340000000  0.4359180000000  0.5067280000000 1.0
C      1  0.4588310000000  0.5649410000000  0.5442820000000 1.0
C      1  0.4671760000000  0.4531740000000  0.5535470000000 1.0
C      1  0.4791160000000  0.4946210000000  0.5795580000000 1.0
C      1  0.4633770000000  0.4649270000000  0.4231840000000 1.0
C      1  0.4499180000000  0.4430390000000  0.5337800000000 1.0
C      1  0.5511290000000  0.5518430000000  0.5363940000000 1.0
C      1  0.4948330000000  0.5641040000000  0.4982900000000 1.0
C      1  0.4926100000000  0.5769050000000  0.4564780000000 1.0
C      1  0.5373630000000  0.5485130000000  0.4531670000000 1.0
C      1  0.4940890000000  0.4418280000000  0.5566130000000 1.0
C      1  0.4679080000000  0.5637230000000  0.4639230000000 1.0
C      1  0.5804040000000  0.4599490000000  0.5206450000000 1.0
C      1  0.5423430000000  0.4780050000000  0.5178400000000 1.0
C      1  0.5731580000000  0.4969920000000  0.4934430000000 1.0
C      1  0.4992760000000  0.4966900000000  0.4265310000000 1.0
C      1  0.5026000000000  0.4066550000000  0.4894010000000 1.0
C      1  0.5147880000000  0.5197370000000  0.4139730000000 1.0
C      1  0.4766620000000  0.5396270000000  0.5048690000000 1.0
C      1  0.5026280000000  0.5824250000000  0.5289830000000 1.0
C      1  0.4366690000000  0.5539470000000  0.5306500000000 1.0
C      1  0.4989260000000  0.5096350000000  0.4542530000000 1.0
C      1  0.4674080000000  0.5099620000000  0.4916990000000 1.0
C      1  0.4303940000000  0.4988280000000  0.4983190000000 1.0
C      1  0.4794490000000  0.4683970000000  0.4745370000000 1.0
C      1  0.4600830000000  0.4458470000000  0.4649470000000 1.0
C      1  0.5162570000000  0.4593790000000  0.5677380000000 1.0
C      1  0.4299670000000  0.4474660000000  0.4888220000000 1.0
C      1  0.4885530000000  0.4498200000000  0.4278930000000 1.0
C      1  0.4233860000000  0.4754310000000  0.4803830000000 1.0
C      1  0.5389810000000  0.4465320000000  0.4648420000000 1.0
C      1  0.4634330000000  0.5198350000000  0.5693580000000 1.0
C      1  0.5370340000000  0.5253020000000  0.4343140000000 1.0
C      1  0.5079950000000  0.4886110000000  0.5683830000000 1.0
C      1  0.5690470000000  0.4978350000000  0.5464760000000 1.0
C      1  0.5683590000000  0.5118610000000  0.4681440000000 1.0
C      1  0.5685970000000  0.4679280000000  0.5453710000000 1.0
C      1  0.5300260000000  0.4363900000000  0.5251980000000 1.0
C      1  0.4475000000000  0.5473400000000  0.5054610000000 1.0
C      1  0.4998740000000  0.5541280000000  0.5710060000000 1.0
C      1  0.5044800000000  0.4321690000000  0.4747990000000 1.0
C      1  0.4744040000000  0.5813590000000  0.5264670000000 1.0
C      1  0.5278320000000  0.5064760000000  0.5232410000000 1.0
C      1  0.5260160000000  0.4560480000000  0.5022740000000 1.0
C      1  0.5064200000000  0.4917160000000  0.5389570000000 1.0
C      1  0.5225460000000  0.5493000000000  0.4943630000000 1.0
C      1  0.5750990000000  0.5403270000000  0.5206560000000 1.0
C      1  0.4841200000000  0.4308730000000  0.4519280000000 1.0
C      1  0.4935950000000  0.5414350000000  0.4167730000000 1.0
C      1  0.4896670000000  0.5318040000000  0.5318130000000 1.0
C      1  0.4899780000000  0.4085870000000  0.5151660000000 1.0
C      1  0.4500420000000  0.5250800000000  0.4360990000000 1.0
C      1  0.4809370000000  0.5036570000000  0.5365910000000 1.0
C      1  0.4663930000000  0.5337620000000  0.4146340000000 1.0
C      1  0.5457450000000  0.5642310000000  0.5090410000000 1.0
C      1  0.5397080000000  0.4537040000000  0.5483410000000 1.0
C      1  0.5276410000000  0.5093300000000  0.5784830000000 1.0
C      1  0.5543620000000  0.5037710000000  0.4442230000000 1.0
C      1  0.4747440000000  0.4965460000000  0.4661310000000 1.0
C      1  0.5154530000000  0.5342200000000  0.5835450000000 1.0
C      1  0.5268820000000  0.5344280000000  0.5425160000000 1.0
C      1  0.4431060000000  0.4854480000000  0.5226550000000 1.0
C      1  0.5780450000000  0.4684190000000  0.4942050000000 1.0
C      1  0.5212270000000  0.4700550000000  0.4604620000000 1.0
C      1  0.4707720000000  0.4890580000000  0.5127890000000 1.0
C      1  0.5142540000000  0.5698550000000  0.5520260000000 1.0
C      1  0.5698810000000  0.5550440000000  0.4928900000000 1.0
C      1  0.4330730000000  0.5342910000000  0.4838750000000 1.0
C      1  0.5719820000000  0.5108040000000  0.5198160000000 1.0
C      1  0.4417290000000  0.4939810000000  0.5507820000000 1.0
C      1  0.5203730000000  0.5177200000000  0.4960000000000 1.0
C      1  0.4947710000000  0.4616770000000  0.4992920000000 1.0
C      1  0.4428090000000  0.4546870000000  0.4412260000000 1.0
C      1  0.5020040000000  0.4311260000000  0.5301810000000 1.0
C      1  0.4524020000000  0.5393110000000  0.4617990000000 1.0
C      1  0.5626950000000  0.4518770000000  0.4782720000000 1.0
C      1  0.4655830000000  0.4130380000000  0.4998580000000 1.0
END
