TITL C-3577091-527-703 4.36498377524746e-07 125000 -223.848188885557 0 0 37 (C1) n - 1
REM
REM in /home/bkarasulu/work/CARBON/AIRSS/Generating-Clusters/EDIP-Nigel-Params/with-SteepDescent/Higher-Symm/SD-CG/HFTN-CG
REM
REM
REM
REM
REM
REM ./C.cell (12c818d87b63d06a65506943cc24bca4)
REM
REM compiler GCC version 9.2.1 20190827 (Red Hat 9.2.1-1)
REM options -cpp -mtune=generic -march=x86-64 -g -O0 -fpre-include=/usr/include/finclude/math-vector-fortran.h
REM seed 1126603541 -1615775209 1719871923 1703434798 -1743890761 -1607810806 547890828 283490024 1353675866 -464479993 -1219598599 1594370811 -1726625104 -1130653511 1579700220 529327288 -1635881208 1099144321 584357194 578592747 -1040570782 1351692162 -684621980 1750048315 -1315945024 1386614582 -1840310797 1475638482 -1975999301 -1160767015 -1826391811 1388126309 1851358899
REM
CELL 1.54180   50.00000   50.00000   50.00000   90.00000   90.00000   90.00000
LATT -1
SFAC C  
C      1  0.4649030000000  0.4487610000000  0.5217940000000 1.0
C      1  0.4788850000000  0.5394690000000  0.4703610000000 1.0
C      1  0.5202610000000  0.4702550000000  0.5266070000000 1.0
C      1  0.5411810000000  0.5353320000000  0.4702570000000 1.0
C      1  0.4739020000000  0.5558680000000  0.5254670000000 1.0
C      1  0.4726610000000  0.4643320000000  0.4838370000000 1.0
C      1  0.5205980000000  0.5281550000000  0.5213400000000 1.0
C      1  0.5334940000000  0.4702610000000  0.4743530000000 1.0
C      1  0.4875900000000  0.4324290000000  0.5103000000000 1.0
C      1  0.4905050000000  0.5642210000000  0.4808950000000 1.0
C      1  0.5169740000000  0.4422620000000  0.5158570000000 1.0
C      1  0.5282820000000  0.5589720000000  0.4836610000000 1.0
C      1  0.4933000000000  0.5687180000000  0.5099250000000 1.0
C      1  0.4906750000000  0.4394840000000  0.4804610000000 1.0
C      1  0.5206500000000  0.5563950000000  0.5121560000000 1.0
C      1  0.5213990000000  0.4435890000000  0.4838800000000 1.0
C      1  0.5430120000000  0.4844660000000  0.5151000000000 1.0
C      1  0.5710660000000  0.5120650000000  0.4754730000000 1.0
C      1  0.4288620000000  0.4678320000000  0.5247860000000 1.0
C      1  0.4417710000000  0.5074370000000  0.4877550000000 1.0
C      1  0.5449750000000  0.5132840000000  0.5170820000000 1.0
C      1  0.5686050000000  0.4835550000000  0.4746790000000 1.0
C      1  0.4468930000000  0.4867660000000  0.5361490000000 1.0
C      1  0.4377520000000  0.4797700000000  0.4794150000000 1.0
C      1  0.5204020000000  0.5175970000000  0.4580570000000 1.0
C      1  0.4963640000000  0.4860040000000  0.5318420000000 1.0
C      1  0.4967060000000  0.5308130000000  0.4505390000000 1.0
C      1  0.4721120000000  0.4719880000000  0.5385010000000 1.0
C      1  0.5137840000000  0.4926300000000  0.4714650000000 1.0
C      1  0.4974280000000  0.5148740000000  0.5328810000000 1.0
C      1  0.4857390000000  0.4904080000000  0.4783620000000 1.0
C      1  0.4722630000000  0.5285840000000  0.5298410000000 1.0
C      1  0.4352420000000  0.4584040000000  0.4986670000000 1.0
C      1  0.5629380000000  0.4711070000000  0.4996380000000 1.0
C      1  0.4489390000000  0.5122700000000  0.5198440000000 1.0
C      1  0.5642610000000  0.5252210000000  0.4996480000000 1.0
C      1  0.4714090000000  0.5152030000000  0.4881820000000 1.0
END
