TITL C-3578199-7832-49 -8.75915279569973e-07 125000 -386.569892242982 0 0 63 (C1) n - 1
REM
REM in /home/bkarasulu/work/CARBON/AIRSS/Generating-Clusters/EDIP-Nigel-Params/with-SteepDescent/Higher-Symm/SD-CG/HFTN-CG
REM
REM
REM
REM
REM
REM ./C.cell (12c818d87b63d06a65506943cc24bca4)
REM
REM compiler GCC version 9.2.1 20190827 (Red Hat 9.2.1-1)
REM options -cpp -mtune=generic -march=x86-64 -g -O0 -fpre-include=/usr/include/finclude/math-vector-fortran.h
REM seed -483224848 1263709072 1954722548 -1468076261 -1622774822 -753438088 2973350 1291432628 68647151 1087492024 802635846 1835882747 -1281555037 485582756 -1707002053 989585470 1202652324 -1791647761 1069928986 -1263468277 -1565622243 -90988363 1396049122 -1942754420 854938999 1320312427 500768838 1834723636 412257464 -1156074180 1188962317 -1613716977 -1383161359
REM
CELL 1.54180   50.00000   50.00000   50.00000   90.00000   90.00000   90.00000
LATT -1
SFAC C  
C      1  0.5582830000000  0.4789420000000  0.4704460000000 1.0
C      1  0.4416340000000  0.4800690000000  0.5328020000000 1.0
C      1  0.4434400000000  0.5174380000000  0.4675490000000 1.0
C      1  0.5563020000000  0.5176650000000  0.5320900000000 1.0
C      1  0.4639360000000  0.4841910000000  0.5540770000000 1.0
C      1  0.5284030000000  0.4828250000000  0.4459990000000 1.0
C      1  0.4688580000000  0.5196650000000  0.4476050000000 1.0
C      1  0.5339470000000  0.5142150000000  0.5534990000000 1.0
C      1  0.4406850000000  0.5260270000000  0.5426120000000 1.0
C      1  0.5613430000000  0.5086980000000  0.4590620000000 1.0
C      1  0.5578230000000  0.4722710000000  0.5440730000000 1.0
C      1  0.4374440000000  0.4873800000000  0.4604080000000 1.0
C      1  0.5374860000000  0.5127680000000  0.4416790000000 1.0
C      1  0.4592770000000  0.5140640000000  0.5599470000000 1.0
C      1  0.5387490000000  0.4845110000000  0.5606330000000 1.0
C      1  0.4571780000000  0.4771060000000  0.4435090000000 1.0
C      1  0.4672920000000  0.4463030000000  0.5419030000000 1.0
C      1  0.5353610000000  0.4533360000000  0.4439720000000 1.0
C      1  0.5320840000000  0.5522070000000  0.5421020000000 1.0
C      1  0.4647730000000  0.5485880000000  0.4444790000000 1.0
C      1  0.5566750000000  0.4498140000000  0.4614820000000 1.0
C      1  0.4401060000000  0.4519580000000  0.5374950000000 1.0
C      1  0.5588400000000  0.5456810000000  0.5366160000000 1.0
C      1  0.4430290000000  0.5511200000000  0.4631130000000 1.0
C      1  0.4949890000000  0.4318200000000  0.4711690000000 1.0
C      1  0.5110230000000  0.4340530000000  0.5255140000000 1.0
C      1  0.5048780000000  0.5684360000000  0.4713550000000 1.0
C      1  0.4882570000000  0.5649600000000  0.5259220000000 1.0
C      1  0.4751130000000  0.4368140000000  0.4920530000000 1.0
C      1  0.5310730000000  0.4310010000000  0.5045310000000 1.0
C      1  0.4683630000000  0.5676470000000  0.5049030000000 1.0
C      1  0.5243890000000  0.5628270000000  0.4924000000000 1.0
C      1  0.4367970000000  0.4707590000000  0.4849600000000 1.0
C      1  0.5578920000000  0.4638490000000  0.5174350000000 1.0
C      1  0.5606320000000  0.5266320000000  0.4837260000000 1.0
C      1  0.4410550000000  0.5343630000000  0.5159350000000 1.0
C      1  0.4829090000000  0.4672650000000  0.4475470000000 1.0
C      1  0.5140540000000  0.4684540000000  0.5600140000000 1.0
C      1  0.4842950000000  0.5294100000000  0.5594050000000 1.0
C      1  0.5166810000000  0.5296690000000  0.4538200000000 1.0
C      1  0.4493100000000  0.4452620000000  0.4840560000000 1.0
C      1  0.5574070000000  0.4363280000000  0.5122620000000 1.0
C      1  0.5493070000000  0.5527530000000  0.4833410000000 1.0
C      1  0.4418510000000  0.5619360000000  0.5113140000000 1.0
C      1  0.4866700000000  0.4395170000000  0.4456380000000 1.0
C      1  0.5183390000000  0.4418780000000  0.5513970000000 1.0
C      1  0.4807600000000  0.5561900000000  0.5513520000000 1.0
C      1  0.5134130000000  0.5571740000000  0.4468120000000 1.0
C      1  0.4931940000000  0.5133520000000  0.4635990000000 1.0
C      1  0.5043960000000  0.5132540000000  0.5441000000000 1.0
C      1  0.5033920000000  0.4841870000000  0.4625500000000 1.0
C      1  0.4935910000000  0.4840790000000  0.5445980000000 1.0
C      1  0.4541220000000  0.5150880000000  0.4964120000000 1.0
C      1  0.5496190000000  0.5102630000000  0.5049650000000 1.0
C      1  0.4481050000000  0.4873800000000  0.5055130000000 1.0
C      1  0.5446900000000  0.4820470000000  0.4971740000000 1.0
C      1  0.4752280000000  0.5681420000000  0.4761230000000 1.0
C      1  0.5244790000000  0.4334880000000  0.4755650000000 1.0
C      1  0.5158600000000  0.5612420000000  0.5201100000000 1.0
C      1  0.4834150000000  0.4375970000000  0.5197530000000 1.0
C      1  0.5142060000000  0.4793190000000  0.4917210000000 1.0
C      1  0.4842660000000  0.5169870000000  0.4926060000000 1.0
C      1  0.4991020000000  0.4978070000000  0.5087150000000 1.0
END
