TITL C-3577081-279-281 -1.91180437500117e-06 125000 -458.899812766212 0 0 77 (C1) n - 1
REM
REM in /home/bkarasulu/work/CARBON/AIRSS/Generating-Clusters/EDIP-Nigel-Params/with-SteepDescent/Higher-Symm/SD-CG/HFTN-CG
REM
REM
REM
REM
REM
REM ./C.cell (12c818d87b63d06a65506943cc24bca4)
REM
REM compiler GCC version 9.2.1 20190827 (Red Hat 9.2.1-1)
REM options -cpp -mtune=generic -march=x86-64 -g -O0 -fpre-include=/usr/include/finclude/math-vector-fortran.h
REM seed 553640637 -1435924848 -947464846 -965047009 -285578112 -47938050 882504615 389811993 -1557143227 -69801638 230517408 1910791772 -438379610 1396776471 299637765 2031329929 261517698 -856757423 -945623347 -929300980 664556225 -1902555248 1809897121 2137875459 1958747345 -1590010898 814564365 -1968274586 -2098949197 -619185549 -1413224792 -1195893 -1543017604
REM
CELL 1.54180   50.00000   50.00000   50.00000   90.00000   90.00000   90.00000
LATT -1
SFAC C  
C      1  0.5546770000000  0.5593190000000  0.4854840000000 1.0
C      1  0.4439540000000  0.5566580000000  0.5173560000000 1.0
C      1  0.5544520000000  0.4415230000000  0.4858240000000 1.0
C      1  0.4424800000000  0.4433720000000  0.5150610000000 1.0
C      1  0.4433840000000  0.5571190000000  0.4854330000000 1.0
C      1  0.5544460000000  0.5596000000000  0.5162040000000 1.0
C      1  0.4431320000000  0.4439490000000  0.4832090000000 1.0
C      1  0.5549160000000  0.4416770000000  0.5167820000000 1.0
C      1  0.5289160000000  0.5670510000000  0.4731520000000 1.0
C      1  0.4720060000000  0.5623940000000  0.5272960000000 1.0
C      1  0.5271190000000  0.4343120000000  0.4743570000000 1.0
C      1  0.4698760000000  0.4380070000000  0.5269360000000 1.0
C      1  0.4709720000000  0.5630660000000  0.4745500000000 1.0
C      1  0.5272640000000  0.5667320000000  0.5279450000000 1.0
C      1  0.4713810000000  0.4376750000000  0.4737270000000 1.0
C      1  0.5287700000000  0.4314110000000  0.5292520000000 1.0
C      1  0.4379990000000  0.4742420000000  0.4709460000000 1.0
C      1  0.5627910000000  0.4730230000000  0.5342180000000 1.0
C      1  0.4390970000000  0.5280760000000  0.4727020000000 1.0
C      1  0.5622650000000  0.5315350000000  0.5294150000000 1.0
C      1  0.5617820000000  0.4695260000000  0.4723440000000 1.0
C      1  0.4387590000000  0.4725900000000  0.5284790000000 1.0
C      1  0.5630690000000  0.5284170000000  0.4674720000000 1.0
C      1  0.4391150000000  0.5265010000000  0.5305310000000 1.0
C      1  0.5146590000000  0.4575130000000  0.5196650000000 1.0
C      1  0.4834140000000  0.4630830000000  0.4860790000000 1.0
C      1  0.5137470000000  0.5390620000000  0.5263010000000 1.0
C      1  0.4850800000000  0.5383150000000  0.4853580000000 1.0
C      1  0.4844070000000  0.4619820000000  0.5153800000000 1.0
C      1  0.5129770000000  0.4619720000000  0.4759830000000 1.0
C      1  0.4850370000000  0.5374990000000  0.5149410000000 1.0
C      1  0.5138210000000  0.5414240000000  0.4745820000000 1.0
C      1  0.4885870000000  0.4739820000000  0.4410530000000 1.0
C      1  0.5117140000000  0.4721580000000  0.5613820000000 1.0
C      1  0.4820140000000  0.5260640000000  0.4382310000000 1.0
C      1  0.5159400000000  0.5227590000000  0.5665810000000 1.0
C      1  0.5165160000000  0.4772040000000  0.4353590000000 1.0
C      1  0.4830420000000  0.4727140000000  0.5627840000000 1.0
C      1  0.5108100000000  0.5281150000000  0.4326910000000 1.0
C      1  0.4881080000000  0.5251920000000  0.5594140000000 1.0
C      1  0.5351200000000  0.5186160000000  0.5271430000000 1.0
C      1  0.4658980000000  0.5151450000000  0.4779090000000 1.0
C      1  0.5339850000000  0.4795990000000  0.5239840000000 1.0
C      1  0.4641640000000  0.4858540000000  0.4797850000000 1.0
C      1  0.4657610000000  0.5147500000000  0.5223890000000 1.0
C      1  0.5346660000000  0.5211480000000  0.4778890000000 1.0
C      1  0.4660560000000  0.4852710000000  0.5239440000000 1.0
C      1  0.5346670000000  0.4823140000000  0.4750290000000 1.0
C      1  0.4137130000000  0.4855410000000  0.4846850000000 1.0
C      1  0.5843240000000  0.4864370000000  0.5176200000000 1.0
C      1  0.4144610000000  0.5167000000000  0.4858280000000 1.0
C      1  0.5842280000000  0.5177420000000  0.5144220000000 1.0
C      1  0.5838780000000  0.4833470000000  0.4870530000000 1.0
C      1  0.4142600000000  0.4845730000000  0.5156610000000 1.0
C      1  0.5846070000000  0.5147200000000  0.4837510000000 1.0
C      1  0.4146050000000  0.5155550000000  0.5167490000000 1.0
C      1  0.4361670000000  0.4819470000000  0.5566880000000 1.0
C      1  0.5669410000000  0.4789030000000  0.4449370000000 1.0
C      1  0.4394330000000  0.5113560000000  0.5582530000000 1.0
C      1  0.5564500000000  0.5057510000000  0.4431330000000 1.0
C      1  0.5568240000000  0.4955070000000  0.5580380000000 1.0
C      1  0.4390590000000  0.4887430000000  0.4431590000000 1.0
C      1  0.5675570000000  0.5223450000000  0.5568910000000 1.0
C      1  0.4364880000000  0.5182750000000  0.4445930000000 1.0
C      1  0.4753400000000  0.4446740000000  0.5554730000000 1.0
C      1  0.5155080000000  0.4396040000000  0.4444920000000 1.0
C      1  0.4824020000000  0.5550030000000  0.5557210000000 1.0
C      1  0.5113920000000  0.5589080000000  0.4403400000000 1.0
C      1  0.5140480000000  0.4419930000000  0.5557000000000 1.0
C      1  0.4833360000000  0.4444290000000  0.4457010000000 1.0
C      1  0.5141790000000  0.5604050000000  0.5582690000000 1.0
C      1  0.4790480000000  0.5569830000000  0.4452610000000 1.0
C      1  0.4688330000000  0.4972710000000  0.4373540000000 1.0
C      1  0.4689100000000  0.5018270000000  0.5646630000000 1.0
C      1  0.5276380000000  0.5041600000000  0.4377560000000 1.0
C      1  0.5282840000000  0.4964320000000  0.5642710000000 1.0
C      1  0.5327020000000  0.5006850000000  0.5014210000000 1.0
END
