TITL C-3577089-586-260 -1.41445530416023e-07 125000 -930.685419615766 0 0 148 (C1) n - 1
REM
REM in /home/bkarasulu/work/CARBON/AIRSS/Generating-Clusters/EDIP-Nigel-Params/with-SteepDescent/Higher-Symm/SD-CG/HFTN-CG
REM
REM
REM
REM
REM
REM ./C.cell (12c818d87b63d06a65506943cc24bca4)
REM
REM compiler GCC version 9.2.1 20190827 (Red Hat 9.2.1-1)
REM options -cpp -mtune=generic -march=x86-64 -g -O0 -fpre-include=/usr/include/finclude/math-vector-fortran.h
REM seed 1459206103 -2099769837 -1971133986 707458726 -1767615647 -741643908 -51752266 1509833149 -1413953578 272900840 -816667318 -675036421 -622259775 199645580 626529140 -1659557604 216582518 -755377732 -900089367 -1682043673 1289088595 -1997368655 1040893848 -1931039458 495059774 622754353 1007713385 884967746 -226824043 -1845067493 541483331 585951491 -893108442
REM
CELL 1.54180   50.00000   50.00000   50.00000   90.00000   90.00000   90.00000
LATT -1
SFAC C  
C      1  0.5772340000000  0.5255220000000  0.4292250000000 1.0
C      1  0.4228960000000  0.4653000000000  0.4436380000000 1.0
C      1  0.5750720000000  0.5371950000000  0.5588620000000 1.0
C      1  0.4248280000000  0.4635390000000  0.5567550000000 1.0
C      1  0.5097980000000  0.4395990000000  0.5874230000000 1.0
C      1  0.4902610000000  0.5605890000000  0.5856900000000 1.0
C      1  0.5090820000000  0.4444070000000  0.4194070000000 1.0
C      1  0.4918110000000  0.5616540000000  0.4122280000000 1.0
C      1  0.4857030000000  0.4494670000000  0.4854410000000 1.0
C      1  0.5069570000000  0.5421240000000  0.4884430000000 1.0
C      1  0.4889360000000  0.4580030000000  0.5113440000000 1.0
C      1  0.5105370000000  0.5472730000000  0.5151950000000 1.0
C      1  0.5459070000000  0.4200630000000  0.5575330000000 1.0
C      1  0.4542650000000  0.5782450000000  0.5565840000000 1.0
C      1  0.5462460000000  0.4228990000000  0.4430070000000 1.0
C      1  0.4539780000000  0.5803750000000  0.4425950000000 1.0
C      1  0.5430390000000  0.5855450000000  0.5402210000000 1.0
C      1  0.4561600000000  0.4148520000000  0.5398780000000 1.0
C      1  0.5445120000000  0.5815370000000  0.4574770000000 1.0
C      1  0.4548130000000  0.4143510000000  0.4589870000000 1.0
C      1  0.3975600000000  0.4582760000000  0.5153980000000 1.0
C      1  0.5949640000000  0.5366550000000  0.5139910000000 1.0
C      1  0.3983650000000  0.4607040000000  0.4869880000000 1.0
C      1  0.5999600000000  0.5528780000000  0.4915380000000 1.0
C      1  0.4268740000000  0.5606980000000  0.5159240000000 1.0
C      1  0.5705650000000  0.4410320000000  0.5156850000000 1.0
C      1  0.4267210000000  0.5612840000000  0.4840840000000 1.0
C      1  0.5668090000000  0.4420060000000  0.4856150000000 1.0
C      1  0.4956280000000  0.3813210000000  0.4900560000000 1.0
C      1  0.4994940000000  0.6181290000000  0.4859670000000 1.0
C      1  0.4985450000000  0.3805200000000  0.5166380000000 1.0
C      1  0.4988850000000  0.6182920000000  0.5127960000000 1.0
C      1  0.4137800000000  0.5151020000000  0.4852410000000 1.0
C      1  0.5960860000000  0.4767660000000  0.4875370000000 1.0
C      1  0.4135370000000  0.5145270000000  0.5153900000000 1.0
C      1  0.5879860000000  0.4879440000000  0.5115260000000 1.0
C      1  0.4922860000000  0.5957560000000  0.4693160000000 1.0
C      1  0.5061910000000  0.3990970000000  0.4703400000000 1.0
C      1  0.4913770000000  0.5962580000000  0.5298940000000 1.0
C      1  0.5072610000000  0.4036040000000  0.5314590000000 1.0
C      1  0.5691270000000  0.4801650000000  0.4479300000000 1.0
C      1  0.4314550000000  0.5216010000000  0.4431460000000 1.0
C      1  0.5699040000000  0.4811600000000  0.5575090000000 1.0
C      1  0.4317410000000  0.5198630000000  0.5570900000000 1.0
C      1  0.4979390000000  0.4153280000000  0.5732640000000 1.0
C      1  0.5015340000000  0.5850010000000  0.5716860000000 1.0
C      1  0.4994960000000  0.4175460000000  0.4301890000000 1.0
C      1  0.5018270000000  0.5865260000000  0.4267740000000 1.0
C      1  0.4642140000000  0.5101900000000  0.5947100000000 1.0
C      1  0.5371190000000  0.4897300000000  0.5953350000000 1.0
C      1  0.4648350000000  0.5101830000000  0.4073200000000 1.0
C      1  0.5364350000000  0.4921550000000  0.4080390000000 1.0
C      1  0.5772350000000  0.5085830000000  0.5598420000000 1.0
C      1  0.4230180000000  0.4924620000000  0.5590230000000 1.0
C      1  0.5811130000000  0.5071840000000  0.4503300000000 1.0
C      1  0.4218640000000  0.4943250000000  0.4410380000000 1.0
C      1  0.4640210000000  0.4625250000000  0.5892730000000 1.0
C      1  0.5365520000000  0.5389720000000  0.5908490000000 1.0
C      1  0.4648070000000  0.4665580000000  0.4154750000000 1.0
C      1  0.5383440000000  0.5362310000000  0.4038810000000 1.0
C      1  0.4825220000000  0.4935150000000  0.4856980000000 1.0
C      1  0.5214290000000  0.5004970000000  0.4856950000000 1.0
C      1  0.4738750000000  0.5002810000000  0.5178490000000 1.0
C      1  0.5261570000000  0.4995380000000  0.5171950000000 1.0
C      1  0.4646300000000  0.4559220000000  0.5293350000000 1.0
C      1  0.5368510000000  0.5436080000000  0.5301810000000 1.0
C      1  0.4621930000000  0.4569210000000  0.4689290000000 1.0
C      1  0.5282380000000  0.5432210000000  0.4695420000000 1.0
C      1  0.4521660000000  0.4854520000000  0.5996850000000 1.0
C      1  0.5482760000000  0.5150760000000  0.5993180000000 1.0
C      1  0.4518120000000  0.4862740000000  0.4006520000000 1.0
C      1  0.5482460000000  0.5123110000000  0.3925110000000 1.0
C      1  0.4936850000000  0.4664470000000  0.5853860000000 1.0
C      1  0.5074680000000  0.5372070000000  0.5907010000000 1.0
C      1  0.4936520000000  0.4710050000000  0.4214520000000 1.0
C      1  0.5090040000000  0.5348880000000  0.4134270000000 1.0
C      1  0.4840760000000  0.5405630000000  0.4503960000000 1.0
C      1  0.5207380000000  0.4657400000000  0.4566450000000 1.0
C      1  0.4886940000000  0.5329990000000  0.5508310000000 1.0
C      1  0.5163600000000  0.4586250000000  0.5479520000000 1.0
C      1  0.5492650000000  0.5505560000000  0.5662520000000 1.0
C      1  0.4503530000000  0.4503260000000  0.5651850000000 1.0
C      1  0.5589750000000  0.5456980000000  0.4219470000000 1.0
C      1  0.4494860000000  0.4524230000000  0.4368980000000 1.0
C      1  0.5504700000000  0.4700740000000  0.5772320000000 1.0
C      1  0.4501540000000  0.5299880000000  0.5779070000000 1.0
C      1  0.5521340000000  0.4721820000000  0.4240240000000 1.0
C      1  0.4507190000000  0.5311930000000  0.4225280000000 1.0
C      1  0.5222420000000  0.4007320000000  0.5594290000000 1.0
C      1  0.4766930000000  0.5987980000000  0.5587560000000 1.0
C      1  0.5247750000000  0.4036550000000  0.4368250000000 1.0
C      1  0.4770790000000  0.6000140000000  0.4408490000000 1.0
C      1  0.5522660000000  0.4206410000000  0.5277510000000 1.0
C      1  0.4461040000000  0.5802800000000  0.5273420000000 1.0
C      1  0.5518310000000  0.4205830000000  0.4722430000000 1.0
C      1  0.4464870000000  0.5807720000000  0.4725250000000 1.0
C      1  0.5247290000000  0.4190940000000  0.4843160000000 1.0
C      1  0.4735300000000  0.5759980000000  0.4843540000000 1.0
C      1  0.5249740000000  0.4222840000000  0.5152940000000 1.0
C      1  0.4733360000000  0.5763950000000  0.5157980000000 1.0
C      1  0.4973520000000  0.5031880000000  0.5377360000000 1.0
C      1  0.4970960000000  0.4781080000000  0.5562920000000 1.0
C      1  0.5076620000000  0.5236350000000  0.4435280000000 1.0
C      1  0.4989350000000  0.4908310000000  0.4498190000000 1.0
C      1  0.4616550000000  0.5274720000000  0.5149580000000 1.0
C      1  0.5381190000000  0.4702180000000  0.5113410000000 1.0
C      1  0.4606170000000  0.5274120000000  0.4853710000000 1.0
C      1  0.5385010000000  0.4745560000000  0.4789280000000 1.0
C      1  0.4829520000000  0.5479350000000  0.5255600000000 1.0
C      1  0.5163440000000  0.4513730000000  0.5205630000000 1.0
C      1  0.4810490000000  0.5472090000000  0.4775090000000 1.0
C      1  0.5118180000000  0.4451990000000  0.4755180000000 1.0
C      1  0.5698730000000  0.5201040000000  0.4759550000000 1.0
C      1  0.4262200000000  0.4868790000000  0.4837620000000 1.0
C      1  0.5754400000000  0.5145320000000  0.5072150000000 1.0
C      1  0.4246000000000  0.4854950000000  0.5158070000000 1.0
C      1  0.5079570000000  0.4876690000000  0.6017700000000 1.0
C      1  0.4931530000000  0.5133230000000  0.6006790000000 1.0
C      1  0.5078540000000  0.4881860000000  0.4016060000000 1.0
C      1  0.4931230000000  0.5134570000000  0.3990220000000 1.0
C      1  0.5798720000000  0.4628490000000  0.4697350000000 1.0
C      1  0.4330310000000  0.5331500000000  0.4728330000000 1.0
C      1  0.5729120000000  0.4694290000000  0.5291210000000 1.0
C      1  0.4331800000000  0.5323030000000  0.5278430000000 1.0
C      1  0.4157710000000  0.4475970000000  0.4682100000000 1.0
C      1  0.5774070000000  0.5490550000000  0.4753170000000 1.0
C      1  0.4173600000000  0.4459130000000  0.5323730000000 1.0
C      1  0.5817690000000  0.5530340000000  0.5338680000000 1.0
C      1  0.5154540000000  0.5821730000000  0.4536800000000 1.0
C      1  0.4846720000000  0.4161520000000  0.4563860000000 1.0
C      1  0.5143080000000  0.5810110000000  0.5437710000000 1.0
C      1  0.4848370000000  0.4193760000000  0.5448380000000 1.0
C      1  0.4431210000000  0.4344750000000  0.5185350000000 1.0
C      1  0.5560080000000  0.5658120000000  0.5205150000000 1.0
C      1  0.4414100000000  0.4348630000000  0.4804120000000 1.0
C      1  0.5526620000000  0.5645150000000  0.4820540000000 1.0
C      1  0.4458300000000  0.4213360000000  0.5658420000000 1.0
C      1  0.5528060000000  0.5796630000000  0.5663290000000 1.0
C      1  0.4461070000000  0.4234370000000  0.4334450000000 1.0
C      1  0.5567130000000  0.5704460000000  0.4348840000000 1.0
C      1  0.4684380000000  0.5512300000000  0.5674020000000 1.0
C      1  0.5331020000000  0.4461810000000  0.5686600000000 1.0
C      1  0.4680310000000  0.5545790000000  0.4305890000000 1.0
C      1  0.5345050000000  0.4501640000000  0.4341230000000 1.0
C      1  0.5406040000000  0.5181320000000  0.4718760000000 1.0
C      1  0.4553000000000  0.4848280000000  0.4746800000000 1.0
C      1  0.5487610000000  0.5173350000000  0.5231240000000 1.0
C      1  0.4525470000000  0.4827280000000  0.5277630000000 1.0
END
