TITL C-3577076-40-147 -1.81611209425482e-06 125000 -403.981599195441 0 0 66 (C1) n - 1
REM
REM in /home/bkarasulu/work/CARBON/AIRSS/Generating-Clusters/EDIP-Nigel-Params/with-SteepDescent/Higher-Symm/SD-CG/HFTN-CG
REM
REM
REM
REM
REM
REM ./C.cell (12c818d87b63d06a65506943cc24bca4)
REM
REM compiler GCC version 9.2.1 20190827 (Red Hat 9.2.1-1)
REM options -cpp -mtune=generic -march=x86-64 -g -O0 -fpre-include=/usr/include/finclude/math-vector-fortran.h
REM seed 714428141 -791244711 -643755037 174307386 -494357162 -719977307 -619409153 553638827 552178838 53315807 -289848019 -700775418 -1541683488 -1842526817 -521157468 754538895 1956948988 1029772430 182799782 -1686928928 -1381594949 875034642 -724885989 -891200044 -494756009 -719673193 1926887807 343411011 1776083192 1052477739 3902786 1037132085 31170368
REM
CELL 1.54180   50.00000   50.00000   50.00000   90.00000   90.00000   90.00000
LATT -1
SFAC C  
C      1  0.5770230000000  0.5071970000000  0.5237660000000 1.0
C      1  0.5761980000000  0.5045500000000  0.4733150000000 1.0
C      1  0.5781770000000  0.5225030000000  0.4979450000000 1.0
C      1  0.4762360000000  0.5136100000000  0.5776530000000 1.0
C      1  0.4747170000000  0.4236500000000  0.4743640000000 1.0
C      1  0.4707030000000  0.5565000000000  0.4508610000000 1.0
C      1  0.4559360000000  0.5463310000000  0.5420670000000 1.0
C      1  0.4503770000000  0.4451810000000  0.5135880000000 1.0
C      1  0.4530810000000  0.5092560000000  0.4448190000000 1.0
C      1  0.4912930000000  0.4213630000000  0.5221360000000 1.0
C      1  0.4979730000000  0.5203690000000  0.4279000000000 1.0
C      1  0.5048170000000  0.5472600000000  0.5518340000000 1.0
C      1  0.5100120000000  0.4482560000000  0.4495050000000 1.0
C      1  0.5069930000000  0.5712040000000  0.4799980000000 1.0
C      1  0.5065280000000  0.4755980000000  0.5693760000000 1.0
C      1  0.4312180000000  0.4615510000000  0.5007480000000 1.0
C      1  0.4392840000000  0.4959740000000  0.4679760000000 1.0
C      1  0.4403420000000  0.5314070000000  0.5210830000000 1.0
C      1  0.4717540000000  0.4290600000000  0.5016050000000 1.0
C      1  0.4747690000000  0.5297550000000  0.4437810000000 1.0
C      1  0.4782130000000  0.5350520000000  0.5592200000000 1.0
C      1  0.5230010000000  0.4997630000000  0.5654180000000 1.0
C      1  0.5267580000000  0.4436890000000  0.4764750000000 1.0
C      1  0.5238380000000  0.5571550000000  0.4593220000000 1.0
C      1  0.4637220000000  0.4808690000000  0.5479550000000 1.0
C      1  0.4660830000000  0.4685930000000  0.4606820000000 1.0
C      1  0.4647130000000  0.5515150000000  0.4989400000000 1.0
C      1  0.4931850000000  0.4914810000000  0.4251260000000 1.0
C      1  0.4983130000000  0.5679190000000  0.5315410000000 1.0
C      1  0.4850150000000  0.4377470000000  0.5457660000000 1.0
C      1  0.5195580000000  0.4195750000000  0.5187770000000 1.0
C      1  0.5271670000000  0.5228220000000  0.4316670000000 1.0
C      1  0.5404750000000  0.5400250000000  0.5411380000000 1.0
C      1  0.5073110000000  0.4565440000000  0.5462260000000 1.0
C      1  0.5152810000000  0.4757950000000  0.4357450000000 1.0
C      1  0.5161270000000  0.5656970000000  0.5084910000000 1.0
C      1  0.5586000000000  0.4808770000000  0.4821470000000 1.0
C      1  0.5516260000000  0.5368000000000  0.4935570000000 1.0
C      1  0.5506810000000  0.4872200000000  0.5252500000000 1.0
C      1  0.4660180000000  0.4846530000000  0.4344990000000 1.0
C      1  0.4692490000000  0.5670940000000  0.5249950000000 1.0
C      1  0.4582810000000  0.4512070000000  0.5419150000000 1.0
C      1  0.5601350000000  0.5220330000000  0.4523310000000 1.0
C      1  0.5633750000000  0.5220090000000  0.5485520000000 1.0
C      1  0.5502370000000  0.4576980000000  0.5187920000000 1.0
C      1  0.5507120000000  0.5479110000000  0.4655320000000 1.0
C      1  0.5517290000000  0.4966380000000  0.5606530000000 1.0
C      1  0.5549570000000  0.4511790000000  0.4818560000000 1.0
C      1  0.5421340000000  0.5543970000000  0.5156880000000 1.0
C      1  0.5292940000000  0.4426050000000  0.5322130000000 1.0
C      1  0.5377970000000  0.4956240000000  0.4339590000000 1.0
C      1  0.4856510000000  0.4918810000000  0.5304270000000 1.0
C      1  0.4835520000000  0.4811340000000  0.4821630000000 1.0
C      1  0.4830300000000  0.5279990000000  0.4982810000000 1.0
C      1  0.5093210000000  0.5103600000000  0.5404420000000 1.0
C      1  0.5126110000000  0.4722420000000  0.4792680000000 1.0
C      1  0.5060390000000  0.5322060000000  0.4813170000000 1.0
C      1  0.5290480000000  0.5162580000000  0.4911890000000 1.0
C      1  0.5264280000000  0.5022770000000  0.5170190000000 1.0
C      1  0.5335570000000  0.4930700000000  0.4723430000000 1.0
C      1  0.4778390000000  0.4855180000000  0.5739070000000 1.0
C      1  0.4803320000000  0.4423610000000  0.4543180000000 1.0
C      1  0.4766850000000  0.5680620000000  0.4757210000000 1.0
C      1  0.4296370000000  0.4890550000000  0.4945940000000 1.0
C      1  0.4743180000000  0.5005310000000  0.5046370000000 1.0
C      1  0.4459220000000  0.5034700000000  0.5143400000000 1.0
END
