TITL C-3578195-8548-337 -9.67685616987629e-07 125000 -653.87364616939 0 0 104 (C1) n - 1
REM
REM in /home/bkarasulu/work/CARBON/AIRSS/Generating-Clusters/EDIP-Nigel-Params/with-SteepDescent/Higher-Symm/SD-CG/HFTN-CG
REM
REM
REM
REM
REM
REM ./C.cell (12c818d87b63d06a65506943cc24bca4)
REM
REM compiler GCC version 9.2.1 20190827 (Red Hat 9.2.1-1)
REM options -cpp -mtune=generic -march=x86-64 -g -O0 -fpre-include=/usr/include/finclude/math-vector-fortran.h
REM seed -1439949795 -202818660 -1199823442 -456870517 301912203 46800105 -460088308 570282474 -1230279647 91902648 -185357638 -264451225 838883126 -840757401 831669562 -488334849 1070278848 -2030146067 -1878464722 1149452031 501328461 -610407051 1988627277 1504079291 -1478446090 -1441189589 642918251 1590849653 366129042 -458131712 -595996756 1068108628 1948806761
REM
CELL 1.54180   50.00000   50.00000   50.00000   90.00000   90.00000   90.00000
LATT -1
SFAC C  
C      1  0.5166130000000  0.5181560000000  0.4820090000000 1.0
C      1  0.5136930000000  0.4718080000000  0.4920970000000 1.0
C      1  0.5153650000000  0.5072650000000  0.5276020000000 1.0
C      1  0.4890510000000  0.5224250000000  0.4767560000000 1.0
C      1  0.4848610000000  0.4753510000000  0.4919910000000 1.0
C      1  0.4860620000000  0.5085430000000  0.5244590000000 1.0
C      1  0.5199580000000  0.4228220000000  0.5070620000000 1.0
C      1  0.5207220000000  0.5445520000000  0.5629900000000 1.0
C      1  0.5299220000000  0.5368570000000  0.4293880000000 1.0
C      1  0.4814580000000  0.4207450000000  0.5079300000000 1.0
C      1  0.4821680000000  0.5468470000000  0.5646810000000 1.0
C      1  0.4732440000000  0.5332370000000  0.4298610000000 1.0
C      1  0.4382570000000  0.5367260000000  0.5391360000000 1.0
C      1  0.4305950000000  0.5156110000000  0.4448230000000 1.0
C      1  0.4359990000000  0.4454730000000  0.5129650000000 1.0
C      1  0.5674160000000  0.5377890000000  0.5425140000000 1.0
C      1  0.5681510000000  0.5159590000000  0.4496050000000 1.0
C      1  0.5674070000000  0.4433520000000  0.5126810000000 1.0
C      1  0.5902630000000  0.4786740000000  0.4783700000000 1.0
C      1  0.5906780000000  0.4925110000000  0.5301370000000 1.0
C      1  0.5921250000000  0.5309820000000  0.4935950000000 1.0
C      1  0.4110790000000  0.4778740000000  0.4805710000000 1.0
C      1  0.4110550000000  0.4914300000000  0.5313990000000 1.0
C      1  0.4114660000000  0.5302090000000  0.4938850000000 1.0
C      1  0.5813590000000  0.4897280000000  0.4509590000000 1.0
C      1  0.5806750000000  0.4618400000000  0.5357230000000 1.0
C      1  0.5802260000000  0.5497030000000  0.5170540000000 1.0
C      1  0.4195050000000  0.4866020000000  0.4506460000000 1.0
C      1  0.4228990000000  0.4614910000000  0.5356000000000 1.0
C      1  0.4229780000000  0.5487830000000  0.5166280000000 1.0
C      1  0.4859570000000  0.4736970000000  0.5885280000000 1.0
C      1  0.4833660000000  0.5894090000000  0.4774680000000 1.0
C      1  0.4839080000000  0.4374610000000  0.4327860000000 1.0
C      1  0.5148300000000  0.4728140000000  0.5872860000000 1.0
C      1  0.5123490000000  0.5898630000000  0.4798520000000 1.0
C      1  0.5130260000000  0.4392960000000  0.4314540000000 1.0
C      1  0.5528760000000  0.4796790000000  0.5138360000000 1.0
C      1  0.5561670000000  0.5200490000000  0.5044580000000 1.0
C      1  0.5552060000000  0.4942000000000  0.4857550000000 1.0
C      1  0.4461310000000  0.4878620000000  0.5150260000000 1.0
C      1  0.4470550000000  0.5160820000000  0.5009690000000 1.0
C      1  0.4485530000000  0.4986380000000  0.4750810000000 1.0
C      1  0.4333400000000  0.4585320000000  0.4859650000000 1.0
C      1  0.4292920000000  0.5096980000000  0.5488360000000 1.0
C      1  0.4271700000000  0.5365150000000  0.4677900000000 1.0
C      1  0.5721490000000  0.4539980000000  0.4837220000000 1.0
C      1  0.5687770000000  0.5075930000000  0.5440410000000 1.0
C      1  0.5743180000000  0.5377240000000  0.4689960000000 1.0
C      1  0.4854310000000  0.5177390000000  0.5626290000000 1.0
C      1  0.4865480000000  0.5449540000000  0.4523470000000 1.0
C      1  0.4849500000000  0.4369740000000  0.4836660000000 1.0
C      1  0.5154220000000  0.5155770000000  0.5582090000000 1.0
C      1  0.5145380000000  0.5542780000000  0.4447970000000 1.0
C      1  0.5148610000000  0.4415060000000  0.4840910000000 1.0
C      1  0.4700160000000  0.5676600000000  0.4631780000000 1.0
C      1  0.4700140000000  0.4336080000000  0.4581620000000 1.0
C      1  0.4709600000000  0.4971260000000  0.5789690000000 1.0
C      1  0.5279540000000  0.5676030000000  0.4672480000000 1.0
C      1  0.5289950000000  0.4385150000000  0.4575440000000 1.0
C      1  0.5294440000000  0.4955460000000  0.5755800000000 1.0
C      1  0.4866530000000  0.5531450000000  0.5127730000000 1.0
C      1  0.4875850000000  0.4865500000000  0.4461990000000 1.0
C      1  0.4853200000000  0.4637010000000  0.5389820000000 1.0
C      1  0.5159010000000  0.5526410000000  0.5144280000000 1.0
C      1  0.5169430000000  0.4888850000000  0.4464480000000 1.0
C      1  0.5139480000000  0.4605410000000  0.5376790000000 1.0
C      1  0.5556020000000  0.4899020000000  0.5639350000000 1.0
C      1  0.5556220000000  0.5604840000000  0.4765850000000 1.0
C      1  0.5561490000000  0.4501170000000  0.4586540000000 1.0
C      1  0.4454390000000  0.4906270000000  0.5657110000000 1.0
C      1  0.4461150000000  0.5577010000000  0.4765540000000 1.0
C      1  0.4449990000000  0.4487570000000  0.4604270000000 1.0
C      1  0.4670360000000  0.4454750000000  0.5520050000000 1.0
C      1  0.4668270000000  0.5726470000000  0.5216690000000 1.0
C      1  0.4656000000000  0.4834360000000  0.4262500000000 1.0
C      1  0.5344040000000  0.4443200000000  0.5512280000000 1.0
C      1  0.5363350000000  0.5730460000000  0.5226250000000 1.0
C      1  0.5380240000000  0.4854460000000  0.4252880000000 1.0
C      1  0.4545590000000  0.5131970000000  0.4256590000000 1.0
C      1  0.4595920000000  0.4299220000000  0.5255450000000 1.0
C      1  0.4597900000000  0.5566210000000  0.5481620000000 1.0
C      1  0.5477560000000  0.5154990000000  0.4284530000000 1.0
C      1  0.5423160000000  0.4286370000000  0.5250200000000 1.0
C      1  0.5436400000000  0.5561630000000  0.5488690000000 1.0
C      1  0.5266620000000  0.4924540000000  0.4740150000000 1.0
C      1  0.5240410000000  0.4792850000000  0.5192890000000 1.0
C      1  0.5266230000000  0.5263930000000  0.5076770000000 1.0
C      1  0.4774720000000  0.4951500000000  0.4711350000000 1.0
C      1  0.4751860000000  0.4823580000000  0.5188530000000 1.0
C      1  0.4760460000000  0.5278400000000  0.5038470000000 1.0
C      1  0.4416080000000  0.5683390000000  0.5036890000000 1.0
C      1  0.4407150000000  0.4679350000000  0.4387520000000 1.0
C      1  0.4416490000000  0.4618390000000  0.5592030000000 1.0
C      1  0.5608860000000  0.5692100000000  0.5044340000000 1.0
C      1  0.5623060000000  0.4704020000000  0.4380420000000 1.0
C      1  0.5598600000000  0.4615390000000  0.5580260000000 1.0
C      1  0.5161370000000  0.4373540000000  0.5754350000000 1.0
C      1  0.5138500000000  0.5964810000000  0.5088640000000 1.0
C      1  0.5142610000000  0.4618500000000  0.4117160000000 1.0
C      1  0.4860410000000  0.4382710000000  0.5754780000000 1.0
C      1  0.4841380000000  0.5973900000000  0.5147930000000 1.0
C      1  0.4841570000000  0.4658010000000  0.4074380000000 1.0
C      1  0.5958110000000  0.5004550000000  0.5011540000000 1.0
C      1  0.4060210000000  0.4997840000000  0.5014200000000 1.0
END
