TITL C-3577085-527-380 -2.36851809602892e-07 125000 -251.872751742054 0 0 43 (Cs) n - 1
REM
REM in /home/bkarasulu/work/CARBON/AIRSS/Generating-Clusters/EDIP-Nigel-Params/with-SteepDescent/Higher-Symm/SD-CG/HFTN-CG
REM
REM
REM
REM
REM
REM ./C.cell (12c818d87b63d06a65506943cc24bca4)
REM
REM compiler GCC version 9.2.1 20190827 (Red Hat 9.2.1-1)
REM options -cpp -mtune=generic -march=x86-64 -g -O0 -fpre-include=/usr/include/finclude/math-vector-fortran.h
REM seed -1372372801 -113892839 -496593281 -176807043 -396805934 -601745015 1581841451 -874386225 -813408804 -1513518889 1026901993 -2135661180 -1526455319 -1945558145 -332097700 1687748109 -981479861 -1514437213 1892135838 -1117830394 -2029423501 -1544933514 -1804676263 -720814675 -1375945567 197714872 -1391112487 -1038913761 -1931272245 -2135185303 -633906848 100343079 1555700527
REM
CELL 1.54180   50.00000   50.00000   50.00000   90.00000   90.00000   90.00000
LATT -1
SFAC C  
C      1  0.4756770000000  0.5473320000000  0.5245020000000 1.0
C      1  0.5449120000000  0.5063820000000  0.5233760000000 1.0
C      1  0.4702070000000  0.4484320000000  0.5243840000000 1.0
C      1  0.4756760000000  0.5473330000000  0.4764460000000 1.0
C      1  0.5449110000000  0.5063830000000  0.4775680000000 1.0
C      1  0.4702060000000  0.4484330000000  0.4765620000000 1.0
C      1  0.5256110000000  0.5479950000000  0.5244830000000 1.0
C      1  0.4568660000000  0.5058850000000  0.5234410000000 1.0
C      1  0.5320070000000  0.4472170000000  0.5249770000000 1.0
C      1  0.5256100000000  0.5479960000000  0.4764630000000 1.0
C      1  0.4568640000000  0.5058860000000  0.4775070000000 1.0
C      1  0.5320060000000  0.4472170000000  0.4759660000000 1.0
C      1  0.5445050000000  0.4907980000000  0.5461310000000 1.0
C      1  0.4734390000000  0.4674290000000  0.5447090000000 1.0
C      1  0.4861480000000  0.5480870000000  0.5506950000000 1.0
C      1  0.5445030000000  0.4907990000000  0.4548120000000 1.0
C      1  0.4734370000000  0.4674300000000  0.4562370000000 1.0
C      1  0.4861450000000  0.5480890000000  0.4502530000000 1.0
C      1  0.4569200000000  0.4909220000000  0.5466440000000 1.0
C      1  0.5278200000000  0.4673440000000  0.5440620000000 1.0
C      1  0.5152020000000  0.5481400000000  0.5506880000000 1.0
C      1  0.4569180000000  0.4909240000000  0.4543040000000 1.0
C      1  0.5278180000000  0.4673460000000  0.4568820000000 1.0
C      1  0.5151990000000  0.5481420000000  0.4502590000000 1.0
C      1  0.5150870000000  0.4687440000000  0.4303780000000 1.0
C      1  0.4679940000000  0.5024830000000  0.4298050000000 1.0
C      1  0.5199490000000  0.5274300000000  0.4299180000000 1.0
C      1  0.5150900000000  0.4687420000000  0.5705660000000 1.0
C      1  0.4679970000000  0.5024810000000  0.5711430000000 1.0
C      1  0.5199530000000  0.5274280000000  0.5710280000000 1.0
C      1  0.4867040000000  0.4691350000000  0.4300400000000 1.0
C      1  0.5334950000000  0.5021700000000  0.4301940000000 1.0
C      1  0.4814710000000  0.5277080000000  0.4296080000000 1.0
C      1  0.4867070000000  0.4691330000000  0.5709050000000 1.0
C      1  0.5334990000000  0.5021680000000  0.5707500000000 1.0
C      1  0.4814750000000  0.5277060000000  0.5713390000000 1.0
C      1  0.5244640000000  0.4589000000000  0.5004720000000 1.0
C      1  0.4758950000000  0.4623000000000  0.5004730000000 1.0
C      1  0.5162770000000  0.5352240000000  0.5004730000000 1.0
C      1  0.4737080000000  0.5066110000000  0.5004740000000 1.0
C      1  0.4852430000000  0.5346880000000  0.5004740000000 1.0
C      1  0.5281750000000  0.5076600000000  0.5004720000000 1.0
C      1  0.5015410000000  0.4795080000000  0.5004730000000 1.0
END
