TITL C-3578206-1180-513 -5.08321001797252e-07 125000 -449.386523663175 0 0 75 (C1) n - 1
REM
REM in /home/bkarasulu/work/CARBON/AIRSS/Generating-Clusters/EDIP-Nigel-Params/with-SteepDescent/Higher-Symm/SD-CG/HFTN-CG
REM
REM
REM
REM
REM
REM ./C.cell (12c818d87b63d06a65506943cc24bca4)
REM
REM compiler GCC version 9.2.1 20190827 (Red Hat 9.2.1-1)
REM options -cpp -mtune=generic -march=x86-64 -g -O0 -fpre-include=/usr/include/finclude/math-vector-fortran.h
REM seed 2077540418 -541343031 2036451103 -1227318844 -1302521850 387399991 -622127443 -2108007224 1415247047 -1898309210 -1305141434 -1850658278 2026030457 -1942878382 -2123378403 468835105 -294712876 -661690876 -916741040 -850197228 -1477451794 -601636650 -1147029170 322283221 -1825324991 -1926244607 -1140503037 1622114056 898096486 -1587167880 -1131679099 -668284989 -1284945872
REM
CELL 1.54180   50.00000   50.00000   50.00000   90.00000   90.00000   90.00000
LATT -1
SFAC C  
C      1  0.5815420000000  0.4647030000000  0.5335810000000 1.0
C      1  0.5748510000000  0.4797920000000  0.4870160000000 1.0
C      1  0.4598320000000  0.4957480000000  0.4684840000000 1.0
C      1  0.4588240000000  0.4821120000000  0.5348150000000 1.0
C      1  0.5217760000000  0.4957470000000  0.4067100000000 1.0
C      1  0.5171830000000  0.5011700000000  0.5844390000000 1.0
C      1  0.5125850000000  0.4506350000000  0.4491770000000 1.0
C      1  0.5116700000000  0.4539840000000  0.5427510000000 1.0
C      1  0.5653710000000  0.5115120000000  0.4469000000000 1.0
C      1  0.5597650000000  0.5158990000000  0.5494790000000 1.0
C      1  0.4726820000000  0.5876020000000  0.5281860000000 1.0
C      1  0.4729440000000  0.5842920000000  0.4774980000000 1.0
C      1  0.5413890000000  0.5540950000000  0.4496810000000 1.0
C      1  0.5303540000000  0.5513100000000  0.5396210000000 1.0
C      1  0.5020500000000  0.5421740000000  0.5336270000000 1.0
C      1  0.5127720000000  0.5492110000000  0.4582730000000 1.0
C      1  0.4785490000000  0.4984020000000  0.5500610000000 1.0
C      1  0.4778770000000  0.5122860000000  0.4490570000000 1.0
C      1  0.5070560000000  0.5191150000000  0.4493470000000 1.0
C      1  0.5008410000000  0.5091800000000  0.5331450000000 1.0
C      1  0.5148320000000  0.4602070000000  0.4219400000000 1.0
C      1  0.5136700000000  0.4648710000000  0.5694030000000 1.0
C      1  0.4852520000000  0.5848410000000  0.5525830000000 1.0
C      1  0.4661330000000  0.5708290000000  0.4542560000000 1.0
C      1  0.5304100000000  0.4657210000000  0.5219150000000 1.0
C      1  0.5308180000000  0.4645900000000  0.4683200000000 1.0
C      1  0.5432360000000  0.4293080000000  0.5238020000000 1.0
C      1  0.5513150000000  0.4331210000000  0.4764240000000 1.0
C      1  0.4169820000000  0.4925410000000  0.5134100000000 1.0
C      1  0.4166620000000  0.4785860000000  0.4687670000000 1.0
C      1  0.4826540000000  0.5576650000000  0.5497720000000 1.0
C      1  0.4932600000000  0.5699830000000  0.4489850000000 1.0
C      1  0.5585660000000  0.5571620000000  0.4728410000000 1.0
C      1  0.5495030000000  0.5551630000000  0.5188810000000 1.0
C      1  0.5334850000000  0.4910630000000  0.4513690000000 1.0
C      1  0.5299610000000  0.4943870000000  0.5374680000000 1.0
C      1  0.5205550000000  0.5208950000000  0.4213700000000 1.0
C      1  0.5249030000000  0.5273800000000  0.5812300000000 1.0
C      1  0.4683900000000  0.4372790000000  0.5530510000000 1.0
C      1  0.4645940000000  0.4521160000000  0.4458690000000 1.0
C      1  0.4318830000000  0.4908560000000  0.5366120000000 1.0
C      1  0.4310490000000  0.5030420000000  0.4699130000000 1.0
C      1  0.4609810000000  0.4793930000000  0.4427820000000 1.0
C      1  0.4631190000000  0.4641320000000  0.5578370000000 1.0
C      1  0.5353630000000  0.4791690000000  0.4241370000000 1.0
C      1  0.5314900000000  0.4859110000000  0.5662800000000 1.0
C      1  0.5710060000000  0.4531290000000  0.4784890000000 1.0
C      1  0.5662110000000  0.4430990000000  0.5292890000000 1.0
C      1  0.5672300000000  0.5110100000000  0.5220790000000 1.0
C      1  0.5660570000000  0.5055420000000  0.4754880000000 1.0
C      1  0.4872100000000  0.4495980000000  0.4619730000000 1.0
C      1  0.4898210000000  0.4372080000000  0.5352830000000 1.0
C      1  0.5424890000000  0.5360670000000  0.5610290000000 1.0
C      1  0.5482080000000  0.5312840000000  0.4318640000000 1.0
C      1  0.5170550000000  0.4685410000000  0.4944550000000 1.0
C      1  0.4415570000000  0.5560530000000  0.5056280000000 1.0
C      1  0.4925320000000  0.5491660000000  0.5051470000000 1.0
C      1  0.4189780000000  0.4688000000000  0.4953400000000 1.0
C      1  0.4563440000000  0.4285850000000  0.5022270000000 1.0
C      1  0.4150780000000  0.5456180000000  0.4947240000000 1.0
C      1  0.4254440000000  0.5160070000000  0.4959530000000 1.0
C      1  0.4851020000000  0.4326860000000  0.5064830000000 1.0
C      1  0.5403610000000  0.5634170000000  0.4938210000000 1.0
C      1  0.4697070000000  0.5704910000000  0.5039610000000 1.0
C      1  0.5748460000000  0.4843600000000  0.5152160000000 1.0
C      1  0.5350150000000  0.4209520000000  0.4978090000000 1.0
C      1  0.4517170000000  0.5277140000000  0.5085480000000 1.0
C      1  0.5646630000000  0.5270210000000  0.4965240000000 1.0
C      1  0.4357010000000  0.4464870000000  0.5012640000000 1.0
C      1  0.4775730000000  0.5259940000000  0.4961900000000 1.0
C      1  0.5151380000000  0.5524200000000  0.4869050000000 1.0
C      1  0.4719900000000  0.4819710000000  0.4977100000000 1.0
C      1  0.4917970000000  0.5031380000000  0.5048740000000 1.0
C      1  0.4895630000000  0.4582570000000  0.4906390000000 1.0
C      1  0.5068340000000  0.4150580000000  0.4961630000000 1.0
END
