TITL C-3577091-527-43 1.29650479830186e-06 125000 -1130.47278341117 0 0 179 (C1) n - 1
REM
REM in /home/bkarasulu/work/CARBON/AIRSS/Generating-Clusters/EDIP-Nigel-Params/with-SteepDescent/Higher-Symm/SD-CG/HFTN-CG
REM
REM
REM
REM
REM
REM ./C.cell (12c818d87b63d06a65506943cc24bca4)
REM
REM compiler GCC version 9.2.1 20190827 (Red Hat 9.2.1-1)
REM options -cpp -mtune=generic -march=x86-64 -g -O0 -fpre-include=/usr/include/finclude/math-vector-fortran.h
REM seed -1662929238 -135731269 -671840977 2140844011 -1180906356 102475207 1618523944 220322146 -1264267354 1067702660 -1831550184 2027977402 595288634 -1085958237 -1290926927 109321798 -1251942934 -938539729 1674825660 -1233737235 396638809 -1049606675 -1884072900 1923992480 1697184192 1715745283 -1819609504 284208308 -1803580305 171037075 -1999688935 -1335667172 -1019986785
REM
CELL 1.54180   50.00000   50.00000   50.00000   90.00000   90.00000   90.00000
LATT -1
SFAC C  
C      1  0.5144800000000  0.4923330000000  0.5606490000000 1.0
C      1  0.5592810000000  0.4794850000000  0.5042080000000 1.0
C      1  0.5210860000000  0.4952740000000  0.4445720000000 1.0
C      1  0.4484810000000  0.4898470000000  0.4646960000000 1.0
C      1  0.4446720000000  0.4802860000000  0.5389530000000 1.0
C      1  0.4446450000000  0.5975240000000  0.5015990000000 1.0
C      1  0.4815030000000  0.5962300000000  0.5472620000000 1.0
C      1  0.5301920000000  0.5827260000000  0.5292320000000 1.0
C      1  0.5393520000000  0.6078980000000  0.4663180000000 1.0
C      1  0.4787660000000  0.5972290000000  0.4517560000000 1.0
C      1  0.5597950000000  0.5786550000000  0.5232470000000 1.0
C      1  0.5518480000000  0.5845400000000  0.4499210000000 1.0
C      1  0.4588120000000  0.5899680000000  0.4307730000000 1.0
C      1  0.4205860000000  0.5874800000000  0.5165290000000 1.0
C      1  0.4972340000000  0.5874780000000  0.5698960000000 1.0
C      1  0.5171370000000  0.4849560000000  0.6048550000000 1.0
C      1  0.6056260000000  0.4789440000000  0.5182770000000 1.0
C      1  0.5458110000000  0.4880640000000  0.4083080000000 1.0
C      1  0.4228340000000  0.4854010000000  0.4284190000000 1.0
C      1  0.4028130000000  0.4794590000000  0.5522170000000 1.0
C      1  0.5058250000000  0.4042460000000  0.5613590000000 1.0
C      1  0.5618540000000  0.4042450000000  0.5148420000000 1.0
C      1  0.5403440000000  0.3967430000000  0.4445850000000 1.0
C      1  0.4648070000000  0.3976660000000  0.4465010000000 1.0
C      1  0.4423420000000  0.4024540000000  0.5185780000000 1.0
C      1  0.5707600000000  0.5043950000000  0.4195640000000 1.0
C      1  0.4419340000000  0.4982220000000  0.4087830000000 1.0
C      1  0.3880400000000  0.4867630000000  0.5291010000000 1.0
C      1  0.4910700000000  0.5001470000000  0.6106130000000 1.0
C      1  0.6005960000000  0.4989970000000  0.5422110000000 1.0
C      1  0.5692600000000  0.4526780000000  0.5384850000000 1.0
C      1  0.5546380000000  0.4561230000000  0.4473860000000 1.0
C      1  0.4641100000000  0.4537230000000  0.4332360000000 1.0
C      1  0.4230630000000  0.4523470000000  0.5083950000000 1.0
C      1  0.4854830000000  0.4563240000000  0.5789730000000 1.0
C      1  0.4900410000000  0.6091950000000  0.5232420000000 1.0
C      1  0.5180430000000  0.6066940000000  0.5145520000000 1.0
C      1  0.5165040000000  0.6058600000000  0.4845970000000 1.0
C      1  0.4884420000000  0.6100340000000  0.4761180000000 1.0
C      1  0.4717210000000  0.6095800000000  0.5003940000000 1.0
C      1  0.4753760000000  0.4207450000000  0.5115950000000 1.0
C      1  0.5112970000000  0.4289330000000  0.5319120000000 1.0
C      1  0.5377200000000  0.4290230000000  0.4974930000000 1.0
C      1  0.4952690000000  0.4400330000000  0.4723950000000 1.0
C      1  0.4662020000000  0.4477540000000  0.4782020000000 1.0
C      1  0.5549810000000  0.3888470000000  0.4909400000000 1.0
C      1  0.5129180000000  0.3908130000000  0.4477990000000 1.0
C      1  0.4589420000000  0.3916070000000  0.4733490000000 1.0
C      1  0.4652130000000  0.3910310000000  0.5342700000000 1.0
C      1  0.5252150000000  0.3892660000000  0.5454780000000 1.0
C      1  0.4936750000000  0.4922330000000  0.4035590000000 1.0
C      1  0.4010580000000  0.4909540000000  0.4761320000000 1.0
C      1  0.4423830000000  0.4916040000000  0.5860450000000 1.0
C      1  0.5600330000000  0.4924140000000  0.5782790000000 1.0
C      1  0.5951190000000  0.4883530000000  0.4684110000000 1.0
C      1  0.5785480000000  0.5737820000000  0.5455820000000 1.0
C      1  0.5810580000000  0.5777490000000  0.4456070000000 1.0
C      1  0.4704600000000  0.5808480000000  0.4041390000000 1.0
C      1  0.3978290000000  0.5782130000000  0.4981820000000 1.0
C      1  0.4766930000000  0.5760720000000  0.5896270000000 1.0
C      1  0.4863570000000  0.4851950000000  0.5655100000000 1.0
C      1  0.5527250000000  0.4888620000000  0.5333280000000 1.0
C      1  0.5472740000000  0.4857520000000  0.4570360000000 1.0
C      1  0.4705140000000  0.4831710000000  0.4452820000000 1.0
C      1  0.4312530000000  0.4827960000000  0.5115770000000 1.0
C      1  0.6024790000000  0.5276490000000  0.5322880000000 1.0
C      1  0.5678140000000  0.5350320000000  0.4185070000000 1.0
C      1  0.4502830000000  0.5333220000000  0.4115630000000 1.0
C      1  0.4028180000000  0.5292170000000  0.5148050000000 1.0
C      1  0.4924560000000  0.5292220000000  0.6040390000000 1.0
C      1  0.3981400000000  0.5475410000000  0.4923990000000 1.0
C      1  0.4726110000000  0.5458250000000  0.5902730000000 1.0
C      1  0.5911300000000  0.5476210000000  0.5506760000000 1.0
C      1  0.5864760000000  0.5513110000000  0.4340990000000 1.0
C      1  0.4737620000000  0.5503370000000  0.4024610000000 1.0
C      1  0.4039490000000  0.4991610000000  0.5079180000000 1.0
C      1  0.4718300000000  0.5024670000000  0.5853410000000 1.0
C      1  0.5702930000000  0.5044350000000  0.5516360000000 1.0
C      1  0.5730730000000  0.5016910000000  0.4505540000000 1.0
C      1  0.4698120000000  0.5008490000000  0.4204180000000 1.0
C      1  0.5928500000000  0.5667530000000  0.4870820000000 1.0
C      1  0.5082090000000  0.5762230000000  0.4263770000000 1.0
C      1  0.4286620000000  0.5751890000000  0.4669120000000 1.0
C      1  0.4472210000000  0.5702220000000  0.5572030000000 1.0
C      1  0.5471310000000  0.5711360000000  0.5763950000000 1.0
C      1  0.5193580000000  0.5022400000000  0.4160660000000 1.0
C      1  0.4228710000000  0.4996910000000  0.4558390000000 1.0
C      1  0.4289810000000  0.4966830000000  0.5594390000000 1.0
C      1  0.5315130000000  0.5005980000000  0.5828490000000 1.0
C      1  0.5883950000000  0.4928290000000  0.4977840000000 1.0
C      1  0.4680480000000  0.4376480000000  0.5595400000000 1.0
C      1  0.5423100000000  0.4337030000000  0.5463620000000 1.0
C      1  0.5572790000000  0.4315460000000  0.4741170000000 1.0
C      1  0.4931050000000  0.4352960000000  0.4411360000000 1.0
C      1  0.4380180000000  0.4371290000000  0.4834700000000 1.0
C      1  0.4264660000000  0.5290360000000  0.4549820000000 1.0
C      1  0.4349680000000  0.5253650000000  0.5521390000000 1.0
C      1  0.5310120000000  0.5302290000000  0.5819580000000 1.0
C      1  0.5890130000000  0.5230550000000  0.5048410000000 1.0
C      1  0.5187150000000  0.5315760000000  0.4148200000000 1.0
C      1  0.4966960000000  0.5926780000000  0.4060000000000 1.0
C      1  0.4054280000000  0.5907440000000  0.4731310000000 1.0
C      1  0.4514530000000  0.5870960000000  0.5798660000000 1.0
C      1  0.5685780000000  0.5872380000000  0.5684380000000 1.0
C      1  0.5977500000000  0.5850670000000  0.4665150000000 1.0
C      1  0.4848720000000  0.5662320000000  0.4737630000000 1.0
C      1  0.4662930000000  0.5657880000000  0.4996090000000 1.0
C      1  0.4840720000000  0.5653160000000  0.5248450000000 1.0
C      1  0.5128440000000  0.5607350000000  0.5163170000000 1.0
C      1  0.5425120000000  0.5708040000000  0.4778220000000 1.0
C      1  0.4784490000000  0.4095110000000  0.5543600000000 1.0
C      1  0.5508430000000  0.4046880000000  0.5420480000000 1.0
C      1  0.5594830000000  0.4030260000000  0.4644620000000 1.0
C      1  0.4898180000000  0.4059230000000  0.4362720000000 1.0
C      1  0.4397820000000  0.4072210000000  0.4898120000000 1.0
C      1  0.5135610000000  0.3817150000000  0.5197660000000 1.0
C      1  0.5274300000000  0.3794280000000  0.4944420000000 1.0
C      1  0.5071810000000  0.3800230000000  0.4740440000000 1.0
C      1  0.4819150000000  0.3819090000000  0.4876700000000 1.0
C      1  0.4849900000000  0.3778690000000  0.5162660000000 1.0
C      1  0.5063460000000  0.4688330000000  0.4801520000000 1.0
C      1  0.4720570000000  0.4677150000000  0.4982360000000 1.0
C      1  0.4710550000000  0.4494920000000  0.5226050000000 1.0
C      1  0.4979110000000  0.4545740000000  0.5319350000000 1.0
C      1  0.5376180000000  0.4560140000000  0.5085420000000 1.0
C      1  0.5443610000000  0.5222090000000  0.4845740000000 1.0
C      1  0.4905390000000  0.5193490000000  0.4741450000000 1.0
C      1  0.4679690000000  0.5169730000000  0.4984380000000 1.0
C      1  0.4796980000000  0.5150510000000  0.5256180000000 1.0
C      1  0.5233760000000  0.5294160000000  0.5326900000000 1.0
C      1  0.5215410000000  0.5719730000000  0.5601180000000 1.0
C      1  0.5645740000000  0.5640460000000  0.4984710000000 1.0
C      1  0.5366660000000  0.5727250000000  0.4275470000000 1.0
C      1  0.4384930000000  0.5711610000000  0.4400670000000 1.0
C      1  0.4253010000000  0.5675280000000  0.5377750000000 1.0
C      1  0.5828680000000  0.4545150000000  0.4403880000000 1.0
C      1  0.4677910000000  0.4534240000000  0.4042440000000 1.0
C      1  0.3950490000000  0.4510520000000  0.5001560000000 1.0
C      1  0.4678770000000  0.4567610000000  0.6024320000000 1.0
C      1  0.5836050000000  0.4543740000000  0.5636270000000 1.0
C      1  0.4251720000000  0.5473800000000  0.4785100000000 1.0
C      1  0.4582880000000  0.5429850000000  0.5623460000000 1.0
C      1  0.5574900000000  0.5430410000000  0.5700130000000 1.0
C      1  0.5964210000000  0.5383460000000  0.4798680000000 1.0
C      1  0.4955710000000  0.5487280000000  0.4241370000000 1.0
C      1  0.4482730000000  0.5428340000000  0.4399590000000 1.0
C      1  0.4278430000000  0.5397900000000  0.5265550000000 1.0
C      1  0.5127400000000  0.5417120000000  0.5595490000000 1.0
C      1  0.5612830000000  0.5349270000000  0.5072340000000 1.0
C      1  0.5415140000000  0.5446600000000  0.4245100000000 1.0
C      1  0.5428910000000  0.4930920000000  0.4850080000000 1.0
C      1  0.4969700000000  0.4913980000000  0.4609180000000 1.0
C      1  0.4538960000000  0.4905920000000  0.4931450000000 1.0
C      1  0.4729600000000  0.4901090000000  0.5395280000000 1.0
C      1  0.5234560000000  0.4972490000000  0.5335370000000 1.0
C      1  0.5712790000000  0.5303650000000  0.4621620000000 1.0
C      1  0.4792530000000  0.5422940000000  0.4531630000000 1.0
C      1  0.4477140000000  0.5414450000000  0.5002230000000 1.0
C      1  0.4812750000000  0.5400640000000  0.5425620000000 1.0
C      1  0.5522920000000  0.5328580000000  0.5366650000000 1.0
C      1  0.5632020000000  0.4630840000000  0.5808970000000 1.0
C      1  0.5954010000000  0.4596630000000  0.4648640000000 1.0
C      1  0.4939570000000  0.4630670000000  0.4015600000000 1.0
C      1  0.3971210000000  0.4615700000000  0.4738720000000 1.0
C      1  0.4429710000000  0.4626690000000  0.5906970000000 1.0
C      1  0.5140050000000  0.4566200000000  0.5918630000000 1.0
C      1  0.5912340000000  0.4515470000000  0.5165270000000 1.0
C      1  0.5406060000000  0.4592980000000  0.4205250000000 1.0
C      1  0.4317340000000  0.4567870000000  0.4352860000000 1.0
C      1  0.4174600000000  0.4532770000000  0.5469890000000 1.0
C      1  0.5383280000000  0.4472220000000  0.5760980000000 1.0
C      1  0.5824550000000  0.4454380000000  0.4873590000000 1.0
C      1  0.5119120000000  0.4506080000000  0.4211780000000 1.0
C      1  0.4192540000000  0.4456970000000  0.4604350000000 1.0
C      1  0.4393090000000  0.4459290000000  0.5662480000000 1.0
C      1  0.5141130000000  0.5601820000000  0.4860090000000 1.0
C      1  0.5060070000000  0.4178900000000  0.4955290000000 1.0
C      1  0.5164540000000  0.5322120000000  0.4823230000000 1.0
C      1  0.5129700000000  0.4724660000000  0.5144250000000 1.0
END
