TITL C-3578200-9634-462 -1.46467162326443e-06 125000 -984.993821861738 0 0 155 (C1) n - 1
REM
REM in /home/bkarasulu/work/CARBON/AIRSS/Generating-Clusters/EDIP-Nigel-Params/with-SteepDescent/Higher-Symm/SD-CG/HFTN-CG
REM
REM
REM
REM
REM
REM ./C.cell (12c818d87b63d06a65506943cc24bca4)
REM
REM compiler GCC version 9.2.1 20190827 (Red Hat 9.2.1-1)
REM options -cpp -mtune=generic -march=x86-64 -g -O0 -fpre-include=/usr/include/finclude/math-vector-fortran.h
REM seed 1624910546 1620913881 1491893867 2372226 429957160 884201839 -225068590 -1591833412 -511905158 602198541 -1080502398 -1403108492 -1507162821 280702522 -1561081423 2056304477 -344663302 629234540 2112452878 -1771624041 -1530283917 1058329648 -562824112 1866243782 -1082607292 -249422923 -1064417088 626632855 1206625222 -2132465154 -812328703 -373329354 72305092
REM
CELL 1.54180   50.00000   50.00000   50.00000   90.00000   90.00000   90.00000
LATT -1
SFAC C  
C      1  0.4561480000000  0.5656570000000  0.5068630000000 1.0
C      1  0.4917930000000  0.5628890000000  0.5425280000000 1.0
C      1  0.5368980000000  0.5601420000000  0.5193880000000 1.0
C      1  0.5285330000000  0.5617230000000  0.4695540000000 1.0
C      1  0.4793290000000  0.5650250000000  0.4634680000000 1.0
C      1  0.4588160000000  0.4408940000000  0.5063860000000 1.0
C      1  0.4945010000000  0.4392380000000  0.5418550000000 1.0
C      1  0.5390590000000  0.4360090000000  0.5195550000000 1.0
C      1  0.5319270000000  0.4357990000000  0.4705140000000 1.0
C      1  0.4821960000000  0.4386290000000  0.4617760000000 1.0
C      1  0.5580090000000  0.4385310000000  0.5593820000000 1.0
C      1  0.5755060000000  0.4381090000000  0.4641930000000 1.0
C      1  0.4905210000000  0.4400950000000  0.4187600000000 1.0
C      1  0.4208290000000  0.4413110000000  0.4845730000000 1.0
C      1  0.4612010000000  0.4419810000000  0.5704500000000 1.0
C      1  0.5550080000000  0.5595010000000  0.5592690000000 1.0
C      1  0.5724360000000  0.5594820000000  0.4660310000000 1.0
C      1  0.4888640000000  0.5619270000000  0.4204060000000 1.0
C      1  0.4171290000000  0.5625350000000  0.4861060000000 1.0
C      1  0.4600550000000  0.5623340000000  0.5726640000000 1.0
C      1  0.5207250000000  0.4012490000000  0.4295520000000 1.0
C      1  0.4400480000000  0.4028560000000  0.4587520000000 1.0
C      1  0.4424230000000  0.4034200000000  0.5448230000000 1.0
C      1  0.5242140000000  0.4024790000000  0.5694290000000 1.0
C      1  0.5744540000000  0.4005510000000  0.4975570000000 1.0
C      1  0.5215300000000  0.5989530000000  0.4293090000000 1.0
C      1  0.4374460000000  0.6000790000000  0.4591350000000 1.0
C      1  0.4406470000000  0.5999220000000  0.5456900000000 1.0
C      1  0.5251320000000  0.5989150000000  0.5685660000000 1.0
C      1  0.5726810000000  0.5977330000000  0.4981090000000 1.0
C      1  0.5797420000000  0.4842440000000  0.5450870000000 1.0
C      1  0.5678680000000  0.4840560000000  0.4398090000000 1.0
C      1  0.4640430000000  0.4862150000000  0.4178500000000 1.0
C      1  0.4101550000000  0.4864500000000  0.5096340000000 1.0
C      1  0.4814950000000  0.4869690000000  0.5865020000000 1.0
C      1  0.5782880000000  0.5143410000000  0.5451280000000 1.0
C      1  0.5672120000000  0.5140840000000  0.4402330000000 1.0
C      1  0.4637830000000  0.5163010000000  0.4188960000000 1.0
C      1  0.4085890000000  0.5164850000000  0.5102830000000 1.0
C      1  0.4812030000000  0.5166590000000  0.5872880000000 1.0
C      1  0.4846720000000  0.5760960000000  0.5823230000000 1.0
C      1  0.5719660000000  0.5730880000000  0.5392870000000 1.0
C      1  0.5601490000000  0.5735400000000  0.4432710000000 1.0
C      1  0.4628160000000  0.5758640000000  0.4253690000000 1.0
C      1  0.4146700000000  0.5761280000000  0.5124500000000 1.0
C      1  0.4847010000000  0.4277930000000  0.5818260000000 1.0
C      1  0.5754410000000  0.4246410000000  0.5395470000000 1.0
C      1  0.5617730000000  0.4241540000000  0.4417790000000 1.0
C      1  0.4649250000000  0.4263810000000  0.4246390000000 1.0
C      1  0.4188610000000  0.4276780000000  0.5107430000000 1.0
C      1  0.5408580000000  0.4038230000000  0.4498680000000 1.0
C      1  0.4657550000000  0.4057960000000  0.4463910000000 1.0
C      1  0.4392050000000  0.4069100000000  0.5165840000000 1.0
C      1  0.4963370000000  0.4064960000000  0.5643480000000 1.0
C      1  0.5612860000000  0.4041310000000  0.5227470000000 1.0
C      1  0.5401100000000  0.5943600000000  0.4505750000000 1.0
C      1  0.4632740000000  0.5967550000000  0.4471650000000 1.0
C      1  0.4358450000000  0.5966690000000  0.5176860000000 1.0
C      1  0.4969240000000  0.5964200000000  0.5639550000000 1.0
C      1  0.5588510000000  0.5940250000000  0.5229030000000 1.0
C      1  0.4656800000000  0.5489320000000  0.5308960000000 1.0
C      1  0.5167130000000  0.5442740000000  0.5382680000000 1.0
C      1  0.5400400000000  0.5430500000000  0.4934350000000 1.0
C      1  0.5035500000000  0.5483010000000  0.4598740000000 1.0
C      1  0.4587990000000  0.5499320000000  0.4799030000000 1.0
C      1  0.4714300000000  0.4577460000000  0.5293470000000 1.0
C      1  0.5216860000000  0.4529620000000  0.5389630000000 1.0
C      1  0.5458550000000  0.4512270000000  0.4940540000000 1.0
C      1  0.5102480000000  0.4526840000000  0.4564870000000 1.0
C      1  0.4641640000000  0.4571260000000  0.4794470000000 1.0
C      1  0.4276740000000  0.5736290000000  0.4596120000000 1.0
C      1  0.4380170000000  0.5734530000000  0.5551790000000 1.0
C      1  0.5324710000000  0.5723180000000  0.5744560000000 1.0
C      1  0.5808350000000  0.5714040000000  0.4920460000000 1.0
C      1  0.5175650000000  0.5728170000000  0.4193530000000 1.0
C      1  0.4305070000000  0.4294100000000  0.4586900000000 1.0
C      1  0.4391940000000  0.4297970000000  0.5543370000000 1.0
C      1  0.5331620000000  0.4287630000000  0.5742810000000 1.0
C      1  0.5826070000000  0.4268680000000  0.4914090000000 1.0
C      1  0.5180770000000  0.4278570000000  0.4205400000000 1.0
C      1  0.5116620000000  0.4774480000000  0.4290950000000 1.0
C      1  0.4380190000000  0.4785130000000  0.4678500000000 1.0
C      1  0.4508860000000  0.4778650000000  0.5467350000000 1.0
C      1  0.5359820000000  0.4753840000000  0.5671120000000 1.0
C      1  0.5761390000000  0.4750450000000  0.4880630000000 1.0
C      1  0.5118210000000  0.5242790000000  0.4236330000000 1.0
C      1  0.4312930000000  0.5259000000000  0.4666410000000 1.0
C      1  0.4450690000000  0.5256270000000  0.5540130000000 1.0
C      1  0.5312630000000  0.5220570000000  0.5614540000000 1.0
C      1  0.5672230000000  0.5233430000000  0.4907330000000 1.0
C      1  0.5924910000000  0.5297720000000  0.5250520000000 1.0
C      1  0.5553050000000  0.5299300000000  0.4182630000000 1.0
C      1  0.4392610000000  0.5315370000000  0.4243790000000 1.0
C      1  0.4066150000000  0.5319720000000  0.5353700000000 1.0
C      1  0.5046160000000  0.5315810000000  0.5958430000000 1.0
C      1  0.5958510000000  0.4686900000000  0.5257620000000 1.0
C      1  0.5540680000000  0.4686130000000  0.4193420000000 1.0
C      1  0.4404070000000  0.4704150000000  0.4243950000000 1.0
C      1  0.4102080000000  0.4710550000000  0.5342210000000 1.0
C      1  0.5042170000000  0.4713530000000  0.5967100000000 1.0
C      1  0.4833400000000  0.4785060000000  0.4877720000000 1.0
C      1  0.4875710000000  0.4791880000000  0.5164090000000 1.0
C      1  0.5168940000000  0.4796490000000  0.5233950000000 1.0
C      1  0.5314050000000  0.4783920000000  0.4955560000000 1.0
C      1  0.5092670000000  0.4783880000000  0.4735340000000 1.0
C      1  0.4710260000000  0.5224910000000  0.4870960000000 1.0
C      1  0.4759620000000  0.5221610000000  0.5182900000000 1.0
C      1  0.5056930000000  0.5226440000000  0.5209020000000 1.0
C      1  0.5192780000000  0.5213380000000  0.4951510000000 1.0
C      1  0.4992150000000  0.5215980000000  0.4726700000000 1.0
C      1  0.4748040000000  0.4138710000000  0.5043780000000 1.0
C      1  0.4962660000000  0.4125450000000  0.5258820000000 1.0
C      1  0.5236060000000  0.4103220000000  0.5120510000000 1.0
C      1  0.5186800000000  0.4102410000000  0.4817870000000 1.0
C      1  0.4884290000000  0.4123400000000  0.4772450000000 1.0
C      1  0.4738640000000  0.5909580000000  0.5050890000000 1.0
C      1  0.4959330000000  0.5889920000000  0.5260890000000 1.0
C      1  0.5228420000000  0.5872100000000  0.5118560000000 1.0
C      1  0.5178790000000  0.5886960000000  0.4819530000000 1.0
C      1  0.4873240000000  0.5911320000000  0.4776910000000 1.0
C      1  0.5430350000000  0.4424590000000  0.4282190000000 1.0
C      1  0.4456750000000  0.4443570000000  0.4375790000000 1.0
C      1  0.4243470000000  0.4452230000000  0.5335020000000 1.0
C      1  0.5087270000000  0.4448180000000  0.5831620000000 1.0
C      1  0.5827190000000  0.4426850000000  0.5171530000000 1.0
C      1  0.5422920000000  0.5561850000000  0.4278150000000 1.0
C      1  0.4434190000000  0.5578330000000  0.4389300000000 1.0
C      1  0.4224030000000  0.5578770000000  0.5345030000000 1.0
C      1  0.5078630000000  0.5580850000000  0.5833520000000 1.0
C      1  0.5807120000000  0.5557100000000  0.5174910000000 1.0
C      1  0.4101520000000  0.5334270000000  0.4860440000000 1.0
C      1  0.4582660000000  0.5333520000000  0.5793140000000 1.0
C      1  0.5593680000000  0.5303040000000  0.5617100000000 1.0
C      1  0.5768080000000  0.5303850000000  0.4631260000000 1.0
C      1  0.4867340000000  0.5335400000000  0.4113530000000 1.0
C      1  0.4156390000000  0.4703710000000  0.4853310000000 1.0
C      1  0.4596180000000  0.4711420000000  0.5746630000000 1.0
C      1  0.5644300000000  0.4674190000000  0.5639860000000 1.0
C      1  0.5810010000000  0.4671200000000  0.4600850000000 1.0
C      1  0.4880760000000  0.4693030000000  0.4139030000000 1.0
C      1  0.5291890000000  0.5168220000000  0.5914410000000 1.0
C      1  0.6024720000000  0.5140770000000  0.5035610000000 1.0
C      1  0.5333970000000  0.5143630000000  0.4043610000000 1.0
C      1  0.4192650000000  0.5155910000000  0.4397990000000 1.0
C      1  0.4160300000000  0.5158770000000  0.5590890000000 1.0
C      1  0.5299210000000  0.4865140000000  0.5957210000000 1.0
C      1  0.6024920000000  0.4849500000000  0.5012650000000 1.0
C      1  0.5322220000000  0.4836760000000  0.4077090000000 1.0
C      1  0.4221310000000  0.4849880000000  0.4416940000000 1.0
C      1  0.4148100000000  0.4867540000000  0.5574260000000 1.0
C      1  0.4488720000000  0.5045270000000  0.4774110000000 1.0
C      1  0.4603570000000  0.5054210000000  0.5390570000000 1.0
C      1  0.5287540000000  0.4958330000000  0.5472460000000 1.0
C      1  0.5552760000000  0.4960340000000  0.4902220000000 1.0
C      1  0.5047280000000  0.5034970000000  0.4439300000000 1.0
END
