TITL C-3578206-1180-754 -5.39158045214432e-06 125000 -1066.28855371057 0 0 169 (C1) n - 1
REM
REM in /home/bkarasulu/work/CARBON/AIRSS/Generating-Clusters/EDIP-Nigel-Params/with-SteepDescent/Higher-Symm/SD-CG/HFTN-CG
REM
REM
REM
REM
REM
REM ./C.cell (12c818d87b63d06a65506943cc24bca4)
REM
REM compiler GCC version 9.2.1 20190827 (Red Hat 9.2.1-1)
REM options -cpp -mtune=generic -march=x86-64 -g -O0 -fpre-include=/usr/include/finclude/math-vector-fortran.h
REM seed 836007618 -688724340 -553776042 819436460 887012720 -599027481 -701681982 -2088023254 1651044403 658035104 320780248 -277123503 1458271768 -1086066794 2057423237 33070726 72680770 1359548709 87585878 -1087758033 -684601941 1222493408 -1845127153 1198541493 -2092813945 -2014765050 631203142 -418961746 268005371 -680393550 2102444439 272268285 -1840672350
REM
CELL 1.54180   50.00000   50.00000   50.00000   90.00000   90.00000   90.00000
LATT -1
SFAC C  
C      1  0.4150760000000  0.5013060000000  0.5343170000000 1.0
C      1  0.4100000000000  0.5042760000000  0.4491620000000 1.0
C      1  0.4878300000000  0.5053220000000  0.4087890000000 1.0
C      1  0.5700860000000  0.5102050000000  0.4361720000000 1.0
C      1  0.5887370000000  0.4989820000000  0.5087020000000 1.0
C      1  0.5511500000000  0.5000240000000  0.5765650000000 1.0
C      1  0.4728030000000  0.5053720000000  0.5913730000000 1.0
C      1  0.5379300000000  0.4969520000000  0.4013650000000 1.0
C      1  0.5955690000000  0.4938430000000  0.4611130000000 1.0
C      1  0.5947420000000  0.4893450000000  0.5580360000000 1.0
C      1  0.5143120000000  0.4906020000000  0.6099610000000 1.0
C      1  0.4259140000000  0.4898240000000  0.5793820000000 1.0
C      1  0.3915380000000  0.4882700000000  0.4906990000000 1.0
C      1  0.4414300000000  0.4876550000000  0.4112820000000 1.0
C      1  0.5639060000000  0.4218640000000  0.4887990000000 1.0
C      1  0.5523480000000  0.4176030000000  0.5408310000000 1.0
C      1  0.5043200000000  0.4220700000000  0.5694720000000 1.0
C      1  0.4510910000000  0.4192770000000  0.5464000000000 1.0
C      1  0.4333030000000  0.4192180000000  0.4801840000000 1.0
C      1  0.4707140000000  0.4148630000000  0.4308950000000 1.0
C      1  0.5334570000000  0.4206180000000  0.4400380000000 1.0
C      1  0.5363250000000  0.4802930000000  0.4596590000000 1.0
C      1  0.5587710000000  0.4748770000000  0.5068220000000 1.0
C      1  0.5331780000000  0.4889680000000  0.5519050000000 1.0
C      1  0.4835010000000  0.4921210000000  0.5562230000000 1.0
C      1  0.4438280000000  0.4914490000000  0.5245890000000 1.0
C      1  0.4488180000000  0.4794350000000  0.4743940000000 1.0
C      1  0.4884640000000  0.4893080000000  0.4442520000000 1.0
C      1  0.4901770000000  0.4745990000000  0.5317830000000 1.0
C      1  0.4674350000000  0.4612080000000  0.5183670000000 1.0
C      1  0.4685850000000  0.4587070000000  0.4856380000000 1.0
C      1  0.4914380000000  0.4682140000000  0.4688000000000 1.0
C      1  0.5185320000000  0.4653300000000  0.4778770000000 1.0
C      1  0.5310600000000  0.4565070000000  0.5037570000000 1.0
C      1  0.5157420000000  0.4599250000000  0.5332200000000 1.0
C      1  0.4441010000000  0.4412970000000  0.5643580000000 1.0
C      1  0.4215210000000  0.4429450000000  0.4932310000000 1.0
C      1  0.4553420000000  0.4396400000000  0.4275120000000 1.0
C      1  0.5250000000000  0.4454840000000  0.4266400000000 1.0
C      1  0.5721790000000  0.4463650000000  0.4755900000000 1.0
C      1  0.5650180000000  0.4447220000000  0.5374690000000 1.0
C      1  0.5144600000000  0.4450620000000  0.5843280000000 1.0
C      1  0.4916580000000  0.4143010000000  0.4118360000000 1.0
C      1  0.5616390000000  0.4197310000000  0.4404330000000 1.0
C      1  0.5833270000000  0.4165230000000  0.5090690000000 1.0
C      1  0.5477590000000  0.4139540000000  0.5685760000000 1.0
C      1  0.4790940000000  0.4150070000000  0.5804910000000 1.0
C      1  0.4278280000000  0.4131270000000  0.5308980000000 1.0
C      1  0.4230560000000  0.4173780000000  0.4537970000000 1.0
C      1  0.5602860000000  0.4885430000000  0.4763320000000 1.0
C      1  0.5478780000000  0.5003960000000  0.5271580000000 1.0
C      1  0.5092360000000  0.5088260000000  0.5567430000000 1.0
C      1  0.4618420000000  0.5095800000000  0.5425280000000 1.0
C      1  0.4448720000000  0.5025620000000  0.4957880000000 1.0
C      1  0.4663500000000  0.5082430000000  0.4543030000000 1.0
C      1  0.5162650000000  0.5031660000000  0.4494460000000 1.0
C      1  0.5255870000000  0.3751000000000  0.4947430000000 1.0
C      1  0.5203720000000  0.3837620000000  0.5206830000000 1.0
C      1  0.4943430000000  0.3770940000000  0.5288000000000 1.0
C      1  0.4751650000000  0.3851430000000  0.5098950000000 1.0
C      1  0.4744420000000  0.3705820000000  0.4860580000000 1.0
C      1  0.4882650000000  0.3827470000000  0.4647880000000 1.0
C      1  0.5172020000000  0.3847090000000  0.4698100000000 1.0
C      1  0.4528860000000  0.5608840000000  0.5468440000000 1.0
C      1  0.4317550000000  0.5584210000000  0.4955670000000 1.0
C      1  0.4608200000000  0.5605950000000  0.4454190000000 1.0
C      1  0.5164380000000  0.5648310000000  0.4397350000000 1.0
C      1  0.5570330000000  0.5598400000000  0.4679720000000 1.0
C      1  0.5601320000000  0.5586320000000  0.5299390000000 1.0
C      1  0.5131500000000  0.5603710000000  0.5658470000000 1.0
C      1  0.4718790000000  0.6198110000000  0.4486560000000 1.0
C      1  0.5208010000000  0.6201440000000  0.4538900000000 1.0
C      1  0.5564680000000  0.6174570000000  0.4891820000000 1.0
C      1  0.5518890000000  0.6122900000000  0.5354480000000 1.0
C      1  0.5042540000000  0.6139120000000  0.5496380000000 1.0
C      1  0.4609340000000  0.6158440000000  0.5270370000000 1.0
C      1  0.4394200000000  0.6200920000000  0.4848680000000 1.0
C      1  0.4812630000000  0.4119030000000  0.4589080000000 1.0
C      1  0.5186970000000  0.4146900000000  0.4665060000000 1.0
C      1  0.5347100000000  0.4256240000000  0.4958340000000 1.0
C      1  0.5275840000000  0.4127150000000  0.5239420000000 1.0
C      1  0.5047070000000  0.4301350000000  0.5397110000000 1.0
C      1  0.4739010000000  0.4307160000000  0.5286980000000 1.0
C      1  0.4633170000000  0.4254440000000  0.4809550000000 1.0
C      1  0.5308340000000  0.5263550000000  0.4879590000000 1.0
C      1  0.5263370000000  0.5145490000000  0.5135840000000 1.0
C      1  0.5065950000000  0.5253370000000  0.5317060000000 1.0
C      1  0.4777110000000  0.5258790000000  0.5232850000000 1.0
C      1  0.4707250000000  0.5152980000000  0.4978230000000 1.0
C      1  0.4815850000000  0.5249750000000  0.4738570000000 1.0
C      1  0.5092870000000  0.5171910000000  0.4724000000000 1.0
C      1  0.4057880000000  0.5525060000000  0.4538980000000 1.0
C      1  0.4777300000000  0.5531970000000  0.4001910000000 1.0
C      1  0.5588400000000  0.5570740000000  0.4189190000000 1.0
C      1  0.5987120000000  0.5397450000000  0.4814410000000 1.0
C      1  0.5669510000000  0.5498810000000  0.5791880000000 1.0
C      1  0.4756040000000  0.5542780000000  0.5972880000000 1.0
C      1  0.4066610000000  0.5502260000000  0.5394960000000 1.0
C      1  0.4621720000000  0.5625720000000  0.4963870000000 1.0
C      1  0.4786670000000  0.5551180000000  0.4715690000000 1.0
C      1  0.5078370000000  0.5657730000000  0.4696290000000 1.0
C      1  0.5311970000000  0.5561830000000  0.4872410000000 1.0
C      1  0.5324500000000  0.5632720000000  0.5174650000000 1.0
C      1  0.5093820000000  0.5552970000000  0.5353360000000 1.0
C      1  0.4722800000000  0.5554460000000  0.5236630000000 1.0
C      1  0.5610520000000  0.4569240000000  0.5644150000000 1.0
C      1  0.4885240000000  0.4601150000000  0.5863530000000 1.0
C      1  0.4271000000000  0.4566720000000  0.5456320000000 1.0
C      1  0.4246410000000  0.4621040000000  0.4678530000000 1.0
C      1  0.4761940000000  0.4572580000000  0.4175340000000 1.0
C      1  0.5477380000000  0.4648600000000  0.4359380000000 1.0
C      1  0.5953420000000  0.4557340000000  0.4908930000000 1.0
C      1  0.4879400000000  0.5711350000000  0.5789520000000 1.0
C      1  0.4259410000000  0.5699390000000  0.5373900000000 1.0
C      1  0.4203930000000  0.5701110000000  0.4697210000000 1.0
C      1  0.4743800000000  0.5715920000000  0.4207660000000 1.0
C      1  0.5424890000000  0.5776120000000  0.4302980000000 1.0
C      1  0.5833420000000  0.5661850000000  0.4823530000000 1.0
C      1  0.5606760000000  0.5689120000000  0.5594840000000 1.0
C      1  0.5173670000000  0.5149590000000  0.4058760000000 1.0
C      1  0.5997070000000  0.5229540000000  0.4570710000000 1.0
C      1  0.5947020000000  0.5078360000000  0.5371290000000 1.0
C      1  0.5315030000000  0.5091380000000  0.5981230000000 1.0
C      1  0.4436460000000  0.5108350000000  0.5854510000000 1.0
C      1  0.4001460000000  0.5081460000000  0.5085520000000 1.0
C      1  0.4308010000000  0.5077780000000  0.4277170000000 1.0
C      1  0.5138610000000  0.5281520000000  0.5812830000000 1.0
C      1  0.4451690000000  0.5286770000000  0.5606100000000 1.0
C      1  0.4205940000000  0.5250830000000  0.4931270000000 1.0
C      1  0.4525590000000  0.5278520000000  0.4341570000000 1.0
C      1  0.5233760000000  0.5284220000000  0.4319290000000 1.0
C      1  0.5569840000000  0.5172970000000  0.4777400000000 1.0
C      1  0.5679760000000  0.5239110000000  0.5387970000000 1.0
C      1  0.5773500000000  0.5771490000000  0.5109650000000 1.0
C      1  0.5353430000000  0.5810030000000  0.5673820000000 1.0
C      1  0.4684430000000  0.5825510000000  0.5608300000000 1.0
C      1  0.4223240000000  0.5889250000000  0.5164880000000 1.0
C      1  0.4410050000000  0.5821110000000  0.4534670000000 1.0
C      1  0.4989180000000  0.5852800000000  0.4268860000000 1.0
C      1  0.5551670000000  0.5862170000000  0.4543050000000 1.0
C      1  0.5783030000000  0.5244140000000  0.4959910000000 1.0
C      1  0.5629730000000  0.5252940000000  0.5670870000000 1.0
C      1  0.4881910000000  0.5298270000000  0.5957740000000 1.0
C      1  0.4181710000000  0.5268940000000  0.5490000000000 1.0
C      1  0.4077850000000  0.5276670000000  0.4660240000000 1.0
C      1  0.4699240000000  0.5286220000000  0.4101170000000 1.0
C      1  0.5530260000000  0.5357420000000  0.4380970000000 1.0
C      1  0.4789770000000  0.6037270000000  0.5440930000000 1.0
C      1  0.4381920000000  0.6123250000000  0.5115650000000 1.0
C      1  0.4508530000000  0.6081640000000  0.4624910000000 1.0
C      1  0.4972400000000  0.6107780000000  0.4417830000000 1.0
C      1  0.5420550000000  0.6080630000000  0.4674880000000 1.0
C      1  0.5661560000000  0.6053690000000  0.5123730000000 1.0
C      1  0.5307940000000  0.6056390000000  0.5525520000000 1.0
C      1  0.6040530000000  0.4838310000000  0.4880820000000 1.0
C      1  0.5744020000000  0.4804460000000  0.5753910000000 1.0
C      1  0.4880630000000  0.4828160000000  0.6036240000000 1.0
C      1  0.4139960000000  0.4802060000000  0.5556120000000 1.0
C      1  0.4018560000000  0.4806550000000  0.4654910000000 1.0
C      1  0.4685390000000  0.4818980000000  0.4057610000000 1.0
C      1  0.5575700000000  0.4880870000000  0.4189970000000 1.0
C      1  0.5437830000000  0.4394690000000  0.5808200000000 1.0
C      1  0.4665940000000  0.4404170000000  0.5838440000000 1.0
C      1  0.4191340000000  0.4390300000000  0.5229500000000 1.0
C      1  0.4298590000000  0.4428770000000  0.4432610000000 1.0
C      1  0.5000610000000  0.4415020000000  0.4109860000000 1.0
C      1  0.5692710000000  0.4461450000000  0.4464870000000 1.0
C      1  0.5886600000000  0.4439770000000  0.5183690000000 1.0
C      1  0.4744270000000  0.4136030000000  0.5054190000000 1.0
END
