TITL C-3577082-504-13 -4.7292144102063e-06 125000 -582.164629154942 0 0 94 (C1) n - 1
REM
REM in /home/bkarasulu/work/CARBON/AIRSS/Generating-Clusters/EDIP-Nigel-Params/with-SteepDescent/Higher-Symm/SD-CG/HFTN-CG
REM
REM
REM
REM
REM
REM ./C.cell (12c818d87b63d06a65506943cc24bca4)
REM
REM compiler GCC version 9.2.1 20190827 (Red Hat 9.2.1-1)
REM options -cpp -mtune=generic -march=x86-64 -g -O0 -fpre-include=/usr/include/finclude/math-vector-fortran.h
REM seed 1594883829 1923155414 1640588501 946468475 -1059206480 -1626184382 2009750100 -480885676 -611019276 608799037 2078109975 -257296125 -2064755279 1266638092 1355265466 1643120705 731250184 -1113062983 770610904 343794030 2024883086 -2146328117 1729544241 -468486470 -571826116 1012958589 -1077568305 424253593 688526458 1804006289 -1667391829 577273019 1911743836
REM
CELL 1.54180   50.00000   50.00000   50.00000   90.00000   90.00000   90.00000
LATT -1
SFAC C  
C      1  0.5264190000000  0.4215800000000  0.4527930000000 1.0
C      1  0.5756770000000  0.4732240000000  0.4535560000000 1.0
C      1  0.5705290000000  0.5444050000000  0.4537770000000 1.0
C      1  0.5097610000000  0.5815490000000  0.4530260000000 1.0
C      1  0.4425670000000  0.5570360000000  0.4544970000000 1.0
C      1  0.4187860000000  0.4910070000000  0.4540020000000 1.0
C      1  0.4584690000000  0.4324180000000  0.4575020000000 1.0
C      1  0.4512050000000  0.4575850000000  0.4478570000000 1.0
C      1  0.5037240000000  0.4358590000000  0.4620410000000 1.0
C      1  0.5526290000000  0.4604580000000  0.4455130000000 1.0
C      1  0.5654300000000  0.5185500000000  0.4451590000000 1.0
C      1  0.5268620000000  0.5602690000000  0.4483190000000 1.0
C      1  0.4685870000000  0.5589720000000  0.4448400000000 1.0
C      1  0.4343140000000  0.5128380000000  0.4467670000000 1.0
C      1  0.4641000000000  0.5083160000000  0.4518020000000 1.0
C      1  0.4720930000000  0.4795760000000  0.4401190000000 1.0
C      1  0.5004910000000  0.4726910000000  0.4518830000000 1.0
C      1  0.5286210000000  0.4784850000000  0.4379470000000 1.0
C      1  0.5363560000000  0.5121030000000  0.4366580000000 1.0
C      1  0.5146410000000  0.5317230000000  0.4494490000000 1.0
C      1  0.4826680000000  0.5322610000000  0.4379990000000 1.0
C      1  0.5202080000000  0.4971010000000  0.5441630000000 1.0
C      1  0.5211270000000  0.5198400000000  0.5238380000000 1.0
C      1  0.4942650000000  0.5352910000000  0.5223190000000 1.0
C      1  0.4671850000000  0.5170980000000  0.5217880000000 1.0
C      1  0.4721410000000  0.4900910000000  0.5381330000000 1.0
C      1  0.4868340000000  0.4663000000000  0.5247070000000 1.0
C      1  0.5174890000000  0.4711610000000  0.5268270000000 1.0
C      1  0.5648360000000  0.5502160000000  0.5104570000000 1.0
C      1  0.4999760000000  0.5770340000000  0.5092700000000 1.0
C      1  0.4380560000000  0.5486800000000  0.5101500000000 1.0
C      1  0.4215290000000  0.4815320000000  0.5114200000000 1.0
C      1  0.4676080000000  0.4291220000000  0.5115660000000 1.0
C      1  0.5349670000000  0.4249810000000  0.5091740000000 1.0
C      1  0.5792330000000  0.4824860000000  0.5099210000000 1.0
C      1  0.5265440000000  0.5798720000000  0.5018050000000 1.0
C      1  0.4528430000000  0.5698380000000  0.4999220000000 1.0
C      1  0.4150270000000  0.5067140000000  0.5019530000000 1.0
C      1  0.4437540000000  0.4396400000000  0.5021790000000 1.0
C      1  0.5119220000000  0.4109060000000  0.5013370000000 1.0
C      1  0.5720020000000  0.4571080000000  0.5004630000000 1.0
C      1  0.5820820000000  0.5308870000000  0.5001050000000 1.0
C      1  0.4782640000000  0.5762440000000  0.4903020000000 1.0
C      1  0.4280810000000  0.5291160000000  0.4919200000000 1.0
C      1  0.4341870000000  0.4639680000000  0.4927210000000 1.0
C      1  0.4845080000000  0.4129960000000  0.4945410000000 1.0
C      1  0.5526530000000  0.4391010000000  0.4905950000000 1.0
C      1  0.5806260000000  0.5045070000000  0.4910810000000 1.0
C      1  0.5476820000000  0.5645920000000  0.4920380000000 1.0
C      1  0.5782710000000  0.4990920000000  0.4625360000000 1.0
C      1  0.5519380000000  0.5626870000000  0.4632200000000 1.0
C      1  0.4838040000000  0.5772250000000  0.4616130000000 1.0
C      1  0.4274580000000  0.5355630000000  0.4633800000000 1.0
C      1  0.4294820000000  0.4674480000000  0.4641510000000 1.0
C      1  0.4809120000000  0.4187880000000  0.4660100000000 1.0
C      1  0.5478160000000  0.4368740000000  0.4617710000000 1.0
C      1  0.4666010000000  0.5096940000000  0.4841720000000 1.0
C      1  0.4739530000000  0.4813830000000  0.4983230000000 1.0
C      1  0.4996920000000  0.4687310000000  0.4831220000000 1.0
C      1  0.5235100000000  0.4789420000000  0.4983280000000 1.0
C      1  0.5263430000000  0.5083550000000  0.4965370000000 1.0
C      1  0.5087820000000  0.5213900000000  0.4771640000000 1.0
C      1  0.4863920000000  0.5335230000000  0.4913960000000 1.0
C      1  0.5247010000000  0.4803810000000  0.4077020000000 1.0
C      1  0.5309980000000  0.5098540000000  0.4064850000000 1.0
C      1  0.5090070000000  0.5250310000000  0.3983680000000 1.0
C      1  0.4832580000000  0.5277310000000  0.4085530000000 1.0
C      1  0.4661160000000  0.5070820000000  0.4010360000000 1.0
C      1  0.4741150000000  0.4820400000000  0.4103480000000 1.0
C      1  0.4986500000000  0.4741200000000  0.4000050000000 1.0
C      1  0.4929790000000  0.5716930000000  0.5362270000000 1.0
C      1  0.4384050000000  0.5429170000000  0.5374010000000 1.0
C      1  0.4304550000000  0.4794990000000  0.5376180000000 1.0
C      1  0.4751530000000  0.4317760000000  0.5387410000000 1.0
C      1  0.5341500000000  0.4370980000000  0.5350040000000 1.0
C      1  0.5741620000000  0.4886080000000  0.5365750000000 1.0
C      1  0.5505810000000  0.5424590000000  0.5341160000000 1.0
C      1  0.5501850000000  0.4642040000000  0.5699740000000 1.0
C      1  0.5451190000000  0.5107430000000  0.5700680000000 1.0
C      1  0.5219430000000  0.5522050000000  0.5702480000000 1.0
C      1  0.4732870000000  0.5456340000000  0.5705210000000 1.0
C      1  0.4419940000000  0.5088950000000  0.5710850000000 1.0
C      1  0.4593390000000  0.4649530000000  0.5706670000000 1.0
C      1  0.5049640000000  0.4465800000000  0.5726000000000 1.0
C      1  0.4383520000000  0.4822360000000  0.5640010000000 1.0
C      1  0.4787260000000  0.4460460000000  0.5630810000000 1.0
C      1  0.5305330000000  0.4467370000000  0.5614840000000 1.0
C      1  0.5599810000000  0.4883410000000  0.5605720000000 1.0
C      1  0.5444780000000  0.5381760000000  0.5618420000000 1.0
C      1  0.4963550000000  0.5573280000000  0.5604350000000 1.0
C      1  0.4509030000000  0.5328070000000  0.5601470000000 1.0
C      1  0.4943320000000  0.4965510000000  0.6102870000000 1.0
C      1  0.4939050000000  0.4991020000000  0.5572200000000 1.0
C      1  0.4921970000000  0.4947810000000  0.5846810000000 1.0
END
