TITL C-3578197-9521-664 8.51966492379798e-07 125000 -568.807330964977 0 0 94 (C3) n - 1
REM
REM in /home/bkarasulu/work/CARBON/AIRSS/Generating-Clusters/EDIP-Nigel-Params/with-SteepDescent/Higher-Symm/SD-CG/HFTN-CG
REM
REM
REM
REM
REM
REM ./C.cell (12c818d87b63d06a65506943cc24bca4)
REM
REM compiler GCC version 9.2.1 20190827 (Red Hat 9.2.1-1)
REM options -cpp -mtune=generic -march=x86-64 -g -O0 -fpre-include=/usr/include/finclude/math-vector-fortran.h
REM seed -1132418980 -1534378525 -1368325070 -1309101510 -214378229 -1688636727 -756172703 642441606 505379947 -860968236 -1949347131 408207793 -1348169623 178976582 -1198581300 1921666760 1973340322 1522758829 260188216 725383299 1962803373 1032360406 -1731518180 780400187 1120021883 -1463754561 -134828421 -1829824094 -1850092283 -1934119541 -1068170931 2053391127 -540568777
REM
CELL 1.54180   50.00000   50.00000   50.00000   90.00000   90.00000   90.00000
LATT -1
SFAC C  
C      1  0.5798740000000  0.4935530000000  0.4878330000000 1.0
C      1  0.4659940000000  0.5733740000000  0.4876840000000 1.0
C      1  0.4538070000000  0.4348410000000  0.4877140000000 1.0
C      1  0.5366710000000  0.4239090000000  0.4619380000000 1.0
C      1  0.5479440000000  0.5707440000000  0.4619040000000 1.0
C      1  0.4151440000000  0.5070890000000  0.4617790000000 1.0
C      1  0.5310690000000  0.4216720000000  0.5131170000000 1.0
C      1  0.5526130000000  0.5670840000000  0.5130950000000 1.0
C      1  0.4159100000000  0.5130350000000  0.5129630000000 1.0
C      1  0.4599800000000  0.5482790000000  0.4455930000000 1.0
C      1  0.4786040000000  0.4421200000000  0.4456470000000 1.0
C      1  0.5612280000000  0.5113280000000  0.4457150000000 1.0
C      1  0.4717280000000  0.5822950000000  0.5148250000000 1.0
C      1  0.4431770000000  0.4353850000000  0.5148410000000 1.0
C      1  0.5846810000000  0.4841130000000  0.5149790000000 1.0
C      1  0.5258920000000  0.4695880000000  0.5288670000000 1.0
C      1  0.5136830000000  0.5386650000000  0.5288320000000 1.0
C      1  0.4599660000000  0.4935530000000  0.5287880000000 1.0
C      1  0.5021640000000  0.5719170000000  0.5548820000000 1.0
C      1  0.4368920000000  0.4669880000000  0.5548440000000 1.0
C      1  0.5603990000000  0.4629250000000  0.5549800000000 1.0
C      1  0.5296570000000  0.4888740000000  0.4544700000000 1.0
C      1  0.4952000000000  0.5321770000000  0.4544190000000 1.0
C      1  0.4749270000000  0.4806850000000  0.4544130000000 1.0
C      1  0.4073590000000  0.5341340000000  0.4620710000000 1.0
C      1  0.5171420000000  0.4036440000000  0.4622320000000 1.0
C      1  0.5752580000000  0.5639640000000  0.4622450000000 1.0
C      1  0.4649470000000  0.5324160000000  0.5663160000000 1.0
C      1  0.4896940000000  0.4545240000000  0.5663670000000 1.0
C      1  0.5447770000000  0.5149010000000  0.5664080000000 1.0
C      1  0.5243560000000  0.4944840000000  0.5587690000000 1.0
C      1  0.4928500000000  0.5249280000000  0.5587250000000 1.0
C      1  0.4822370000000  0.4824220000000  0.5587260000000 1.0
C      1  0.5055060000000  0.4503440000000  0.4317920000000 1.0
C      1  0.5406740000000  0.5304950000000  0.4318050000000 1.0
C      1  0.4536770000000  0.5208750000000  0.4317130000000 1.0
C      1  0.5821120000000  0.5431080000000  0.4801170000000 1.0
C      1  0.4219690000000  0.5505240000000  0.4799400000000 1.0
C      1  0.4956180000000  0.4081280000000  0.4800650000000 1.0
C      1  0.5658800000000  0.5181890000000  0.4747850000000 1.0
C      1  0.4516730000000  0.5489180000000  0.4746510000000 1.0
C      1  0.4821640000000  0.4346480000000  0.4747200000000 1.0
C      1  0.5767470000000  0.4845370000000  0.5427430000000 1.0
C      1  0.4752900000000  0.5752510000000  0.5426040000000 1.0
C      1  0.4474580000000  0.4420300000000  0.5426160000000 1.0
C      1  0.5599760000000  0.5178150000000  0.5189180000000 1.0
C      1  0.4548890000000  0.5440550000000  0.5187960000000 1.0
C      1  0.4847080000000  0.4399270000000  0.5188610000000 1.0
C      1  0.5727380000000  0.5454260000000  0.5094460000000 1.0
C      1  0.4246090000000  0.5412880000000  0.5092860000000 1.0
C      1  0.5022570000000  0.4150740000000  0.5094100000000 1.0
C      1  0.4478810000000  0.5110090000000  0.5733080000000 1.0
C      1  0.5167570000000  0.4504580000000  0.5734020000000 1.0
C      1  0.5347570000000  0.5403810000000  0.5733930000000 1.0
C      1  0.5331150000000  0.5614630000000  0.5348050000000 1.0
C      1  0.4304980000000  0.4989910000000  0.5347130000000 1.0
C      1  0.5359080000000  0.4413580000000  0.5348460000000 1.0
C      1  0.5561630000000  0.4568980000000  0.4944310000000 1.0
C      1  0.5095840000000  0.5711760000000  0.4943440000000 1.0
C      1  0.4339060000000  0.4736990000000  0.4942920000000 1.0
C      1  0.5070230000000  0.4535870000000  0.4871880000000 1.0
C      1  0.5370320000000  0.5302650000000  0.4871970000000 1.0
C      1  0.4556220000000  0.5179150000000  0.4871120000000 1.0
C      1  0.5549670000000  0.4733110000000  0.4474700000000 1.0
C      1  0.4960320000000  0.5618680000000  0.4473780000000 1.0
C      1  0.4488070000000  0.4665500000000  0.4473560000000 1.0
C      1  0.4743400000000  0.4932180000000  0.4840360000000 1.0
C      1  0.5190560000000  0.4821410000000  0.4840880000000 1.0
C      1  0.5062910000000  0.5264050000000  0.4840600000000 1.0
C      1  0.4365240000000  0.4542240000000  0.4723930000000 1.0
C      1  0.5717490000000  0.4688720000000  0.4725350000000 1.0
C      1  0.4914510000000  0.5786570000000  0.4724130000000 1.0
C      1  0.4363560000000  0.4982880000000  0.4424470000000 1.0
C      1  0.5337140000000  0.4466520000000  0.4425690000000 1.0
C      1  0.5297520000000  0.5567840000000  0.4425300000000 1.0
C      1  0.4625170000000  0.4743950000000  0.5048050000000 1.0
C      1  0.5412400000000  0.4813430000000  0.5048880000000 1.0
C      1  0.4958620000000  0.5460450000000  0.5048180000000 1.0
C      1  0.4956570000000  0.4687880000000  0.5249270000000 1.0
C      1  0.5294980000000  0.5128750000000  0.5249500000000 1.0
C      1  0.4743980000000  0.5201390000000  0.5248880000000 1.0
C      1  0.5339750000000  0.4380150000000  0.4881170000000 1.0
C      1  0.5370400000000  0.5613930000000  0.4880820000000 1.0
C      1  0.4286590000000  0.5023590000000  0.4879820000000 1.0
C      1  0.4761920000000  0.4355700000000  0.5479150000000 1.0
C      1  0.5679680000000  0.5126590000000  0.5479900000000 1.0
C      1  0.4553180000000  0.5535950000000  0.5478550000000 1.0
C      1  0.5213470000000  0.5075960000000  0.4299740000000 1.0
C      1  0.4831740000000  0.5155850000000  0.4299300000000 1.0
C      1  0.4953420000000  0.4785320000000  0.4299550000000 1.0
C      1  0.5078950000000  0.5481740000000  0.5710500000000 1.0
C      1  0.4545670000000  0.4838450000000  0.5710120000000 1.0
C      1  0.5369410000000  0.4698270000000  0.5711060000000 1.0
C      1  0.4998840000000  0.5005910000000  0.4942260000000 1.0
END
