TITL C-3578204-4308-569 3.43911233183494e-07 125000 -518.176287307113 0 0 84 (D2d) n - 1
REM
REM in /home/bkarasulu/work/CARBON/AIRSS/Generating-Clusters/EDIP-Nigel-Params/with-SteepDescent/Higher-Symm/SD-CG/HFTN-CG
REM
REM
REM
REM
REM
REM ./C.cell (12c818d87b63d06a65506943cc24bca4)
REM
REM compiler GCC version 9.2.1 20190827 (Red Hat 9.2.1-1)
REM options -cpp -mtune=generic -march=x86-64 -g -O0 -fpre-include=/usr/include/finclude/math-vector-fortran.h
REM seed 218261929 1262972040 2068516113 -1104298681 -2096244891 462867803 129796869 929597815 -2126022444 -1651731143 1793379011 -1243899993 -1836360551 -706452780 -1750977099 473934256 -635589895 1773774208 102339861 -59239711 1038621730 1737775580 -1540585219 -1974663026 17161137 1603203165 -1030358929 -1469403263 -279932374 643342881 525705672 1958152308 1158505742
REM
CELL 1.54180   50.00000   50.00000   50.00000   90.00000   90.00000   90.00000
LATT -1
SFAC C  
C      1  0.4447250000000  0.4769230000000  0.5471820000000 1.0
C      1  0.5562030000000  0.5230830000000  0.5460700000000 1.0
C      1  0.5552980000000  0.4769730000000  0.4528200000000 1.0
C      1  0.4437740000000  0.5230220000000  0.4539280000000 1.0
C      1  0.4774410000000  0.4442380000000  0.5468580000000 1.0
C      1  0.5234870000000  0.5557670000000  0.5463940000000 1.0
C      1  0.4764570000000  0.5557390000000  0.4536010000000 1.0
C      1  0.5226150000000  0.4442560000000  0.4531470000000 1.0
C      1  0.5763060000000  0.4965830000000  0.4615810000000 1.0
C      1  0.4229440000000  0.5034130000000  0.4631080000000 1.0
C      1  0.4236980000000  0.4965100000000  0.5384190000000 1.0
C      1  0.5770520000000  0.5034940000000  0.5368920000000 1.0
C      1  0.4961340000000  0.5766790000000  0.4623750000000 1.0
C      1  0.5031170000000  0.4233170000000  0.4623140000000 1.0
C      1  0.4969600000000  0.4233180000000  0.5376940000000 1.0
C      1  0.5037900000000  0.5766870000000  0.5376170000000 1.0
C      1  0.5302880000000  0.4392840000000  0.4964600000000 1.0
C      1  0.4696480000000  0.5607160000000  0.4970570000000 1.0
C      1  0.4697730000000  0.4392540000000  0.5035460000000 1.0
C      1  0.5302910000000  0.5607460000000  0.5029370000000 1.0
C      1  0.4392250000000  0.5302610000000  0.4973620000000 1.0
C      1  0.5607110000000  0.4697390000000  0.4961560000000 1.0
C      1  0.4393200000000  0.4696790000000  0.5038470000000 1.0
C      1  0.5607450000000  0.5303210000000  0.5026350000000 1.0
C      1  0.5146710000000  0.5361750000000  0.4766690000000 1.0
C      1  0.4848680000000  0.4638220000000  0.4769700000000 1.0
C      1  0.4852930000000  0.5361630000000  0.5233270000000 1.0
C      1  0.5151690000000  0.4638400000000  0.5230340000000 1.0
C      1  0.5359290000000  0.5149370000000  0.4764590000000 1.0
C      1  0.4636100000000  0.4850600000000  0.4771800000000 1.0
C      1  0.5364050000000  0.4850990000000  0.5228210000000 1.0
C      1  0.4640560000000  0.5149040000000  0.5235400000000 1.0
C      1  0.4884570000000  0.5825750000000  0.4904520000000 1.0
C      1  0.5113510000000  0.4174240000000  0.4902330000000 1.0
C      1  0.5114600000000  0.5825870000000  0.5095400000000 1.0
C      1  0.4887320000000  0.4174140000000  0.5097750000000 1.0
C      1  0.5824870000000  0.4886350000000  0.4895210000000 1.0
C      1  0.4173210000000  0.5113640000000  0.4911640000000 1.0
C      1  0.5826670000000  0.5114480000000  0.5088350000000 1.0
C      1  0.4175250000000  0.4885530000000  0.5104800000000 1.0
C      1  0.5619420000000  0.5242570000000  0.4587290000000 1.0
C      1  0.4372490000000  0.4757380000000  0.4599720000000 1.0
C      1  0.4380340000000  0.5241990000000  0.5412690000000 1.0
C      1  0.5627750000000  0.4758050000000  0.5400300000000 1.0
C      1  0.5237910000000  0.5623720000000  0.4591060000000 1.0
C      1  0.4753990000000  0.4376240000000  0.4595950000000 1.0
C      1  0.5246630000000  0.4376530000000  0.5404110000000 1.0
C      1  0.4761460000000  0.5623520000000  0.5408880000000 1.0
C      1  0.4471820000000  0.4696270000000  0.4317480000000 1.0
C      1  0.5514490000000  0.5303650000000  0.4307070000000 1.0
C      1  0.5528480000000  0.4696870000000  0.5682550000000 1.0
C      1  0.4485210000000  0.5303210000000  0.5692900000000 1.0
C      1  0.4690000000000  0.4478300000000  0.4315320000000 1.0
C      1  0.5296310000000  0.5521620000000  0.4309230000000 1.0
C      1  0.4703170000000  0.5521400000000  0.5690720000000 1.0
C      1  0.5310520000000  0.4478680000000  0.5684730000000 1.0
C      1  0.5473830000000  0.4320530000000  0.5204900000000 1.0
C      1  0.4530340000000  0.5679500000000  0.5214220000000 1.0
C      1  0.4526850000000  0.4320030000000  0.4795170000000 1.0
C      1  0.5468980000000  0.5679940000000  0.4785720000000 1.0
C      1  0.4322160000000  0.5471100000000  0.5216300000000 1.0
C      1  0.5682010000000  0.4528920000000  0.5202810000000 1.0
C      1  0.4318460000000  0.4528220000000  0.4797230000000 1.0
C      1  0.5677370000000  0.5471750000000  0.4783650000000 1.0
C      1  0.5092550000000  0.4698240000000  0.5730060000000 1.0
C      1  0.4922000000000  0.5301830000000  0.5731730000000 1.0
C      1  0.4907750000000  0.4698080000000  0.4269970000000 1.0
C      1  0.5077700000000  0.5301840000000  0.4268240000000 1.0
C      1  0.4705410000000  0.5085020000000  0.5733900000000 1.0
C      1  0.5309140000000  0.4915060000000  0.5727890000000 1.0
C      1  0.4690940000000  0.4914680000000  0.4272110000000 1.0
C      1  0.5294500000000  0.5085240000000  0.4266100000000 1.0
C      1  0.5305460000000  0.5074790000000  0.5470700000000 1.0
C      1  0.4703970000000  0.4925260000000  0.5476690000000 1.0
C      1  0.4694470000000  0.5074440000000  0.4529300000000 1.0
C      1  0.5296100000000  0.4925510000000  0.4523320000000 1.0
C      1  0.5079170000000  0.5300860000000  0.5472940000000 1.0
C      1  0.4930260000000  0.4699190000000  0.5474450000000 1.0
C      1  0.5070040000000  0.4699220000000  0.4525580000000 1.0
C      1  0.4920530000000  0.5300730000000  0.4527030000000 1.0
C      1  0.4490410000000  0.5505670000000  0.4661380000000 1.0
C      1  0.5502750000000  0.4494290000000  0.4651360000000 1.0
C      1  0.4497760000000  0.4493820000000  0.5348690000000 1.0
C      1  0.5509090000000  0.5506210000000  0.5338570000000 1.0
END
