TITL C-3577078-809-86 -3.03024496358875e-07 125000 -658.094934707976 0 0 106 (C1) n - 1
REM
REM in /home/bkarasulu/work/CARBON/AIRSS/Generating-Clusters/EDIP-Nigel-Params/with-SteepDescent/Higher-Symm/SD-CG/HFTN-CG
REM
REM
REM
REM
REM
REM ./C.cell (12c818d87b63d06a65506943cc24bca4)
REM
REM compiler GCC version 9.2.1 20190827 (Red Hat 9.2.1-1)
REM options -cpp -mtune=generic -march=x86-64 -g -O0 -fpre-include=/usr/include/finclude/math-vector-fortran.h
REM seed -1078616466 1283227301 -1089309113 -1377052236 -1269172289 1687044959 -1531667425 -636193402 902631553 1319170959 1487830729 -2072021280 735555179 -194485033 99771662 329625643 737348239 1605520843 -167346142 310440146 -387009032 890044951 -1570411921 1643702002 -529382948 -367151745 335300745 975881869 257782529 371054623 -784959653 832265918 -1044368271
REM
CELL 1.54180   50.00000   50.00000   50.00000   90.00000   90.00000   90.00000
LATT -1
SFAC C  
C      1  0.4602880000000  0.4942740000000  0.4187360000000 1.0
C      1  0.5106600000000  0.4422510000000  0.4274260000000 1.0
C      1  0.5180120000000  0.5065980000000  0.5531930000000 1.0
C      1  0.4827790000000  0.4153300000000  0.4956810000000 1.0
C      1  0.4536740000000  0.5090710000000  0.5322440000000 1.0
C      1  0.5722890000000  0.4745540000000  0.5574020000000 1.0
C      1  0.5383270000000  0.4930120000000  0.4748570000000 1.0
C      1  0.4485890000000  0.5141300000000  0.5805040000000 1.0
C      1  0.5334520000000  0.4537420000000  0.4443260000000 1.0
C      1  0.4453990000000  0.5071060000000  0.4823020000000 1.0
C      1  0.4527060000000  0.5694400000000  0.5488650000000 1.0
C      1  0.5731290000000  0.4865630000000  0.4412030000000 1.0
C      1  0.5674560000000  0.5243890000000  0.4480170000000 1.0
C      1  0.5212790000000  0.5513750000000  0.5263710000000 1.0
C      1  0.4458350000000  0.5727730000000  0.4923010000000 1.0
C      1  0.4562320000000  0.4246400000000  0.4960200000000 1.0
C      1  0.5374220000000  0.4704980000000  0.5265220000000 1.0
C      1  0.5560500000000  0.5485490000000  0.4604390000000 1.0
C      1  0.5018230000000  0.4192800000000  0.5182480000000 1.0
C      1  0.4786980000000  0.5468710000000  0.4293290000000 1.0
C      1  0.4784770000000  0.4925440000000  0.4959690000000 1.0
C      1  0.4370330000000  0.4983640000000  0.4357110000000 1.0
C      1  0.4943050000000  0.5403280000000  0.5270060000000 1.0
C      1  0.5421580000000  0.5653640000000  0.4427270000000 1.0
C      1  0.4502240000000  0.4517340000000  0.4881180000000 1.0
C      1  0.4712120000000  0.4550450000000  0.4448240000000 1.0
C      1  0.5792740000000  0.5369260000000  0.4959410000000 1.0
C      1  0.3984350000000  0.4970810000000  0.5293260000000 1.0
C      1  0.5131360000000  0.4301870000000  0.5640860000000 1.0
C      1  0.4312320000000  0.4738880000000  0.5575200000000 1.0
C      1  0.5558300000000  0.4271550000000  0.5214250000000 1.0
C      1  0.4939520000000  0.4893480000000  0.5201610000000 1.0
C      1  0.5439580000000  0.4661400000000  0.5567900000000 1.0
C      1  0.5892530000000  0.5100710000000  0.4986120000000 1.0
C      1  0.4524080000000  0.5269370000000  0.5057110000000 1.0
C      1  0.4752030000000  0.5203320000000  0.4422360000000 1.0
C      1  0.4959630000000  0.4847230000000  0.4527970000000 1.0
C      1  0.5273060000000  0.4858250000000  0.5711820000000 1.0
C      1  0.5882940000000  0.4996440000000  0.5248920000000 1.0
C      1  0.4738260000000  0.5739070000000  0.5030910000000 1.0
C      1  0.4152700000000  0.5053270000000  0.4848470000000 1.0
C      1  0.4931540000000  0.4301800000000  0.5446520000000 1.0
C      1  0.5504180000000  0.4720590000000  0.4272330000000 1.0
C      1  0.5302590000000  0.4196810000000  0.4787930000000 1.0
C      1  0.4350580000000  0.5236800000000  0.5518860000000 1.0
C      1  0.5636130000000  0.4552250000000  0.5126180000000 1.0
C      1  0.5176290000000  0.4859550000000  0.5972960000000 1.0
C      1  0.4898720000000  0.4895190000000  0.5944190000000 1.0
C      1  0.5038000000000  0.5522200000000  0.4178440000000 1.0
C      1  0.5661960000000  0.4553250000000  0.4810540000000 1.0
C      1  0.4690200000000  0.4665960000000  0.4172310000000 1.0
C      1  0.5397050000000  0.4377730000000  0.5645720000000 1.0
C      1  0.4088150000000  0.4855020000000  0.5059220000000 1.0
C      1  0.4091660000000  0.5115430000000  0.5492960000000 1.0
C      1  0.5044180000000  0.4922010000000  0.4244770000000 1.0
C      1  0.5990330000000  0.4922240000000  0.4797490000000 1.0
C      1  0.4118800000000  0.5363680000000  0.4853330000000 1.0
C      1  0.4766690000000  0.4650800000000  0.4873940000000 1.0
C      1  0.5261980000000  0.5755900000000  0.5115460000000 1.0
C      1  0.4773740000000  0.5178470000000  0.5921210000000 1.0
C      1  0.5544960000000  0.5762890000000  0.5103160000000 1.0
C      1  0.5003710000000  0.4195290000000  0.4710950000000 1.0
C      1  0.5366290000000  0.5489820000000  0.5514280000000 1.0
C      1  0.4315990000000  0.5493570000000  0.5066950000000 1.0
C      1  0.5197660000000  0.4703520000000  0.4666860000000 1.0
C      1  0.4317940000000  0.5518260000000  0.5388610000000 1.0
C      1  0.4492590000000  0.4846850000000  0.5764850000000 1.0
C      1  0.5421890000000  0.5089810000000  0.4497380000000 1.0
C      1  0.5166780000000  0.5717030000000  0.4334630000000 1.0
C      1  0.4460530000000  0.5667730000000  0.4636710000000 1.0
C      1  0.4771300000000  0.4560290000000  0.5426890000000 1.0
C      1  0.4795840000000  0.5443940000000  0.5517870000000 1.0
C      1  0.4474000000000  0.4765310000000  0.5331970000000 1.0
C      1  0.5312330000000  0.5124390000000  0.4962470000000 1.0
C      1  0.5836300000000  0.4738470000000  0.4656510000000 1.0
C      1  0.4699490000000  0.5818870000000  0.5304830000000 1.0
C      1  0.4445690000000  0.4537880000000  0.4587090000000 1.0
C      1  0.5338170000000  0.4966270000000  0.4232260000000 1.0
C      1  0.5143260000000  0.5552300000000  0.4740350000000 1.0
C      1  0.4894850000000  0.4310230000000  0.4448730000000 1.0
C      1  0.4279480000000  0.5435740000000  0.4592660000000 1.0
C      1  0.5222670000000  0.5305610000000  0.5699330000000 1.0
C      1  0.5415310000000  0.5417890000000  0.4880870000000 1.0
C      1  0.5043000000000  0.4530330000000  0.4897090000000 1.0
C      1  0.5848850000000  0.4703130000000  0.5305570000000 1.0
C      1  0.4776110000000  0.4790300000000  0.5680650000000 1.0
C      1  0.4969000000000  0.5068440000000  0.4775910000000 1.0
C      1  0.5381070000000  0.5017520000000  0.5268540000000 1.0
C      1  0.4290360000000  0.4746750000000  0.4485410000000 1.0
C      1  0.4905790000000  0.5359330000000  0.4752190000000 1.0
C      1  0.5046720000000  0.5809920000000  0.4906630000000 1.0
C      1  0.5560280000000  0.4217570000000  0.5489320000000 1.0
C      1  0.4937740000000  0.5387790000000  0.5767450000000 1.0
C      1  0.4973830000000  0.5834390000000  0.4526950000000 1.0
C      1  0.4863760000000  0.5013910000000  0.5464790000000 1.0
C      1  0.4982540000000  0.4652840000000  0.4109170000000 1.0
C      1  0.5642500000000  0.5399990000000  0.5434590000000 1.0
C      1  0.5078880000000  0.4629120000000  0.5197810000000 1.0
C      1  0.4779650000000  0.5433350000000  0.5022290000000 1.0
C      1  0.5492270000000  0.4370660000000  0.4640600000000 1.0
C      1  0.4463900000000  0.5191340000000  0.4545850000000 1.0
C      1  0.4726470000000  0.5670630000000  0.4493400000000 1.0
C      1  0.4322690000000  0.4667270000000  0.5093420000000 1.0
C      1  0.5300320000000  0.4215510000000  0.5079090000000 1.0
C      1  0.5652030000000  0.5086920000000  0.5415850000000 1.0
C      1  0.5713960000000  0.5542190000000  0.5177250000000 1.0
END
