TITL C-3578208-4450-441 -1.51223523151688e-07 125000 -514.992718816461 0 0 80 (Cs) n - 1
REM
REM in /home/bkarasulu/work/CARBON/AIRSS/Generating-Clusters/EDIP-Nigel-Params/with-SteepDescent/Higher-Symm/SD-CG/HFTN-CG
REM
REM
REM
REM
REM
REM ./C.cell (12c818d87b63d06a65506943cc24bca4)
REM
REM compiler GCC version 9.2.1 20190827 (Red Hat 9.2.1-1)
REM options -cpp -mtune=generic -march=x86-64 -g -O0 -fpre-include=/usr/include/finclude/math-vector-fortran.h
REM seed 575780942 1270640714 857607114 -1511800759 433872354 -97402892 -1824787754 74778388 1573765573 1419925129 1729389198 451724134 -1997038810 1502454106 -1625862029 -737550258 117323010 1187643309 292863504 203860459 -1807243636 -1595057451 -1395218516 -467308471 2135662651 1237134834 280998245 -212076507 1759681190 -1763964268 1819988908 -189984320 -1793882213
REM
CELL 1.54180   50.00000   50.00000   50.00000   90.00000   90.00000   90.00000
LATT -1
SFAC C  
C      1  0.4967420000000  0.5600370000000  0.4543980000000 1.0
C      1  0.5415320000000  0.5596460000000  0.5209340000000 1.0
C      1  0.4614360000000  0.5600260000000  0.5263520000000 1.0
C      1  0.4966660000000  0.4421830000000  0.4542510000000 1.0
C      1  0.5414560000000  0.4423510000000  0.5207880000000 1.0
C      1  0.4613600000000  0.4420610000000  0.5262060000000 1.0
C      1  0.4715100000000  0.4308350000000  0.5025630000000 1.0
C      1  0.5121300000000  0.4309250000000  0.4748200000000 1.0
C      1  0.5159760000000  0.4308240000000  0.5239050000000 1.0
C      1  0.4716010000000  0.5712980000000  0.5027380000000 1.0
C      1  0.5122210000000  0.5712240000000  0.4749950000000 1.0
C      1  0.5160670000000  0.5711980000000  0.5240790000000 1.0
C      1  0.5193360000000  0.4744880000000  0.5225330000000 1.0
C      1  0.4705720000000  0.4744570000000  0.5064540000000 1.0
C      1  0.5090770000000  0.4745540000000  0.4722020000000 1.0
C      1  0.5193700000000  0.5275340000000  0.5225990000000 1.0
C      1  0.4706060000000  0.5276680000000  0.5065210000000 1.0
C      1  0.5091120000000  0.5276060000000  0.4722680000000 1.0
C      1  0.4899500000000  0.5166460000000  0.5275870000000 1.0
C      1  0.4810620000000  0.5167200000000  0.4785240000000 1.0
C      1  0.5282800000000  0.5166230000000  0.4952750000000 1.0
C      1  0.4899300000000  0.4854010000000  0.5275480000000 1.0
C      1  0.4810420000000  0.4854610000000  0.4784850000000 1.0
C      1  0.5282600000000  0.4854550000000  0.4952360000000 1.0
C      1  0.4768030000000  0.5560340000000  0.5506220000000 1.0
C      1  0.4680110000000  0.5561840000000  0.4555570000000 1.0
C      1  0.5548440000000  0.5559300000000  0.4954120000000 1.0
C      1  0.4767320000000  0.4459730000000  0.5504850000000 1.0
C      1  0.4679400000000  0.4460700000000  0.4554210000000 1.0
C      1  0.5547730000000  0.4461140000000  0.4952760000000 1.0
C      1  0.5655990000000  0.5159530000000  0.4635780000000 1.0
C      1  0.4981060000000  0.5158520000000  0.5759810000000 1.0
C      1  0.4352460000000  0.5160330000000  0.4616110000000 1.0
C      1  0.5655800000000  0.4861560000000  0.4635410000000 1.0
C      1  0.4980870000000  0.4860640000000  0.5759440000000 1.0
C      1  0.4352270000000  0.4862490000000  0.4615740000000 1.0
C      1  0.5359190000000  0.4857110000000  0.5457340000000 1.0
C      1  0.4419880000000  0.4855040000000  0.5100350000000 1.0
C      1  0.5201710000000  0.4855320000000  0.4455510000000 1.0
C      1  0.5359380000000  0.5162320000000  0.5457720000000 1.0
C      1  0.4420080000000  0.5166490000000  0.5100740000000 1.0
C      1  0.5201910000000  0.5166800000000  0.4455900000000 1.0
C      1  0.5640280000000  0.4800940000000  0.5400600000000 1.0
C      1  0.4326740000000  0.4765570000000  0.5362740000000 1.0
C      1  0.5020210000000  0.4766430000000  0.4244130000000 1.0
C      1  0.5640550000000  0.5218270000000  0.5401110000000 1.0
C      1  0.4327060000000  0.5255420000000  0.5363350000000 1.0
C      1  0.5020520000000  0.5256450000000  0.4244740000000 1.0
C      1  0.5482230000000  0.5280860000000  0.4429300000000 1.0
C      1  0.5248760000000  0.5278270000000  0.5715170000000 1.0
C      1  0.4258400000000  0.5280780000000  0.4870190000000 1.0
C      1  0.5481880000000  0.4740970000000  0.4428630000000 1.0
C      1  0.5248410000000  0.4740650000000  0.5714500000000 1.0
C      1  0.4258050000000  0.4741530000000  0.4869520000000 1.0
C      1  0.4634010000000  0.4758770000000  0.4552310000000 1.0
C      1  0.5573250000000  0.4758720000000  0.4912440000000 1.0
C      1  0.4786640000000  0.4757820000000  0.5545020000000 1.0
C      1  0.4634330000000  0.5263840000000  0.4552940000000 1.0
C      1  0.5573570000000  0.5261780000000  0.4913070000000 1.0
C      1  0.4786960000000  0.5262120000000  0.5545650000000 1.0
C      1  0.5040400000000  0.4341810000000  0.5505760000000 1.0
C      1  0.4542870000000  0.4342070000000  0.4789800000000 1.0
C      1  0.5411400000000  0.4342300000000  0.4716850000000 1.0
C      1  0.5041260000000  0.5677900000000  0.5507420000000 1.0
C      1  0.4543730000000  0.5680060000000  0.4791460000000 1.0
C      1  0.5412260000000  0.5678900000000  0.4718510000000 1.0
C      1  0.5737310000000  0.5153060000000  0.5141180000000 1.0
C      1  0.4507280000000  0.5153950000000  0.5557760000000 1.0
C      1  0.4762270000000  0.5155250000000  0.4304420000000 1.0
C      1  0.5737120000000  0.4866670000000  0.5140820000000 1.0
C      1  0.4507090000000  0.4866330000000  0.5557410000000 1.0
C      1  0.4762080000000  0.4867820000000  0.4304060000000 1.0
C      1  0.5485610000000  0.4463210000000  0.4471660000000 1.0
C      1  0.5213620000000  0.4462550000000  0.5694600000000 1.0
C      1  0.4293290000000  0.4463510000000  0.4846580000000 1.0
C      1  0.5486320000000  0.5558510000000  0.4473020000000 1.0
C      1  0.5214330000000  0.5556480000000  0.5695970000000 1.0
C      1  0.4294000000000  0.5558810000000  0.4847940000000 1.0
C      1  0.4999620000000  0.5708480000000  0.5006240000000 1.0
C      1  0.4998720000000  0.4312540000000  0.5004510000000 1.0
END
