TITL C-3578205-846-188 -7.57311529354455e-07 125000 -303.915728034301 0 0 52 (C1) n - 1
REM
REM in /home/bkarasulu/work/CARBON/AIRSS/Generating-Clusters/EDIP-Nigel-Params/with-SteepDescent/Higher-Symm/SD-CG/HFTN-CG
REM
REM
REM
REM
REM
REM ./C.cell (12c818d87b63d06a65506943cc24bca4)
REM
REM compiler GCC version 9.2.1 20190827 (Red Hat 9.2.1-1)
REM options -cpp -mtune=generic -march=x86-64 -g -O0 -fpre-include=/usr/include/finclude/math-vector-fortran.h
REM seed 202195034 -603370682 400463628 -1742269024 -2098361798 1935882176 593942547 -945030006 -9097315 -696337216 -289105088 -656812783 2115556973 -41307033 -298774105 -1596155482 1123496797 -1725065557 -77697501 1141824522 -547030509 -837721330 -1859837962 372712582 2059157182 -1840799605 2039312954 1171175901 2006032399 1478608285 -221083803 826917837 -959409840
REM
CELL 1.54180   50.00000   50.00000   50.00000   90.00000   90.00000   90.00000
LATT -1
SFAC C  
C      1  0.5198620000000  0.4843570000000  0.5561760000000 1.0
C      1  0.4406780000000  0.4850640000000  0.5423700000000 1.0
C      1  0.4510230000000  0.4868460000000  0.4663890000000 1.0
C      1  0.5192040000000  0.4844540000000  0.4327320000000 1.0
C      1  0.5579820000000  0.4854020000000  0.4958790000000 1.0
C      1  0.5196730000000  0.5145760000000  0.5570400000000 1.0
C      1  0.4405390000000  0.5143970000000  0.5425320000000 1.0
C      1  0.4492890000000  0.5166220000000  0.4638760000000 1.0
C      1  0.5194410000000  0.5139310000000  0.4326650000000 1.0
C      1  0.5591900000000  0.5152340000000  0.4975720000000 1.0
C      1  0.5436800000000  0.5441280000000  0.4678970000000 1.0
C      1  0.5378720000000  0.5462320000000  0.5295090000000 1.0
C      1  0.4769250000000  0.5390460000000  0.5409710000000 1.0
C      1  0.4494030000000  0.5428320000000  0.4992520000000 1.0
C      1  0.4937220000000  0.5350800000000  0.4613490000000 1.0
C      1  0.5432430000000  0.4555290000000  0.4666720000000 1.0
C      1  0.5376850000000  0.4537430000000  0.5273480000000 1.0
C      1  0.4771590000000  0.4602970000000  0.5403450000000 1.0
C      1  0.4491870000000  0.4581450000000  0.4999270000000 1.0
C      1  0.4937170000000  0.4628460000000  0.4617360000000 1.0
C      1  0.5043400000000  0.5284010000000  0.5347860000000 1.0
C      1  0.4584540000000  0.5268650000000  0.5207390000000 1.0
C      1  0.4757090000000  0.5207250000000  0.4807960000000 1.0
C      1  0.5224930000000  0.5260470000000  0.4610300000000 1.0
C      1  0.5338810000000  0.5315660000000  0.5033480000000 1.0
C      1  0.5041140000000  0.4714480000000  0.5337530000000 1.0
C      1  0.4583400000000  0.4726720000000  0.5223560000000 1.0
C      1  0.4780980000000  0.4780970000000  0.4830460000000 1.0
C      1  0.5211590000000  0.4723130000000  0.4593500000000 1.0
C      1  0.5330710000000  0.4689730000000  0.5017370000000 1.0
C      1  0.5792040000000  0.4867300000000  0.4522590000000 1.0
C      1  0.5680050000000  0.4859960000000  0.5509780000000 1.0
C      1  0.4769890000000  0.4818160000000  0.5858760000000 1.0
C      1  0.4101510000000  0.4875010000000  0.4936210000000 1.0
C      1  0.4635960000000  0.4806460000000  0.4245430000000 1.0
C      1  0.5796300000000  0.5135370000000  0.4539740000000 1.0
C      1  0.5676770000000  0.5128940000000  0.5518060000000 1.0
C      1  0.4728870000000  0.5079630000000  0.5809690000000 1.0
C      1  0.4100470000000  0.5142960000000  0.4923440000000 1.0
C      1  0.4700540000000  0.5070300000000  0.4259250000000 1.0
C      1  0.5451440000000  0.4695840000000  0.5511530000000 1.0
C      1  0.4644070000000  0.4671780000000  0.5659360000000 1.0
C      1  0.4303870000000  0.4717150000000  0.4821610000000 1.0
C      1  0.4859530000000  0.4664120000000  0.4332680000000 1.0
C      1  0.5680410000000  0.4704280000000  0.4722330000000 1.0
C      1  0.5450520000000  0.5295780000000  0.5529020000000 1.0
C      1  0.4602200000000  0.5270260000000  0.5647750000000 1.0
C      1  0.4292870000000  0.5314420000000  0.4810960000000 1.0
C      1  0.4900930000000  0.5261640000000  0.4312400000000 1.0
C      1  0.5690770000000  0.5304140000000  0.4737680000000 1.0
C      1  0.5044970000000  0.4854300000000  0.5049760000000 1.0
C      1  0.5053470000000  0.5159710000000  0.5056240000000 1.0
END
