TITL C-3577091-527-750 2.00631404438364e-07 125000 -1226.95598453571 0 0 192 (C1) n - 1
REM
REM in /home/bkarasulu/work/CARBON/AIRSS/Generating-Clusters/EDIP-Nigel-Params/with-SteepDescent/Higher-Symm/SD-CG/HFTN-CG
REM
REM
REM
REM
REM
REM ./C.cell (12c818d87b63d06a65506943cc24bca4)
REM
REM compiler GCC version 9.2.1 20190827 (Red Hat 9.2.1-1)
REM options -cpp -mtune=generic -march=x86-64 -g -O0 -fpre-include=/usr/include/finclude/math-vector-fortran.h
REM seed 1061671 -533995672 1970823633 458963537 -1868014310 -213113476 -1175998431 -1628896634 1438324882 56844493 -732975494 -138657208 -806088756 -1886586773 1677953704 374357278 1685078973 522116669 -460370560 1057877326 -700872672 -458290229 1278971272 1956914703 -1813428593 757541526 2074404018 -1225235498 -1873914592 663577442 -1011842369 1938872302 1308918879
REM
CELL 1.54180   50.00000   50.00000   50.00000   90.00000   90.00000   90.00000
LATT -1
SFAC C  
C      1  0.5559950000000  0.4272620000000  0.5726360000000 1.0
C      1  0.5550640000000  0.4777800000000  0.4005080000000 1.0
C      1  0.5555260000000  0.5940880000000  0.5283730000000 1.0
C      1  0.4452030000000  0.4272470000000  0.5738630000000 1.0
C      1  0.4446150000000  0.4773280000000  0.4031220000000 1.0
C      1  0.4426320000000  0.5983580000000  0.5265510000000 1.0
C      1  0.5566100000000  0.4276550000000  0.4261190000000 1.0
C      1  0.5561130000000  0.4757680000000  0.6010430000000 1.0
C      1  0.5557850000000  0.5939750000000  0.4734910000000 1.0
C      1  0.4449070000000  0.4288820000000  0.4297560000000 1.0
C      1  0.4464380000000  0.4769740000000  0.5989610000000 1.0
C      1  0.4446980000000  0.5973320000000  0.4704860000000 1.0
C      1  0.5162570000000  0.4025820000000  0.4413870000000 1.0
C      1  0.5163370000000  0.6002380000000  0.4441340000000 1.0
C      1  0.5165060000000  0.4998370000000  0.6138000000000 1.0
C      1  0.4855850000000  0.4029240000000  0.4420040000000 1.0
C      1  0.4861230000000  0.5999980000000  0.4435900000000 1.0
C      1  0.4865580000000  0.4997580000000  0.6139530000000 1.0
C      1  0.5155790000000  0.4027700000000  0.5571210000000 1.0
C      1  0.5143760000000  0.5989640000000  0.5547090000000 1.0
C      1  0.5141470000000  0.4998940000000  0.3848370000000 1.0
C      1  0.4850930000000  0.4024610000000  0.5579170000000 1.0
C      1  0.4838510000000  0.5997000000000  0.5546600000000 1.0
C      1  0.4840850000000  0.4994270000000  0.3847270000000 1.0
C      1  0.4778480000000  0.5250250000000  0.4259810000000 1.0
C      1  0.4769300000000  0.5510930000000  0.5566650000000 1.0
C      1  0.4784410000000  0.4258080000000  0.5152440000000 1.0
C      1  0.5166460000000  0.5258600000000  0.4267640000000 1.0
C      1  0.5158960000000  0.5501620000000  0.5566680000000 1.0
C      1  0.5179200000000  0.4262140000000  0.5135330000000 1.0
C      1  0.4834280000000  0.5255160000000  0.5721040000000 1.0
C      1  0.4831900000000  0.5507080000000  0.4413020000000 1.0
C      1  0.4840210000000  0.4257760000000  0.4854530000000 1.0
C      1  0.5232150000000  0.5248270000000  0.5717000000000 1.0
C      1  0.5219860000000  0.5517660000000  0.4416790000000 1.0
C      1  0.5227610000000  0.4257160000000  0.4840900000000 1.0
C      1  0.5884520000000  0.4958680000000  0.5691530000000 1.0
C      1  0.5893560000000  0.4449050000000  0.4585400000000 1.0
C      1  0.5871000000000  0.5550900000000  0.4731310000000 1.0
C      1  0.4131960000000  0.4950640000000  0.5658500000000 1.0
C      1  0.4066000000000  0.4446060000000  0.4583060000000 1.0
C      1  0.4133070000000  0.5587160000000  0.4692010000000 1.0
C      1  0.5855100000000  0.4967130000000  0.4352840000000 1.0
C      1  0.5902090000000  0.4452540000000  0.5423560000000 1.0
C      1  0.5912080000000  0.5575510000000  0.5291880000000 1.0
C      1  0.4117610000000  0.4959530000000  0.4359640000000 1.0
C      1  0.4096890000000  0.4425270000000  0.5434440000000 1.0
C      1  0.4094050000000  0.5608940000000  0.5266960000000 1.0
C      1  0.4260880000000  0.4484060000000  0.4371540000000 1.0
C      1  0.4260560000000  0.5808480000000  0.4833980000000 1.0
C      1  0.4279260000000  0.4731450000000  0.5784520000000 1.0
C      1  0.5725770000000  0.4486650000000  0.4353600000000 1.0
C      1  0.5740950000000  0.5772870000000  0.4867250000000 1.0
C      1  0.5741140000000  0.4729470000000  0.5802310000000 1.0
C      1  0.4277640000000  0.4473230000000  0.5654070000000 1.0
C      1  0.4266910000000  0.5800140000000  0.5125490000000 1.0
C      1  0.4257130000000  0.4736850000000  0.4233460000000 1.0
C      1  0.5730140000000  0.4481330000000  0.5652520000000 1.0
C      1  0.5738890000000  0.5770230000000  0.5156340000000 1.0
C      1  0.5729790000000  0.4741860000000  0.4216980000000 1.0
C      1  0.5770970000000  0.5620240000000  0.5782970000000 1.0
C      1  0.5755130000000  0.4056860000000  0.5134610000000 1.0
C      1  0.5741360000000  0.5379870000000  0.4069990000000 1.0
C      1  0.4307180000000  0.5596950000000  0.5729400000000 1.0
C      1  0.4235870000000  0.4027650000000  0.5157200000000 1.0
C      1  0.4317960000000  0.5350280000000  0.4118250000000 1.0
C      1  0.5682730000000  0.5587550000000  0.4267820000000 1.0
C      1  0.5768790000000  0.4035650000000  0.4847680000000 1.0
C      1  0.5786370000000  0.5387370000000  0.5963530000000 1.0
C      1  0.4261280000000  0.5625830000000  0.4198160000000 1.0
C      1  0.4252580000000  0.4070490000000  0.4872270000000 1.0
C      1  0.4260590000000  0.5376280000000  0.5915520000000 1.0
C      1  0.5274330000000  0.5979120000000  0.5280730000000 1.0
C      1  0.5280750000000  0.4262690000000  0.5702310000000 1.0
C      1  0.5270250000000  0.4769000000000  0.3985610000000 1.0
C      1  0.4707230000000  0.5993110000000  0.5277350000000 1.0
C      1  0.4731220000000  0.4260900000000  0.5717090000000 1.0
C      1  0.4724680000000  0.4764080000000  0.3996870000000 1.0
C      1  0.5279340000000  0.5982640000000  0.4716350000000 1.0
C      1  0.5286600000000  0.4261510000000  0.4277160000000 1.0
C      1  0.5282350000000  0.4762820000000  0.6002980000000 1.0
C      1  0.4728180000000  0.5992760000000  0.4702330000000 1.0
C      1  0.4731270000000  0.4266380000000  0.4288400000000 1.0
C      1  0.4745270000000  0.4765350000000  0.6001970000000 1.0
C      1  0.4707770000000  0.5005980000000  0.5288440000000 1.0
C      1  0.4680390000000  0.4750520000000  0.4856410000000 1.0
C      1  0.4646840000000  0.5250200000000  0.4840960000000 1.0
C      1  0.5187980000000  0.5013320000000  0.5277280000000 1.0
C      1  0.5205000000000  0.4771980000000  0.4832590000000 1.0
C      1  0.5252800000000  0.5251440000000  0.4846980000000 1.0
C      1  0.4737740000000  0.5003390000000  0.4704050000000 1.0
C      1  0.4809000000000  0.4754860000000  0.5137820000000 1.0
C      1  0.4770470000000  0.5254310000000  0.5125880000000 1.0
C      1  0.5339650000000  0.5008800000000  0.4703550000000 1.0
C      1  0.5118990000000  0.4765020000000  0.5123460000000 1.0
C      1  0.5311110000000  0.5242340000000  0.5139280000000 1.0
C      1  0.4860610000000  0.4771550000000  0.5724070000000 1.0
C      1  0.4857180000000  0.4497430000000  0.4432650000000 1.0
C      1  0.4833120000000  0.5744230000000  0.4830030000000 1.0
C      1  0.5174960000000  0.4764390000000  0.5720830000000 1.0
C      1  0.5188180000000  0.4500450000000  0.4425230000000 1.0
C      1  0.5150330000000  0.5742290000000  0.4838270000000 1.0
C      1  0.4846930000000  0.4772410000000  0.4270340000000 1.0
C      1  0.4829280000000  0.4498020000000  0.5564350000000 1.0
C      1  0.4806710000000  0.5743410000000  0.5149660000000 1.0
C      1  0.5164640000000  0.4778820000000  0.4264960000000 1.0
C      1  0.5173930000000  0.4498840000000  0.5555200000000 1.0
C      1  0.5145400000000  0.5739680000000  0.5153940000000 1.0
C      1  0.4749780000000  0.5770570000000  0.4270720000000 1.0
C      1  0.4750170000000  0.5250170000000  0.6018220000000 1.0
C      1  0.4747810000000  0.4002940000000  0.4706660000000 1.0
C      1  0.5282640000000  0.5784030000000  0.4261780000000 1.0
C      1  0.5280190000000  0.5257600000000  0.6023510000000 1.0
C      1  0.5281390000000  0.3988280000000  0.4696240000000 1.0
C      1  0.4715050000000  0.5778950000000  0.5724700000000 1.0
C      1  0.4720440000000  0.5256830000000  0.3950320000000 1.0
C      1  0.4731520000000  0.3990230000000  0.5297200000000 1.0
C      1  0.5252670000000  0.5757500000000  0.5711860000000 1.0
C      1  0.5252710000000  0.5253870000000  0.3969560000000 1.0
C      1  0.5261410000000  0.4002670000000  0.5285640000000 1.0
C      1  0.5940360000000  0.5527320000000  0.5571860000000 1.0
C      1  0.5922940000000  0.4218740000000  0.5278280000000 1.0
C      1  0.5924570000000  0.5220640000000  0.4235190000000 1.0
C      1  0.4093040000000  0.5550290000000  0.5546580000000 1.0
C      1  0.4067740000000  0.4179770000000  0.5311790000000 1.0
C      1  0.4098150000000  0.5219820000000  0.4248870000000 1.0
C      1  0.5898610000000  0.5536030000000  0.4450410000000 1.0
C      1  0.5931180000000  0.4204900000000  0.4707510000000 1.0
C      1  0.5952750000000  0.5215820000000  0.5801350000000 1.0
C      1  0.4070590000000  0.5566660000000  0.4411780000000 1.0
C      1  0.4064880000000  0.4216340000000  0.4735480000000 1.0
C      1  0.4080590000000  0.5218990000000  0.5751380000000 1.0
C      1  0.4354210000000  0.4704970000000  0.5211610000000 1.0
C      1  0.4223040000000  0.4937860000000  0.4788370000000 1.0
C      1  0.4351730000000  0.5268840000000  0.5173270000000 1.0
C      1  0.5588820000000  0.4646650000000  0.5182580000000 1.0
C      1  0.5656660000000  0.4964210000000  0.4745000000000 1.0
C      1  0.5593500000000  0.5171080000000  0.5181820000000 1.0
C      1  0.4389560000000  0.4730330000000  0.4917150000000 1.0
C      1  0.4406840000000  0.4998130000000  0.5318850000000 1.0
C      1  0.4317670000000  0.5227220000000  0.4862850000000 1.0
C      1  0.5628230000000  0.4665250000000  0.4865540000000 1.0
C      1  0.5616750000000  0.4923690000000  0.5347700000000 1.0
C      1  0.5763420000000  0.5178480000000  0.4944580000000 1.0
C      1  0.5148850000000  0.5768930000000  0.5992090000000 1.0
C      1  0.5155350000000  0.3757040000000  0.5154170000000 1.0
C      1  0.5153580000000  0.5499160000000  0.3827190000000 1.0
C      1  0.4843300000000  0.5769790000000  0.5999490000000 1.0
C      1  0.4850990000000  0.3754110000000  0.5153630000000 1.0
C      1  0.4848040000000  0.5503660000000  0.3825450000000 1.0
C      1  0.5157080000000  0.5774020000000  0.3984670000000 1.0
C      1  0.5157630000000  0.3753250000000  0.4838690000000 1.0
C      1  0.5155580000000  0.5501150000000  0.6154140000000 1.0
C      1  0.4851770000000  0.5774740000000  0.3988240000000 1.0
C      1  0.4852070000000  0.3755680000000  0.4837290000000 1.0
C      1  0.4849350000000  0.5495210000000  0.6159880000000 1.0
C      1  0.3975320000000  0.5409120000000  0.4840930000000 1.0
C      1  0.4034270000000  0.4902550000000  0.5393200000000 1.0
C      1  0.3950570000000  0.4676380000000  0.4703900000000 1.0
C      1  0.6068610000000  0.5401780000000  0.4863390000000 1.0
C      1  0.5992820000000  0.4926520000000  0.5433430000000 1.0
C      1  0.5982540000000  0.4674670000000  0.4729640000000 1.0
C      1  0.3998570000000  0.5382610000000  0.5119760000000 1.0
C      1  0.3918890000000  0.4907140000000  0.4551890000000 1.0
C      1  0.3986430000000  0.4642640000000  0.5295670000000 1.0
C      1  0.6037930000000  0.5371960000000  0.5137400000000 1.0
C      1  0.6006350000000  0.4913950000000  0.4584080000000 1.0
C      1  0.5961130000000  0.4690840000000  0.5283470000000 1.0
C      1  0.5297040000000  0.4992080000000  0.5557040000000 1.0
C      1  0.5318360000000  0.4521260000000  0.4710870000000 1.0
C      1  0.5263110000000  0.5501660000000  0.4709570000000 1.0
C      1  0.4770650000000  0.5010440000000  0.5576220000000 1.0
C      1  0.4763130000000  0.4504140000000  0.4712610000000 1.0
C      1  0.4731450000000  0.5499430000000  0.4691760000000 1.0
C      1  0.5264820000000  0.5019040000000  0.4411240000000 1.0
C      1  0.5273430000000  0.4529080000000  0.5258550000000 1.0
C      1  0.5243270000000  0.5494860000000  0.5284140000000 1.0
C      1  0.4733500000000  0.5002170000000  0.4417340000000 1.0
C      1  0.4694990000000  0.4516820000000  0.5288050000000 1.0
C      1  0.4673090000000  0.5492380000000  0.5272630000000 1.0
C      1  0.5560020000000  0.3934250000000  0.4699850000000 1.0
C      1  0.5566460000000  0.5834440000000  0.4223440000000 1.0
C      1  0.5557830000000  0.5276720000000  0.6074580000000 1.0
C      1  0.4465010000000  0.3980910000000  0.4722180000000 1.0
C      1  0.4467570000000  0.5796610000000  0.4260660000000 1.0
C      1  0.4467480000000  0.5246030000000  0.6041930000000 1.0
C      1  0.5540550000000  0.3963010000000  0.5275690000000 1.0
C      1  0.5536640000000  0.5761190000000  0.5731570000000 1.0
C      1  0.5535340000000  0.5246740000000  0.3945720000000 1.0
C      1  0.4453640000000  0.3936090000000  0.5297170000000 1.0
C      1  0.4434450000000  0.5838440000000  0.5770210000000 1.0
C      1  0.4437630000000  0.5265790000000  0.3883790000000 1.0
END
