TITL C-3578198-8939-72 -6.33234418285406e-07 125000 -999.977867856447 0 0 158 (C1) n - 1
REM
REM in /home/bkarasulu/work/CARBON/AIRSS/Generating-Clusters/EDIP-Nigel-Params/with-SteepDescent/Higher-Symm/SD-CG/HFTN-CG
REM
REM
REM
REM
REM
REM ./C.cell (12c818d87b63d06a65506943cc24bca4)
REM
REM compiler GCC version 9.2.1 20190827 (Red Hat 9.2.1-1)
REM options -cpp -mtune=generic -march=x86-64 -g -O0 -fpre-include=/usr/include/finclude/math-vector-fortran.h
REM seed 1483335887 -431813293 -1649571950 2033971111 -1831173367 423086712 -1740768491 987992872 -1510734992 -1578898922 1238248510 -678381874 374974008 -547481209 -709033176 -1499887471 371210859 131841646 -146257802 1175189301 1721343379 -1374765556 -1076177659 2120762912 -1366520787 152692738 127822421 -1590167262 -2008407448 1140350233 -170961281 553339037 -2061956814
REM
CELL 1.54180   50.00000   50.00000   50.00000   90.00000   90.00000   90.00000
LATT -1
SFAC C  
C      1  0.5351520000000  0.5619410000000  0.4839530000000 1.0
C      1  0.4679500000000  0.5600850000000  0.4850890000000 1.0
C      1  0.5313530000000  0.4324990000000  0.5314670000000 1.0
C      1  0.4596590000000  0.4330980000000  0.5295630000000 1.0
C      1  0.4699200000000  0.5856120000000  0.4683310000000 1.0
C      1  0.5341550000000  0.5877110000000  0.4678590000000 1.0
C      1  0.5829020000000  0.4914620000000  0.5631590000000 1.0
C      1  0.4207010000000  0.4960160000000  0.5520850000000 1.0
C      1  0.5149250000000  0.5433580000000  0.5220480000000 1.0
C      1  0.4856420000000  0.5444060000000  0.5275930000000 1.0
C      1  0.5267990000000  0.5337440000000  0.5800130000000 1.0
C      1  0.4727770000000  0.5349160000000  0.5775580000000 1.0
C      1  0.4699410000000  0.4926080000000  0.5430420000000 1.0
C      1  0.5254340000000  0.4952560000000  0.5353360000000 1.0
C      1  0.5573690000000  0.5697000000000  0.5226870000000 1.0
C      1  0.4445900000000  0.5751740000000  0.5260180000000 1.0
C      1  0.5216340000000  0.4241190000000  0.6078840000000 1.0
C      1  0.4958300000000  0.4176780000000  0.6085160000000 1.0
C      1  0.4661940000000  0.5572330000000  0.4319530000000 1.0
C      1  0.5356200000000  0.5599130000000  0.4292060000000 1.0
C      1  0.4700830000000  0.4143470000000  0.4965970000000 1.0
C      1  0.5292420000000  0.4125400000000  0.4926530000000 1.0
C      1  0.5802700000000  0.4515630000000  0.4567050000000 1.0
C      1  0.4186490000000  0.4495650000000  0.4555010000000 1.0
C      1  0.4730600000000  0.5833660000000  0.5639780000000 1.0
C      1  0.5319540000000  0.5791870000000  0.5622590000000 1.0
C      1  0.5493370000000  0.4551930000000  0.5184170000000 1.0
C      1  0.4435510000000  0.4592670000000  0.5235810000000 1.0
C      1  0.4190080000000  0.5637170000000  0.5150520000000 1.0
C      1  0.5805850000000  0.5701990000000  0.5053310000000 1.0
C      1  0.5488980000000  0.4222190000000  0.5538770000000 1.0
C      1  0.4409100000000  0.4160120000000  0.5443490000000 1.0
C      1  0.5405610000000  0.4651820000000  0.5825860000000 1.0
C      1  0.4730620000000  0.4469780000000  0.5767930000000 1.0
C      1  0.5148970000000  0.4694890000000  0.3994530000000 1.0
C      1  0.4860470000000  0.4687770000000  0.3992440000000 1.0
C      1  0.4182160000000  0.5346000000000  0.5244320000000 1.0
C      1  0.5748240000000  0.5314980000000  0.5347160000000 1.0
C      1  0.3920960000000  0.5200980000000  0.5194040000000 1.0
C      1  0.6018170000000  0.5201900000000  0.5259710000000 1.0
C      1  0.4876030000000  0.5405760000000  0.4731760000000 1.0
C      1  0.5154020000000  0.5472560000000  0.4685660000000 1.0
C      1  0.5130040000000  0.5073830000000  0.4869330000000 1.0
C      1  0.4843200000000  0.5008490000000  0.4965430000000 1.0
C      1  0.4863570000000  0.5181300000000  0.3987240000000 1.0
C      1  0.5132810000000  0.5176980000000  0.4098810000000 1.0
C      1  0.5750050000000  0.5744820000000  0.4567690000000 1.0
C      1  0.4246720000000  0.5732770000000  0.4578580000000 1.0
C      1  0.4429140000000  0.4472920000000  0.4732770000000 1.0
C      1  0.5557260000000  0.4448280000000  0.4725620000000 1.0
C      1  0.6056630000000  0.5166540000000  0.4955380000000 1.0
C      1  0.3881950000000  0.5135760000000  0.4902790000000 1.0
C      1  0.3961850000000  0.4697770000000  0.5151470000000 1.0
C      1  0.5936350000000  0.4748260000000  0.5161270000000 1.0
C      1  0.4828070000000  0.6060330000000  0.4844300000000 1.0
C      1  0.5206840000000  0.6070110000000  0.4851250000000 1.0
C      1  0.5890060000000  0.4963010000000  0.4417180000000 1.0
C      1  0.4099520000000  0.4929870000000  0.4397950000000 1.0
C      1  0.4171470000000  0.5565340000000  0.4807910000000 1.0
C      1  0.5917660000000  0.5653760000000  0.4786620000000 1.0
C      1  0.5668540000000  0.5253200000000  0.4038490000000 1.0
C      1  0.4338740000000  0.5235020000000  0.4039510000000 1.0
C      1  0.4572730000000  0.4375810000000  0.4275000000000 1.0
C      1  0.5429000000000  0.4392000000000  0.4267820000000 1.0
C      1  0.6071510000000  0.4865250000000  0.4890300000000 1.0
C      1  0.4025000000000  0.4866790000000  0.4892970000000 1.0
C      1  0.4488340000000  0.4728490000000  0.4909040000000 1.0
C      1  0.5493500000000  0.4689100000000  0.4908650000000 1.0
C      1  0.5576500000000  0.4200330000000  0.4892780000000 1.0
C      1  0.4406570000000  0.4234180000000  0.4908890000000 1.0
C      1  0.4683150000000  0.4906040000000  0.4728030000000 1.0
C      1  0.5242520000000  0.4807410000000  0.4807570000000 1.0
C      1  0.4713200000000  0.4937630000000  0.3978830000000 1.0
C      1  0.5287200000000  0.4953180000000  0.3990550000000 1.0
C      1  0.4392690000000  0.5219140000000  0.5057940000000 1.0
C      1  0.5576950000000  0.5208820000000  0.5084920000000 1.0
C      1  0.5686440000000  0.4541420000000  0.4294840000000 1.0
C      1  0.4307540000000  0.4513980000000  0.4281770000000 1.0
C      1  0.5174500000000  0.3949150000000  0.5128320000000 1.0
C      1  0.4868280000000  0.3960380000000  0.5166140000000 1.0
C      1  0.4299590000000  0.5236770000000  0.5504440000000 1.0
C      1  0.5646880000000  0.5140020000000  0.5573680000000 1.0
C      1  0.5159860000000  0.5951200000000  0.5117320000000 1.0
C      1  0.4868800000000  0.5954260000000  0.5115350000000 1.0
C      1  0.4887330000000  0.4717740000000  0.5879180000000 1.0
C      1  0.5168590000000  0.4841580000000  0.5851500000000 1.0
C      1  0.4428210000000  0.5407250000000  0.4833120000000 1.0
C      1  0.5586870000000  0.5413070000000  0.4853630000000 1.0
C      1  0.4418960000000  0.5375510000000  0.5736130000000 1.0
C      1  0.5579440000000  0.5337990000000  0.5776870000000 1.0
C      1  0.4175290000000  0.4245320000000  0.5069010000000 1.0
C      1  0.5780790000000  0.4195440000000  0.5083860000000 1.0
C      1  0.4749370000000  0.4926020000000  0.6010290000000 1.0
C      1  0.5222330000000  0.4977340000000  0.6108430000000 1.0
C      1  0.4826300000000  0.5199510000000  0.6016850000000 1.0
C      1  0.5123810000000  0.5234030000000  0.6054020000000 1.0
C      1  0.5688300000000  0.4832890000000  0.4255440000000 1.0
C      1  0.4306930000000  0.4804730000000  0.4240150000000 1.0
C      1  0.5139180000000  0.4191830000000  0.4688080000000 1.0
C      1  0.4846490000000  0.4223220000000  0.4712870000000 1.0
C      1  0.5292500000000  0.5679470000000  0.5122240000000 1.0
C      1  0.4720120000000  0.5691050000000  0.5138600000000 1.0
C      1  0.5728280000000  0.4393780000000  0.5537600000000 1.0
C      1  0.4266130000000  0.4358060000000  0.5585080000000 1.0
C      1  0.5656390000000  0.5658120000000  0.4309770000000 1.0
C      1  0.4358900000000  0.5627610000000  0.4333990000000 1.0
C      1  0.4826760000000  0.5801310000000  0.4425020000000 1.0
C      1  0.5199950000000  0.5822300000000  0.4419980000000 1.0
C      1  0.4215710000000  0.5382500000000  0.4244900000000 1.0
C      1  0.5802690000000  0.5411230000000  0.4230340000000 1.0
C      1  0.5140350000000  0.5082530000000  0.4480820000000 1.0
C      1  0.4864490000000  0.5088840000000  0.4360860000000 1.0
C      1  0.4322510000000  0.5639690000000  0.5720200000000 1.0
C      1  0.5725370000000  0.5565430000000  0.5645320000000 1.0
C      1  0.4725170000000  0.4454490000000  0.4054110000000 1.0
C      1  0.5290880000000  0.4461750000000  0.4035630000000 1.0
C      1  0.4684000000000  0.4434290000000  0.4555550000000 1.0
C      1  0.5296220000000  0.4411800000000  0.4547210000000 1.0
C      1  0.5774830000000  0.4439160000000  0.5237970000000 1.0
C      1  0.4154100000000  0.4472470000000  0.5246080000000 1.0
C      1  0.5274990000000  0.5172490000000  0.5134810000000 1.0
C      1  0.4685820000000  0.5209140000000  0.5152970000000 1.0
C      1  0.5309570000000  0.5335850000000  0.4472950000000 1.0
C      1  0.4717900000000  0.5316240000000  0.4487920000000 1.0
C      1  0.4174900000000  0.5207750000000  0.4484820000000 1.0
C      1  0.5835760000000  0.5250170000000  0.4485690000000 1.0
C      1  0.5150630000000  0.5597570000000  0.5725930000000 1.0
C      1  0.4866130000000  0.5616190000000  0.5748710000000 1.0
C      1  0.5217550000000  0.3969110000000  0.5434090000000 1.0
C      1  0.4913630000000  0.4038000000000  0.5473600000000 1.0
C      1  0.4834090000000  0.4698740000000  0.4557630000000 1.0
C      1  0.5128610000000  0.4660960000000  0.4593400000000 1.0
C      1  0.4464040000000  0.5199190000000  0.4614030000000 1.0
C      1  0.5564700000000  0.5256120000000  0.4608890000000 1.0
C      1  0.5574870000000  0.5762870000000  0.5508780000000 1.0
C      1  0.4467680000000  0.5805850000000  0.5549580000000 1.0
C      1  0.4299390000000  0.4949780000000  0.4940140000000 1.0
C      1  0.5694180000000  0.4915920000000  0.4989110000000 1.0
C      1  0.5147740000000  0.5077760000000  0.5625560000000 1.0
C      1  0.4855110000000  0.5174210000000  0.5553640000000 1.0
C      1  0.4822960000000  0.4799520000000  0.5186850000000 1.0
C      1  0.5076420000000  0.4725970000000  0.5262570000000 1.0
C      1  0.4839020000000  0.4337300000000  0.5489150000000 1.0
C      1  0.5084440000000  0.4480350000000  0.5406740000000 1.0
C      1  0.5385010000000  0.4417960000000  0.5972260000000 1.0
C      1  0.4734810000000  0.4265860000000  0.5969030000000 1.0
C      1  0.3962720000000  0.4934370000000  0.5341950000000 1.0
C      1  0.6019110000000  0.4927670000000  0.5392660000000 1.0
C      1  0.5922130000000  0.4780970000000  0.4637540000000 1.0
C      1  0.4018400000000  0.4740010000000  0.4609610000000 1.0
C      1  0.4427130000000  0.4968090000000  0.4031120000000 1.0
C      1  0.5578010000000  0.4985510000000  0.4034640000000 1.0
C      1  0.5502460000000  0.4780990000000  0.5365230000000 1.0
C      1  0.4439240000000  0.4771670000000  0.5488220000000 1.0
C      1  0.5627310000000  0.4675470000000  0.5617790000000 1.0
C      1  0.4444750000000  0.4560950000000  0.5705140000000 1.0
C      1  0.3993190000000  0.5336150000000  0.4703920000000 1.0
C      1  0.6004640000000  0.5364690000000  0.4727870000000 1.0
END
