TITL C-3577088-510-305 -1.29124650808052e-06 125000 -310.712371082842 0 0 51 (C1) n - 1
REM
REM in /home/bkarasulu/work/CARBON/AIRSS/Generating-Clusters/EDIP-Nigel-Params/with-SteepDescent/Higher-Symm/SD-CG/HFTN-CG
REM
REM
REM
REM
REM
REM ./C.cell (12c818d87b63d06a65506943cc24bca4)
REM
REM compiler GCC version 9.2.1 20190827 (Red Hat 9.2.1-1)
REM options -cpp -mtune=generic -march=x86-64 -g -O0 -fpre-include=/usr/include/finclude/math-vector-fortran.h
REM seed -1926599092 1972573252 -895946197 -1562989433 -255156460 -182865712 -1645814904 1328406369 -1901250645 640702741 1818351503 -1123236505 1017242377 -2013983105 -204303821 -421060661 775819058 -1215849814 -238103124 1134601150 520798406 9822024 -1306811341 1967538448 -2102605321 -1785900868 -505528607 1074716967 -528952369 -1017207802 2027036656 -702434253 -145837468
REM
CELL 1.54180   50.00000   50.00000   50.00000   90.00000   90.00000   90.00000
LATT -1
SFAC C  
C      1  0.5427890000000  0.4518390000000  0.5194580000000 1.0
C      1  0.5253530000000  0.4489530000000  0.5432550000000 1.0
C      1  0.4777810000000  0.4463570000000  0.4605150000000 1.0
C      1  0.4904480000000  0.4830040000000  0.5068600000000 1.0
C      1  0.5642520000000  0.4728360000000  0.5221060000000 1.0
C      1  0.4355130000000  0.4727460000000  0.4872440000000 1.0
C      1  0.4419310000000  0.5018560000000  0.4492060000000 1.0
C      1  0.5599700000000  0.4842730000000  0.4751940000000 1.0
C      1  0.5401180000000  0.5268060000000  0.4691020000000 1.0
C      1  0.5678000000000  0.4934580000000  0.5008550000000 1.0
C      1  0.4965880000000  0.4618010000000  0.4488240000000 1.0
C      1  0.5221980000000  0.4814100000000  0.5624660000000 1.0
C      1  0.5443220000000  0.4970220000000  0.5532120000000 1.0
C      1  0.5320890000000  0.4769580000000  0.4796530000000 1.0
C      1  0.5139090000000  0.5772910000000  0.4623330000000 1.0
C      1  0.4927510000000  0.5599270000000  0.4553370000000 1.0
C      1  0.4974760000000  0.5082920000000  0.4637170000000 1.0
C      1  0.4749610000000  0.4976110000000  0.4825830000000 1.0
C      1  0.5316910000000  0.5364860000000  0.4436270000000 1.0
C      1  0.5130640000000  0.5288660000000  0.5317430000000 1.0
C      1  0.5356560000000  0.5768100000000  0.4792360000000 1.0
C      1  0.4393610000000  0.5051980000000  0.5295060000000 1.0
C      1  0.4749990000000  0.4498100000000  0.5469750000000 1.0
C      1  0.4955480000000  0.4930320000000  0.5605620000000 1.0
C      1  0.5160760000000  0.5195580000000  0.4856530000000 1.0
C      1  0.4748140000000  0.4404050000000  0.4878240000000 1.0
C      1  0.4807450000000  0.5517070000000  0.5042020000000 1.0
C      1  0.4599660000000  0.5210680000000  0.4940220000000 1.0
C      1  0.5032320000000  0.5335370000000  0.4454300000000 1.0
C      1  0.4898130000000  0.5128810000000  0.5386880000000 1.0
C      1  0.5097980000000  0.5426910000000  0.5058690000000 1.0
C      1  0.4708320000000  0.5595940000000  0.4760810000000 1.0
C      1  0.4442910000000  0.5285840000000  0.4462640000000 1.0
C      1  0.4978680000000  0.4520120000000  0.5042100000000 1.0
C      1  0.5545370000000  0.5438330000000  0.4893820000000 1.0
C      1  0.5371560000000  0.5113530000000  0.5279320000000 1.0
C      1  0.5331820000000  0.5619170000000  0.5033430000000 1.0
C      1  0.4607490000000  0.4662610000000  0.5264340000000 1.0
C      1  0.5269480000000  0.4511970000000  0.4938940000000 1.0
C      1  0.4501740000000  0.4513710000000  0.5021100000000 1.0
C      1  0.4538630000000  0.4830740000000  0.4664060000000 1.0
C      1  0.4287540000000  0.4933930000000  0.5058750000000 1.0
C      1  0.5678870000000  0.4822550000000  0.5488270000000 1.0
C      1  0.4489190000000  0.5395850000000  0.4716670000000 1.0
C      1  0.5130140000000  0.4829610000000  0.4560870000000 1.0
C      1  0.4636780000000  0.5247110000000  0.5268740000000 1.0
C      1  0.4762420000000  0.4724460000000  0.5671940000000 1.0
C      1  0.5613900000000  0.5219490000000  0.5110820000000 1.0
C      1  0.5202000000000  0.4945800000000  0.5025450000000 1.0
C      1  0.4995040000000  0.4412620000000  0.5325060000000 1.0
C      1  0.4457970000000  0.4831710000000  0.5460300000000 1.0
END
