TITL C-3577084-3642-505 -2.4728210853295e-06 125000 -1174.75624593376 0 0 189 (C1) n - 1
REM
REM in /home/bkarasulu/work/CARBON/AIRSS/Generating-Clusters/EDIP-Nigel-Params/with-SteepDescent/Higher-Symm/SD-CG/HFTN-CG
REM
REM
REM
REM
REM
REM ./C.cell (12c818d87b63d06a65506943cc24bca4)
REM
REM compiler GCC version 9.2.1 20190827 (Red Hat 9.2.1-1)
REM options -cpp -mtune=generic -march=x86-64 -g -O0 -fpre-include=/usr/include/finclude/math-vector-fortran.h
REM seed -2109814090 308260668 -131358681 -809433181 1039124345 -310670895 358879758 -1652433210 -1212723116 1135161660 -2072900817 1010709900 -2004409221 -718813553 1097333401 -345901890 740227296 -654033023 1906938816 -2071219168 880182667 1090870268 670888765 1309611397 -1861607602 -206881039 -77802140 -1891271256 -751741592 1055759845 -635568501 -1836027409 -858982891
REM
CELL 1.54180   50.00000   50.00000   50.00000   90.00000   90.00000   90.00000
LATT -1
SFAC C  
C      1  0.5262690000000  0.4500080000000  0.5549120000000 1.0
C      1  0.4739270000000  0.4431380000000  0.5537040000000 1.0
C      1  0.4414210000000  0.4553720000000  0.5109420000000 1.0
C      1  0.4573460000000  0.4496510000000  0.4625560000000 1.0
C      1  0.4988370000000  0.4528900000000  0.4400290000000 1.0
C      1  0.5503600000000  0.4476160000000  0.4619430000000 1.0
C      1  0.5617720000000  0.4520960000000  0.5125300000000 1.0
C      1  0.6237600000000  0.4614380000000  0.4810020000000 1.0
C      1  0.5890830000000  0.4710460000000  0.5833590000000 1.0
C      1  0.4906050000000  0.4758220000000  0.6177060000000 1.0
C      1  0.4035470000000  0.4663920000000  0.5701310000000 1.0
C      1  0.3854650000000  0.4699150000000  0.4698770000000 1.0
C      1  0.4577390000000  0.4641860000000  0.3916100000000 1.0
C      1  0.5656610000000  0.4711450000000  0.3937140000000 1.0
C      1  0.4659190000000  0.5655240000000  0.4169700000000 1.0
C      1  0.5393880000000  0.5657110000000  0.4186050000000 1.0
C      1  0.5856850000000  0.5718030000000  0.4926320000000 1.0
C      1  0.5644620000000  0.5670190000000  0.5613420000000 1.0
C      1  0.4966230000000  0.5644330000000  0.5914610000000 1.0
C      1  0.4220890000000  0.5674240000000  0.5453890000000 1.0
C      1  0.4139500000000  0.5646280000000  0.4736540000000 1.0
C      1  0.5920550000000  0.4517560000000  0.4307630000000 1.0
C      1  0.6085480000000  0.4524780000000  0.5285030000000 1.0
C      1  0.5441190000000  0.4587190000000  0.6023910000000 1.0
C      1  0.4508190000000  0.4627810000000  0.5912590000000 1.0
C      1  0.3900930000000  0.4595260000000  0.5232290000000 1.0
C      1  0.4191590000000  0.4602110000000  0.4351320000000 1.0
C      1  0.5079360000000  0.4490060000000  0.3869410000000 1.0
C      1  0.5226630000000  0.5054530000000  0.4816910000000 1.0
C      1  0.5329780000000  0.4923420000000  0.5042780000000 1.0
C      1  0.5154600000000  0.4981710000000  0.5251900000000 1.0
C      1  0.4873840000000  0.5023040000000  0.5279020000000 1.0
C      1  0.4692000000000  0.4925420000000  0.5069150000000 1.0
C      1  0.4754470000000  0.5038880000000  0.4804020000000 1.0
C      1  0.5001420000000  0.4934430000000  0.4686810000000 1.0
C      1  0.4343000000000  0.4249060000000  0.5125570000000 1.0
C      1  0.4525720000000  0.4117470000000  0.4585990000000 1.0
C      1  0.5027290000000  0.4217560000000  0.4367690000000 1.0
C      1  0.5514870000000  0.4093560000000  0.4665330000000 1.0
C      1  0.5555670000000  0.4148880000000  0.5203210000000 1.0
C      1  0.5187360000000  0.4125020000000  0.5609590000000 1.0
C      1  0.4633230000000  0.4058560000000  0.5560840000000 1.0
C      1  0.4961630000000  0.5374810000000  0.5765290000000 1.0
C      1  0.4375840000000  0.5431590000000  0.5409330000000 1.0
C      1  0.4249110000000  0.5369500000000  0.4814150000000 1.0
C      1  0.4722480000000  0.5413510000000  0.4321090000000 1.0
C      1  0.5350360000000  0.5388650000000  0.4329210000000 1.0
C      1  0.5698730000000  0.5481640000000  0.4904130000000 1.0
C      1  0.5571490000000  0.5397820000000  0.5499230000000 1.0
C      1  0.4618170000000  0.4088090000000  0.5067170000000 1.0
C      1  0.4733010000000  0.4076970000000  0.4783530000000 1.0
C      1  0.5009520000000  0.4087000000000  0.4660910000000 1.0
C      1  0.5262400000000  0.4072830000000  0.4821960000000 1.0
C      1  0.5283090000000  0.4089170000000  0.5121730000000 1.0
C      1  0.5079280000000  0.4064170000000  0.5341780000000 1.0
C      1  0.4780320000000  0.4051840000000  0.5312990000000 1.0
C      1  0.5256290000000  0.6404610000000  0.5162240000000 1.0
C      1  0.5105850000000  0.6261650000000  0.5351340000000 1.0
C      1  0.4832600000000  0.6331980000000  0.5346770000000 1.0
C      1  0.4657610000000  0.6269000000000  0.5134590000000 1.0
C      1  0.4704710000000  0.6430480000000  0.4910320000000 1.0
C      1  0.4954810000000  0.6433620000000  0.4805800000000 1.0
C      1  0.5200590000000  0.6334770000000  0.4895590000000 1.0
C      1  0.5313960000000  0.4851800000000  0.5926400000000 1.0
C      1  0.4387510000000  0.4890130000000  0.5956850000000 1.0
C      1  0.3917070000000  0.4872110000000  0.5144840000000 1.0
C      1  0.4181250000000  0.4851970000000  0.4216130000000 1.0
C      1  0.5169650000000  0.4786410000000  0.3839260000000 1.0
C      1  0.5897900000000  0.4761330000000  0.4487990000000 1.0
C      1  0.6089250000000  0.4812890000000  0.5375310000000 1.0
C      1  0.4606540000000  0.5083760000000  0.5628830000000 1.0
C      1  0.4427870000000  0.5035690000000  0.5157860000000 1.0
C      1  0.4481380000000  0.5065780000000  0.4460240000000 1.0
C      1  0.4993620000000  0.5041640000000  0.4410380000000 1.0
C      1  0.5672340000000  0.5138310000000  0.4627110000000 1.0
C      1  0.5593870000000  0.5061990000000  0.5122610000000 1.0
C      1  0.5291520000000  0.5004790000000  0.5494810000000 1.0
C      1  0.5086090000000  0.5826270000000  0.4458680000000 1.0
C      1  0.5495210000000  0.6032640000000  0.4637580000000 1.0
C      1  0.5608060000000  0.5974060000000  0.5187140000000 1.0
C      1  0.5232720000000  0.5810870000000  0.5538560000000 1.0
C      1  0.4751240000000  0.5807360000000  0.5525690000000 1.0
C      1  0.4438600000000  0.5806260000000  0.5098840000000 1.0
C      1  0.4578110000000  0.5782470000000  0.4639020000000 1.0
C      1  0.5445170000000  0.4467350000000  0.4309060000000 1.0
C      1  0.5867560000000  0.4291390000000  0.4931540000000 1.0
C      1  0.5565560000000  0.4471840000000  0.5579010000000 1.0
C      1  0.4901500000000  0.4455580000000  0.5794130000000 1.0
C      1  0.4233040000000  0.4282450000000  0.5407160000000 1.0
C      1  0.4138530000000  0.4306090000000  0.4680110000000 1.0
C      1  0.4788900000000  0.4208700000000  0.4165470000000 1.0
C      1  0.4767370000000  0.4570320000000  0.6020700000000 1.0
C      1  0.4067360000000  0.4521870000000  0.5457920000000 1.0
C      1  0.3998040000000  0.4512720000000  0.4544980000000 1.0
C      1  0.4798500000000  0.4435660000000  0.3956960000000 1.0
C      1  0.5686240000000  0.4513480000000  0.4132880000000 1.0
C      1  0.6081510000000  0.4473990000000  0.4995510000000 1.0
C      1  0.5675090000000  0.4528920000000  0.5852160000000 1.0
C      1  0.5676150000000  0.4661040000000  0.5386820000000 1.0
C      1  0.5160000000000  0.4786640000000  0.5661360000000 1.0
C      1  0.4490330000000  0.4636080000000  0.5475100000000 1.0
C      1  0.4343780000000  0.4617310000000  0.4788430000000 1.0
C      1  0.4687090000000  0.4615230000000  0.4337610000000 1.0
C      1  0.5216710000000  0.4652050000000  0.4257060000000 1.0
C      1  0.5750870000000  0.4642110000000  0.4751770000000 1.0
C      1  0.4952790000000  0.4966150000000  0.3857800000000 1.0
C      1  0.5713310000000  0.5005890000000  0.4374880000000 1.0
C      1  0.6150960000000  0.4986760000000  0.5160440000000 1.0
C      1  0.5541130000000  0.5037220000000  0.5872700000000 1.0
C      1  0.4584460000000  0.5111340000000  0.6011910000000 1.0
C      1  0.3933890000000  0.5058260000000  0.5356230000000 1.0
C      1  0.4103970000000  0.5080050000000  0.4387930000000 1.0
C      1  0.4134370000000  0.5088660000000  0.5553800000000 1.0
C      1  0.4109740000000  0.5092500000000  0.4702450000000 1.0
C      1  0.4707550000000  0.4996320000000  0.4001710000000 1.0
C      1  0.5466090000000  0.5084570000000  0.4196610000000 1.0
C      1  0.6056090000000  0.5028640000000  0.4897030000000 1.0
C      1  0.5723250000000  0.5102460000000  0.5648550000000 1.0
C      1  0.4881810000000  0.5151600000000  0.5965270000000 1.0
C      1  0.4696650000000  0.5760730000000  0.5907530000000 1.0
C      1  0.4073780000000  0.5776650000000  0.5226800000000 1.0
C      1  0.4230850000000  0.5737970000000  0.4467380000000 1.0
C      1  0.4903100000000  0.5740490000000  0.4047620000000 1.0
C      1  0.5594080000000  0.5816510000000  0.4331260000000 1.0
C      1  0.5940260000000  0.5770620000000  0.5195840000000 1.0
C      1  0.5474290000000  0.5764110000000  0.5839520000000 1.0
C      1  0.5664740000000  0.5807310000000  0.4609410000000 1.0
C      1  0.5768760000000  0.5871770000000  0.5414980000000 1.0
C      1  0.5184740000000  0.5832710000000  0.5821850000000 1.0
C      1  0.4516420000000  0.5754130000000  0.5678570000000 1.0
C      1  0.4185970000000  0.5841960000000  0.4961480000000 1.0
C      1  0.4497180000000  0.5826890000000  0.4363230000000 1.0
C      1  0.5137040000000  0.5813570000000  0.4187120000000 1.0
C      1  0.4791630000000  0.4515010000000  0.4814160000000 1.0
C      1  0.5020400000000  0.4625050000000  0.4681370000000 1.0
C      1  0.5268330000000  0.4515970000000  0.4789710000000 1.0
C      1  0.5339610000000  0.4614670000000  0.5050200000000 1.0
C      1  0.5166100000000  0.4492250000000  0.5266880000000 1.0
C      1  0.4877100000000  0.4514440000000  0.5283640000000 1.0
C      1  0.4707190000000  0.4621540000000  0.5069640000000 1.0
C      1  0.5073950000000  0.4960810000000  0.6085750000000 1.0
C      1  0.4121690000000  0.4915810000000  0.5801830000000 1.0
C      1  0.3895190000000  0.4928770000000  0.4853810000000 1.0
C      1  0.4359720000000  0.4839200000000  0.3978160000000 1.0
C      1  0.5450950000000  0.4901790000000  0.3920340000000 1.0
C      1  0.6141020000000  0.4839290000000  0.4676190000000 1.0
C      1  0.5971070000000  0.4908040000000  0.5646900000000 1.0
C      1  0.5800720000000  0.4162440000000  0.4682310000000 1.0
C      1  0.5683690000000  0.4223290000000  0.5452810000000 1.0
C      1  0.5089590000000  0.4247320000000  0.5853780000000 1.0
C      1  0.4383160000000  0.4189260000000  0.5628990000000 1.0
C      1  0.4098700000000  0.4224670000000  0.4946460000000 1.0
C      1  0.4533020000000  0.4198650000000  0.4305270000000 1.0
C      1  0.5296370000000  0.4216100000000  0.4219040000000 1.0
C      1  0.4806230000000  0.4855360000000  0.5547330000000 1.0
C      1  0.4388240000000  0.4963890000000  0.5447810000000 1.0
C      1  0.4376970000000  0.4923570000000  0.4739300000000 1.0
C      1  0.4718030000000  0.4931070000000  0.4301160000000 1.0
C      1  0.5240710000000  0.4927810000000  0.4309420000000 1.0
C      1  0.5762510000000  0.4979510000000  0.4865290000000 1.0
C      1  0.5590460000000  0.4945720000000  0.5414940000000 1.0
C      1  0.5019900000000  0.5352260000000  0.4398810000000 1.0
C      1  0.5513540000000  0.5396110000000  0.4648710000000 1.0
C      1  0.5573430000000  0.5374220000000  0.5161810000000 1.0
C      1  0.5252250000000  0.5318070000000  0.5568970000000 1.0
C      1  0.4679160000000  0.5369570000000  0.5540000000000 1.0
C      1  0.4398130000000  0.5332480000000  0.5112310000000 1.0
C      1  0.4545950000000  0.5352870000000  0.4562160000000 1.0
C      1  0.4839050000000  0.5328390000000  0.5287810000000 1.0
C      1  0.4672840000000  0.5432480000000  0.5055620000000 1.0
C      1  0.4753700000000  0.5335170000000  0.4787850000000 1.0
C      1  0.5011950000000  0.5450820000000  0.4681160000000 1.0
C      1  0.5252300000000  0.5346700000000  0.4815190000000 1.0
C      1  0.5297910000000  0.5465180000000  0.5092960000000 1.0
C      1  0.5114950000000  0.5442170000000  0.5326300000000 1.0
C      1  0.4766280000000  0.5938310000000  0.4786150000000 1.0
C      1  0.5041740000000  0.5891860000000  0.4720120000000 1.0
C      1  0.5270160000000  0.6045110000000  0.4834590000000 1.0
C      1  0.5342980000000  0.5906810000000  0.5093310000000 1.0
C      1  0.5139060000000  0.5963820000000  0.5308200000000 1.0
C      1  0.4866970000000  0.5850150000000  0.5264960000000 1.0
C      1  0.4680120000000  0.5974120000000  0.5068130000000 1.0
C      1  0.5952630000000  0.4312980000000  0.5420820000000 1.0
C      1  0.5277230000000  0.4357070000000  0.6031390000000 1.0
C      1  0.4373220000000  0.4401670000000  0.5814590000000 1.0
C      1  0.3895250000000  0.4388390000000  0.5045400000000 1.0
C      1  0.4367330000000  0.4418080000000  0.4226340000000 1.0
C      1  0.5251680000000  0.4274640000000  0.3943470000000 1.0
C      1  0.5923480000000  0.4281420000000  0.4459750000000 1.0
END
