TITL C-3577082-504-329 -4.131836701668e-06 125000 -643.505147523488 0 0 104 (C2) n - 1
REM
REM in /home/bkarasulu/work/CARBON/AIRSS/Generating-Clusters/EDIP-Nigel-Params/with-SteepDescent/Higher-Symm/SD-CG/HFTN-CG
REM
REM
REM
REM
REM
REM ./C.cell (12c818d87b63d06a65506943cc24bca4)
REM
REM compiler GCC version 9.2.1 20190827 (Red Hat 9.2.1-1)
REM options -cpp -mtune=generic -march=x86-64 -g -O0 -fpre-include=/usr/include/finclude/math-vector-fortran.h
REM seed 1059050736 1605777379 273540991 -1585375225 -286205015 1374390659 -25519198 -400487928 -22168416 2087582006 -1286382805 467998871 -1373830108 -20793657 -573399003 203846002 -1727277862 -502851257 -381444282 -97479374 1868164598 1417190186 -1376342437 1756591218 524433721 -1920917426 1633587682 304064598 816673330 -648503549 -1456540298 1500559699 -381123987
REM
CELL 1.54180   50.00000   50.00000   50.00000   90.00000   90.00000   90.00000
LATT -1
SFAC C  
C      1  0.5286910000000  0.4395610000000  0.4857680000000 1.0
C      1  0.5603660000000  0.5288470000000  0.4854670000000 1.0
C      1  0.4709480000000  0.5604190000000  0.4859660000000 1.0
C      1  0.4396850000000  0.4713150000000  0.4852640000000 1.0
C      1  0.4708890000000  0.4396060000000  0.5140200000000 1.0
C      1  0.4397020000000  0.5287370000000  0.5147050000000 1.0
C      1  0.5287360000000  0.5604140000000  0.5142470000000 1.0
C      1  0.5603340000000  0.4711010000000  0.5145630000000 1.0
C      1  0.4046490000000  0.4877920000000  0.4905770000000 1.0
C      1  0.5123580000000  0.4045350000000  0.4913510000000 1.0
C      1  0.5953880000000  0.5123280000000  0.4907930000000 1.0
C      1  0.4876340000000  0.5954000000000  0.4904190000000 1.0
C      1  0.5953730000000  0.4875900000000  0.5092550000000 1.0
C      1  0.4875480000000  0.4046100000000  0.5095740000000 1.0
C      1  0.4046550000000  0.5122900000000  0.5093760000000 1.0
C      1  0.5124360000000  0.5954550000000  0.5086550000000 1.0
C      1  0.4840870000000  0.5408060000000  0.5800560000000 1.0
C      1  0.4593350000000  0.4819880000000  0.5803160000000 1.0
C      1  0.5148130000000  0.4583600000000  0.5816380000000 1.0
C      1  0.5434540000000  0.5159090000000  0.5812390000000 1.0
C      1  0.5148900000000  0.5416270000000  0.4183700000000 1.0
C      1  0.5434800000000  0.4840540000000  0.4187830000000 1.0
C      1  0.4840920000000  0.4592070000000  0.4199360000000 1.0
C      1  0.4593910000000  0.5180470000000  0.4196640000000 1.0
C      1  0.4140090000000  0.5017680000000  0.5370600000000 1.0
C      1  0.4976470000000  0.4143690000000  0.5372420000000 1.0
C      1  0.5862630000000  0.4980050000000  0.5369030000000 1.0
C      1  0.5022090000000  0.5867230000000  0.5366410000000 1.0
C      1  0.5862830000000  0.5019210000000  0.4631400000000 1.0
C      1  0.5021530000000  0.4132750000000  0.4633600000000 1.0
C      1  0.4140260000000  0.4983060000000  0.4628970000000 1.0
C      1  0.4977400000000  0.5856330000000  0.4627570000000 1.0
C      1  0.4778090000000  0.4947260000000  0.4640230000000 1.0
C      1  0.5060150000000  0.4774690000000  0.4643870000000 1.0
C      1  0.5223740000000  0.5056480000000  0.4642240000000 1.0
C      1  0.4944480000000  0.5220710000000  0.4644520000000 1.0
C      1  0.5223510000000  0.4943320000000  0.5357870000000 1.0
C      1  0.4944110000000  0.4779340000000  0.5355450000000 1.0
C      1  0.4777950000000  0.5052930000000  0.5359660000000 1.0
C      1  0.5060170000000  0.5225250000000  0.5356160000000 1.0
C      1  0.5208910000000  0.4898030000000  0.4031720000000 1.0
C      1  0.5052740000000  0.5243510000000  0.3977590000000 1.0
C      1  0.4805870000000  0.5078940000000  0.4033040000000 1.0
C      1  0.4947790000000  0.4850490000000  0.4145700000000 1.0
C      1  0.4805320000000  0.4921230000000  0.5966860000000 1.0
C      1  0.4947490000000  0.5149560000000  0.5854270000000 1.0
C      1  0.5208510000000  0.5101790000000  0.5968390000000 1.0
C      1  0.5052020000000  0.4756440000000  0.6022440000000 1.0
C      1  0.4189650000000  0.4644760000000  0.5065630000000 1.0
C      1  0.5353060000000  0.4195090000000  0.5077210000000 1.0
C      1  0.5809680000000  0.5355640000000  0.5069370000000 1.0
C      1  0.4643430000000  0.5814000000000  0.5071470000000 1.0
C      1  0.5809410000000  0.4643670000000  0.4931030000000 1.0
C      1  0.4642760000000  0.4186310000000  0.4928350000000 1.0
C      1  0.4189990000000  0.5355940000000  0.4933970000000 1.0
C      1  0.5353790000000  0.5804600000000  0.4922960000000 1.0
C      1  0.4991840000000  0.5468940000000  0.5551440000000 1.0
C      1  0.4537530000000  0.4981920000000  0.5558600000000 1.0
C      1  0.4997540000000  0.4542060000000  0.5564220000000 1.0
C      1  0.5466530000000  0.5007340000000  0.5561200000000 1.0
C      1  0.4998210000000  0.5457940000000  0.4435780000000 1.0
C      1  0.5466800000000  0.4992250000000  0.4439040000000 1.0
C      1  0.4991710000000  0.4531070000000  0.4448560000000 1.0
C      1  0.4537820000000  0.5018480000000  0.4441170000000 1.0
C      1  0.4618130000000  0.5576510000000  0.5532900000000 1.0
C      1  0.4420440000000  0.4611950000000  0.5525580000000 1.0
C      1  0.5371530000000  0.4435730000000  0.5537310000000 1.0
C      1  0.5574320000000  0.5381340000000  0.5529460000000 1.0
C      1  0.5372290000000  0.5563950000000  0.4462870000000 1.0
C      1  0.5574260000000  0.4618160000000  0.4470820000000 1.0
C      1  0.4617900000000  0.4423820000000  0.4466910000000 1.0
C      1  0.4421030000000  0.5388550000000  0.4474130000000 1.0
C      1  0.5755930000000  0.5250390000000  0.5335800000000 1.0
C      1  0.4746540000000  0.5766350000000  0.5340440000000 1.0
C      1  0.4243240000000  0.4747280000000  0.5332830000000 1.0
C      1  0.5243590000000  0.4254600000000  0.5340960000000 1.0
C      1  0.4243630000000  0.5253370000000  0.4666790000000 1.0
C      1  0.5244400000000  0.5745190000000  0.4659160000000 1.0
C      1  0.5755880000000  0.4748960000000  0.4664570000000 1.0
C      1  0.4746050000000  0.4233870000000  0.4659440000000 1.0
C      1  0.5432630000000  0.4382900000000  0.4586460000000 1.0
C      1  0.5611970000000  0.5430090000000  0.4580600000000 1.0
C      1  0.4564670000000  0.5619030000000  0.4590040000000 1.0
C      1  0.4385920000000  0.4571500000000  0.4580580000000 1.0
C      1  0.4563940000000  0.4381340000000  0.5409750000000 1.0
C      1  0.4386080000000  0.5429030000000  0.5419110000000 1.0
C      1  0.5432950000000  0.5616720000000  0.5413750000000 1.0
C      1  0.5611390000000  0.4569390000000  0.5419710000000 1.0
C      1  0.4664380000000  0.5133960000000  0.5080290000000 1.0
C      1  0.4865130000000  0.4664050000000  0.5077020000000 1.0
C      1  0.5337180000000  0.4864930000000  0.5079070000000 1.0
C      1  0.5136200000000  0.5336380000000  0.5077560000000 1.0
C      1  0.5337330000000  0.5134770000000  0.4921100000000 1.0
C      1  0.5135940000000  0.4663510000000  0.4922510000000 1.0
C      1  0.4664310000000  0.4866330000000  0.4919540000000 1.0
C      1  0.4865460000000  0.5336070000000  0.4922920000000 1.0
C      1  0.5187590000000  0.4298580000000  0.4446140000000 1.0
C      1  0.5699500000000  0.5184740000000  0.4444170000000 1.0
C      1  0.4808180000000  0.5694890000000  0.4445300000000 1.0
C      1  0.4306320000000  0.4819410000000  0.4440660000000 1.0
C      1  0.4807310000000  0.4305270000000  0.5554610000000 1.0
C      1  0.4306200000000  0.5181190000000  0.5558990000000 1.0
C      1  0.5187920000000  0.5701260000000  0.5553950000000 1.0
C      1  0.5699060000000  0.4814660000000  0.5556180000000 1.0
END
