TITL C-3578207-9274-136 3.0881220017903e-06 125000 -620.810346845014 0 0 99 (C1) n - 1
REM
REM in /home/bkarasulu/work/CARBON/AIRSS/Generating-Clusters/EDIP-Nigel-Params/with-SteepDescent/Higher-Symm/SD-CG/HFTN-CG
REM
REM
REM
REM
REM
REM ./C.cell (12c818d87b63d06a65506943cc24bca4)
REM
REM compiler GCC version 9.2.1 20190827 (Red Hat 9.2.1-1)
REM options -cpp -mtune=generic -march=x86-64 -g -O0 -fpre-include=/usr/include/finclude/math-vector-fortran.h
REM seed -328530082 1700654447 -1351047452 -1067447759 823479449 1267549176 805528399 1309594778 872109638 1721117691 -287076424 703046532 1818967151 1821428961 773092036 1404245811 1530150981 878283815 780564223 2070639339 87366066 1838506699 -763867633 1511681022 -125981164 -1530685841 -562886780 -578357710 1217660147 1128166479 -2023731337 -2028569565 -1721685511
REM
CELL 1.54180   50.00000   50.00000   50.00000   90.00000   90.00000   90.00000
LATT -1
SFAC C  
C      1  0.5378330000000  0.5107880000000  0.4933550000000 1.0
C      1  0.4670540000000  0.4466130000000  0.5620250000000 1.0
C      1  0.5336710000000  0.5076860000000  0.4245100000000 1.0
C      1  0.4904760000000  0.5145380000000  0.4533750000000 1.0
C      1  0.4378060000000  0.4689710000000  0.5172060000000 1.0
C      1  0.4935370000000  0.4660580000000  0.5323180000000 1.0
C      1  0.5060690000000  0.5397880000000  0.5660960000000 1.0
C      1  0.5180200000000  0.5327120000000  0.4175220000000 1.0
C      1  0.4152530000000  0.5168060000000  0.5153300000000 1.0
C      1  0.5551390000000  0.4786000000000  0.5701440000000 1.0
C      1  0.5047930000000  0.4230330000000  0.5029700000000 1.0
C      1  0.5321030000000  0.5225780000000  0.5695420000000 1.0
C      1  0.5300160000000  0.4937090000000  0.5737920000000 1.0
C      1  0.5259020000000  0.4292260000000  0.4570700000000 1.0
C      1  0.5270520000000  0.5283860000000  0.4722580000000 1.0
C      1  0.5712960000000  0.4875340000000  0.5467410000000 1.0
C      1  0.4465720000000  0.4628560000000  0.5716120000000 1.0
C      1  0.4791100000000  0.5204870000000  0.5253650000000 1.0
C      1  0.5849330000000  0.4729800000000  0.4995150000000 1.0
C      1  0.4728230000000  0.5151940000000  0.4960320000000 1.0
C      1  0.5470870000000  0.4350090000000  0.5526470000000 1.0
C      1  0.5707520000000  0.5152040000000  0.5368060000000 1.0
C      1  0.5537610000000  0.5681290000000  0.5131960000000 1.0
C      1  0.5539010000000  0.4359610000000  0.4987480000000 1.0
C      1  0.4634940000000  0.5141150000000  0.4185050000000 1.0
C      1  0.4827950000000  0.4480930000000  0.4899380000000 1.0
C      1  0.4239500000000  0.4905420000000  0.5043290000000 1.0
C      1  0.5186530000000  0.5960990000000  0.4886670000000 1.0
C      1  0.4737890000000  0.5487220000000  0.5652830000000 1.0
C      1  0.4407420000000  0.4983260000000  0.4817650000000 1.0
C      1  0.5579180000000  0.4443250000000  0.5268720000000 1.0
C      1  0.4747490000000  0.4156620000000  0.4615410000000 1.0
C      1  0.5044050000000  0.4373800000000  0.5297110000000 1.0
C      1  0.5544640000000  0.5336940000000  0.5527490000000 1.0
C      1  0.5796960000000  0.4997750000000  0.4870970000000 1.0
C      1  0.4878670000000  0.5303700000000  0.4270080000000 1.0
C      1  0.5119950000000  0.4915960000000  0.4391590000000 1.0
C      1  0.4951870000000  0.4542620000000  0.5694750000000 1.0
C      1  0.4770110000000  0.4099750000000  0.4926570000000 1.0
C      1  0.5195410000000  0.4864660000000  0.4948260000000 1.0
C      1  0.4688800000000  0.4850390000000  0.4229630000000 1.0
C      1  0.5641330000000  0.4940620000000  0.4622300000000 1.0
C      1  0.4887180000000  0.4916950000000  0.4913190000000 1.0
C      1  0.4375550000000  0.5021980000000  0.5443770000000 1.0
C      1  0.5132330000000  0.5474300000000  0.4904870000000 1.0
C      1  0.4908020000000  0.4586440000000  0.4623800000000 1.0
C      1  0.4750390000000  0.4707790000000  0.5087710000000 1.0
C      1  0.4404920000000  0.5547670000000  0.4983960000000 1.0
C      1  0.5398540000000  0.5512570000000  0.5336260000000 1.0
C      1  0.5192930000000  0.4721660000000  0.4632230000000 1.0
C      1  0.4757280000000  0.5882570000000  0.4829070000000 1.0
C      1  0.4486800000000  0.5352530000000  0.5737440000000 1.0
C      1  0.4940060000000  0.5905880000000  0.5078970000000 1.0
C      1  0.5348240000000  0.5708010000000  0.4886500000000 1.0
C      1  0.5428670000000  0.4486430000000  0.4440700000000 1.0
C      1  0.4569840000000  0.5082670000000  0.5837050000000 1.0
C      1  0.4431440000000  0.5312880000000  0.4435300000000 1.0
C      1  0.4438340000000  0.4756280000000  0.4632460000000 1.0
C      1  0.4548590000000  0.5573970000000  0.4495280000000 1.0
C      1  0.4367530000000  0.4890530000000  0.5722230000000 1.0
C      1  0.4672950000000  0.4988810000000  0.5413870000000 1.0
C      1  0.4421330000000  0.4479760000000  0.4727580000000 1.0
C      1  0.5154370000000  0.4849790000000  0.5257580000000 1.0
C      1  0.5624340000000  0.4646840000000  0.4580520000000 1.0
C      1  0.5568920000000  0.5148970000000  0.4421870000000 1.0
C      1  0.5035290000000  0.5673570000000  0.4486780000000 1.0
C      1  0.4799060000000  0.5582010000000  0.4343090000000 1.0
C      1  0.4842350000000  0.5373150000000  0.4794180000000 1.0
C      1  0.4193410000000  0.5359670000000  0.4915530000000 1.0
C      1  0.4952760000000  0.5669700000000  0.5260030000000 1.0
C      1  0.4622340000000  0.4288320000000  0.5401980000000 1.0
C      1  0.4963440000000  0.4739690000000  0.4181120000000 1.0
C      1  0.5251100000000  0.5305840000000  0.5165910000000 1.0
C      1  0.5278450000000  0.5556170000000  0.4351480000000 1.0
C      1  0.4961820000000  0.4454240000000  0.4220810000000 1.0
C      1  0.5021500000000  0.4830190000000  0.5769600000000 1.0
C      1  0.5726270000000  0.4518820000000  0.4823990000000 1.0
C      1  0.4306150000000  0.5342880000000  0.5466860000000 1.0
C      1  0.5078970000000  0.5133040000000  0.5341600000000 1.0
C      1  0.4404350000000  0.4445260000000  0.5015990000000 1.0
C      1  0.4270360000000  0.5200340000000  0.4665790000000 1.0
C      1  0.5733160000000  0.5516010000000  0.4978830000000 1.0
C      1  0.4703120000000  0.4814680000000  0.4529310000000 1.0
C      1  0.4555320000000  0.4223410000000  0.5130480000000 1.0
C      1  0.5727160000000  0.5220400000000  0.5068670000000 1.0
C      1  0.5463030000000  0.5407110000000  0.4542090000000 1.0
C      1  0.4990420000000  0.4250900000000  0.4435170000000 1.0
C      1  0.5192720000000  0.4289320000000  0.5529280000000 1.0
C      1  0.4631300000000  0.5605970000000  0.4781990000000 1.0
C      1  0.5291530000000  0.4265970000000  0.4859700000000 1.0
C      1  0.5776840000000  0.4659630000000  0.5277530000000 1.0
C      1  0.4500800000000  0.4270990000000  0.4556160000000 1.0
C      1  0.5000490000000  0.5923870000000  0.4641940000000 1.0
C      1  0.5551160000000  0.4507200000000  0.5744040000000 1.0
C      1  0.4450140000000  0.5544770000000  0.5274920000000 1.0
C      1  0.4727740000000  0.5494650000000  0.5352730000000 1.0
C      1  0.5157810000000  0.5629460000000  0.5466660000000 1.0
C      1  0.4835890000000  0.5056360000000  0.5674630000000 1.0
C      1  0.5652860000000  0.5577650000000  0.4699410000000 1.0
END
