TITL C-3577084-3642-138 -2.76769844424677e-07 125000 -157.663169168363 0 0 27 (C1) n - 1
REM
REM in /home/bkarasulu/work/CARBON/AIRSS/Generating-Clusters/EDIP-Nigel-Params/with-SteepDescent/Higher-Symm/SD-CG/HFTN-CG
REM
REM
REM
REM
REM
REM ./C.cell (12c818d87b63d06a65506943cc24bca4)
REM
REM compiler GCC version 9.2.1 20190827 (Red Hat 9.2.1-1)
REM options -cpp -mtune=generic -march=x86-64 -g -O0 -fpre-include=/usr/include/finclude/math-vector-fortran.h
REM seed 178057693 1344680510 1794541821 -1739200124 1664707578 -1153111136 -1276732313 -1517413914 -678888386 -918073361 389548778 540998430 -1259400073 -422398893 469746047 298379086 -824676970 -1254749445 2009904782 352853276 -942001605 2019509785 1952876476 -1335097932 1132033662 2017019131 15092139 336718081 -422464391 -1174785010 1423045129 1772047648 -102792716
REM
CELL 1.54180   50.00000   50.00000   50.00000   90.00000   90.00000   90.00000
LATT -1
SFAC C  
C      1  0.5531690000000  0.4766320000000  0.5413020000000 1.0
C      1  0.4620070000000  0.4632970000000  0.5325620000000 1.0
C      1  0.5391020000000  0.5161010000000  0.5227730000000 1.0
C      1  0.4580010000000  0.4977600000000  0.4651290000000 1.0
C      1  0.4619980000000  0.4781100000000  0.4853550000000 1.0
C      1  0.4545810000000  0.4845080000000  0.5145730000000 1.0
C      1  0.5318450000000  0.5340490000000  0.4793070000000 1.0
C      1  0.4962050000000  0.4483080000000  0.5034010000000 1.0
C      1  0.5028510000000  0.5310700000000  0.4787870000000 1.0
C      1  0.5250750000000  0.4946150000000  0.4604150000000 1.0
C      1  0.5434110000000  0.5365380000000  0.5045400000000 1.0
C      1  0.5184550000000  0.4959680000000  0.5159600000000 1.0
C      1  0.5327650000000  0.4706700000000  0.5226190000000 1.0
C      1  0.4474680000000  0.5504210000000  0.5057500000000 1.0
C      1  0.5593160000000  0.5030780000000  0.5372310000000 1.0
C      1  0.5032300000000  0.5023310000000  0.4408780000000 1.0
C      1  0.4690150000000  0.5091220000000  0.5251110000000 1.0
C      1  0.4885290000000  0.4692930000000  0.5419310000000 1.0
C      1  0.4690850000000  0.5598220000000  0.5186970000000 1.0
C      1  0.5075550000000  0.4943290000000  0.4860060000000 1.0
C      1  0.4900450000000  0.4688470000000  0.4846600000000 1.0
C      1  0.4764650000000  0.4905400000000  0.4451590000000 1.0
C      1  0.4948650000000  0.4977790000000  0.5353650000000 1.0
C      1  0.5096170000000  0.4527810000000  0.5279530000000 1.0
C      1  0.4908060000000  0.5256360000000  0.4535670000000 1.0
C      1  0.5445210000000  0.5151740000000  0.4625030000000 1.0
C      1  0.4700210000000  0.5332210000000  0.5084680000000 1.0
END
