TITL C-3578204-4308-100 7.38336171073396e-06 125000 -1173.84042101817 0 0 189 (C1) n - 1
REM
REM in /home/bkarasulu/work/CARBON/AIRSS/Generating-Clusters/EDIP-Nigel-Params/with-SteepDescent/Higher-Symm/SD-CG/HFTN-CG
REM
REM
REM
REM
REM
REM ./C.cell (12c818d87b63d06a65506943cc24bca4)
REM
REM compiler GCC version 9.2.1 20190827 (Red Hat 9.2.1-1)
REM options -cpp -mtune=generic -march=x86-64 -g -O0 -fpre-include=/usr/include/finclude/math-vector-fortran.h
REM seed -389234673 -878991170 -1185069797 -2058195297 2106435179 -1274893275 -1675404735 -379173223 -1256754334 -1805234143 1845265555 -282784698 -279507134 -1546628907 -1458625965 -648590170 890279415 2016490840 758093152 555855786 848875629 -988121768 -1568977427 -1930156963 -191054682 363574390 -2112166100 -1091873609 948295034 380156365 890315424 -2028180801 630105150
REM
CELL 1.54180   50.00000   50.00000   50.00000   90.00000   90.00000   90.00000
LATT -1
SFAC C  
C      1  0.4868590000000  0.4478330000000  0.4392550000000 1.0
C      1  0.4840610000000  0.4886700000000  0.4121990000000 1.0
C      1  0.4896640000000  0.5307690000000  0.4294880000000 1.0
C      1  0.4905470000000  0.5907330000000  0.4559400000000 1.0
C      1  0.4910070000000  0.5800910000000  0.5011520000000 1.0
C      1  0.4829380000000  0.5714010000000  0.5522880000000 1.0
C      1  0.4913950000000  0.5293700000000  0.5744830000000 1.0
C      1  0.4827320000000  0.4751380000000  0.5920070000000 1.0
C      1  0.4846220000000  0.4375520000000  0.5604980000000 1.0
C      1  0.4875970000000  0.4148230000000  0.5200980000000 1.0
C      1  0.4869450000000  0.4210370000000  0.4748590000000 1.0
C      1  0.5459710000000  0.5021200000000  0.6204350000000 1.0
C      1  0.5380840000000  0.4380750000000  0.5996940000000 1.0
C      1  0.5350840000000  0.3842520000000  0.5479470000000 1.0
C      1  0.5354850000000  0.3694470000000  0.4784690000000 1.0
C      1  0.5259210000000  0.4095060000000  0.4177630000000 1.0
C      1  0.5305030000000  0.4738050000000  0.3888800000000 1.0
C      1  0.5220630000000  0.5426890000000  0.3926380000000 1.0
C      1  0.5351920000000  0.5995480000000  0.4213900000000 1.0
C      1  0.5409820000000  0.6264000000000  0.4870470000000 1.0
C      1  0.5341730000000  0.6128120000000  0.5551660000000 1.0
C      1  0.5297160000000  0.5619860000000  0.5991390000000 1.0
C      1  0.4986310000000  0.5419510000000  0.5233390000000 1.0
C      1  0.4880260000000  0.5220070000000  0.5453580000000 1.0
C      1  0.5030110000000  0.4965460000000  0.5397300000000 1.0
C      1  0.4860860000000  0.4611890000000  0.5394520000000 1.0
C      1  0.4992430000000  0.4456160000000  0.5162690000000 1.0
C      1  0.4917060000000  0.4489190000000  0.4859310000000 1.0
C      1  0.4828860000000  0.4655120000000  0.4620870000000 1.0
C      1  0.5018470000000  0.4892820000000  0.4567590000000 1.0
C      1  0.4862100000000  0.5175350000000  0.4552920000000 1.0
C      1  0.4978460000000  0.5354250000000  0.4752290000000 1.0
C      1  0.4847170000000  0.5498430000000  0.4987120000000 1.0
C      1  0.4398280000000  0.4525040000000  0.5801770000000 1.0
C      1  0.4409600000000  0.4193760000000  0.5424780000000 1.0
C      1  0.4419620000000  0.4131970000000  0.4937260000000 1.0
C      1  0.4475330000000  0.4239270000000  0.4428000000000 1.0
C      1  0.4500950000000  0.4700220000000  0.4073930000000 1.0
C      1  0.4510070000000  0.5233470000000  0.4019970000000 1.0
C      1  0.4504600000000  0.5715390000000  0.4324650000000 1.0
C      1  0.4471920000000  0.5866440000000  0.4811850000000 1.0
C      1  0.4437290000000  0.5827510000000  0.5348070000000 1.0
C      1  0.4447930000000  0.5517790000000  0.5757900000000 1.0
C      1  0.4404250000000  0.5008600000000  0.5942000000000 1.0
C      1  0.4699050000000  0.4161690000000  0.5453490000000 1.0
C      1  0.4701440000000  0.4078010000000  0.4955540000000 1.0
C      1  0.4778920000000  0.4207480000000  0.4453830000000 1.0
C      1  0.4803760000000  0.4647000000000  0.3919780000000 1.0
C      1  0.4815200000000  0.5175990000000  0.4041930000000 1.0
C      1  0.4773610000000  0.5862070000000  0.4297810000000 1.0
C      1  0.4755860000000  0.5941570000000  0.4806240000000 1.0
C      1  0.4675680000000  0.5935860000000  0.5442090000000 1.0
C      1  0.4772270000000  0.5565640000000  0.5778380000000 1.0
C      1  0.4666630000000  0.4956970000000  0.6022000000000 1.0
C      1  0.4694840000000  0.4506420000000  0.5832180000000 1.0
C      1  0.6076350000000  0.5355820000000  0.4584470000000 1.0
C      1  0.6201420000000  0.5487550000000  0.4796750000000 1.0
C      1  0.6111780000000  0.5480140000000  0.5060540000000 1.0
C      1  0.6236710000000  0.5316860000000  0.5247890000000 1.0
C      1  0.6132900000000  0.5096010000000  0.5380450000000 1.0
C      1  0.6259470000000  0.4850630000000  0.5368310000000 1.0
C      1  0.6151150000000  0.4604290000000  0.5308300000000 1.0
C      1  0.6039810000000  0.4445660000000  0.4980480000000 1.0
C      1  0.6012780000000  0.4553740000000  0.4722580000000 1.0
C      1  0.6094990000000  0.4872590000000  0.4525610000000 1.0
C      1  0.6197680000000  0.5125120000000  0.4485650000000 1.0
C      1  0.5391240000000  0.5184530000000  0.5761820000000 1.0
C      1  0.5491230000000  0.4754780000000  0.5747450000000 1.0
C      1  0.5380100000000  0.4326080000000  0.5503050000000 1.0
C      1  0.5456240000000  0.4102550000000  0.5067220000000 1.0
C      1  0.5537080000000  0.4078230000000  0.4572460000000 1.0
C      1  0.5406370000000  0.4507150000000  0.4387630000000 1.0
C      1  0.5482880000000  0.5085720000000  0.4235450000000 1.0
C      1  0.5303690000000  0.5522970000000  0.4412550000000 1.0
C      1  0.5630090000000  0.5821700000000  0.4697080000000 1.0
C      1  0.5420530000000  0.5839130000000  0.5162000000000 1.0
C      1  0.5491850000000  0.5608920000000  0.5523560000000 1.0
C      1  0.4247600000000  0.4768590000000  0.5880680000000 1.0
C      1  0.4257310000000  0.4325910000000  0.5635460000000 1.0
C      1  0.4265710000000  0.4112110000000  0.5182200000000 1.0
C      1  0.4306290000000  0.4188160000000  0.4668590000000 1.0
C      1  0.4362160000000  0.4486060000000  0.4287920000000 1.0
C      1  0.4354110000000  0.4971060000000  0.4018960000000 1.0
C      1  0.4385480000000  0.5481640000000  0.4162450000000 1.0
C      1  0.4340030000000  0.5805430000000  0.4555890000000 1.0
C      1  0.4320420000000  0.5864690000000  0.5072690000000 1.0
C      1  0.4291120000000  0.5672630000000  0.5547870000000 1.0
C      1  0.4298180000000  0.5270160000000  0.5848030000000 1.0
C      1  0.4017420000000  0.5277240000000  0.4463850000000 1.0
C      1  0.3973910000000  0.5457360000000  0.4697480000000 1.0
C      1  0.3988550000000  0.5474480000000  0.4998550000000 1.0
C      1  0.3946920000000  0.5375520000000  0.5281420000000 1.0
C      1  0.3976450000000  0.5143190000000  0.5465750000000 1.0
C      1  0.3911160000000  0.4858220000000  0.5497030000000 1.0
C      1  0.3950820000000  0.4604490000000  0.5353830000000 1.0
C      1  0.3905640000000  0.4461030000000  0.5102270000000 1.0
C      1  0.3951920000000  0.4542610000000  0.4827090000000 1.0
C      1  0.3974730000000  0.4764380000000  0.4528310000000 1.0
C      1  0.3969810000000  0.5005380000000  0.4368320000000 1.0
C      1  0.5264360000000  0.4633130000000  0.6108000000000 1.0
C      1  0.5130250000000  0.3940120000000  0.5639620000000 1.0
C      1  0.5188800000000  0.3704670000000  0.5044350000000 1.0
C      1  0.5066670000000  0.3966500000000  0.4366360000000 1.0
C      1  0.5096650000000  0.4524480000000  0.3966600000000 1.0
C      1  0.5045230000000  0.5206010000000  0.3831130000000 1.0
C      1  0.5093790000000  0.5922650000000  0.4085610000000 1.0
C      1  0.5243330000000  0.6288590000000  0.4627330000000 1.0
C      1  0.5168880000000  0.6211630000000  0.5309210000000 1.0
C      1  0.5081050000000  0.5781890000000  0.5876160000000 1.0
C      1  0.5205830000000  0.5188330000000  0.6188190000000 1.0
C      1  0.5131630000000  0.4072010000000  0.4738630000000 1.0
C      1  0.5120640000000  0.4552800000000  0.4267810000000 1.0
C      1  0.5105300000000  0.4854690000000  0.4282150000000 1.0
C      1  0.5026470000000  0.5569440000000  0.4299020000000 1.0
C      1  0.5195260000000  0.5980390000000  0.4610080000000 1.0
C      1  0.5130180000000  0.5920880000000  0.5218400000000 1.0
C      1  0.5123000000000  0.5750500000000  0.5481950000000 1.0
C      1  0.5132090000000  0.5125100000000  0.5902890000000 1.0
C      1  0.5126720000000  0.4802390000000  0.5880670000000 1.0
C      1  0.5126750000000  0.4231840000000  0.5655430000000 1.0
C      1  0.5164560000000  0.4006340000000  0.5035450000000 1.0
C      1  0.5702520000000  0.5348510000000  0.5328540000000 1.0
C      1  0.5847650000000  0.5090670000000  0.5414300000000 1.0
C      1  0.5709240000000  0.4812450000000  0.5463890000000 1.0
C      1  0.5866180000000  0.4574270000000  0.5366190000000 1.0
C      1  0.5779270000000  0.4468380000000  0.5109620000000 1.0
C      1  0.5738740000000  0.4665460000000  0.4683890000000 1.0
C      1  0.5806290000000  0.4873810000000  0.4505970000000 1.0
C      1  0.5631250000000  0.5110160000000  0.4498690000000 1.0
C      1  0.5783900000000  0.5362360000000  0.4590620000000 1.0
C      1  0.5672790000000  0.5544010000000  0.4817730000000 1.0
C      1  0.5825270000000  0.5489500000000  0.5082990000000 1.0
C      1  0.4045360000000  0.5236920000000  0.5724760000000 1.0
C      1  0.3991420000000  0.4807590000000  0.5764380000000 1.0
C      1  0.4001650000000  0.4402690000000  0.5544710000000 1.0
C      1  0.3999780000000  0.4203110000000  0.5162260000000 1.0
C      1  0.4050940000000  0.4341200000000  0.4634470000000 1.0
C      1  0.4081890000000  0.4519230000000  0.4400160000000 1.0
C      1  0.4090610000000  0.4978780000000  0.4117070000000 1.0
C      1  0.4121430000000  0.5429440000000  0.4250160000000 1.0
C      1  0.4079780000000  0.5698370000000  0.4587390000000 1.0
C      1  0.4068580000000  0.5741360000000  0.5047440000000 1.0
C      1  0.4037190000000  0.5583690000000  0.5454370000000 1.0
C      1  0.4470590000000  0.5342300000000  0.5240880000000 1.0
C      1  0.4591810000000  0.5179840000000  0.5423640000000 1.0
C      1  0.4503940000000  0.4923070000000  0.5432440000000 1.0
C      1  0.4577520000000  0.4677000000000  0.5342910000000 1.0
C      1  0.4474700000000  0.4621700000000  0.5096540000000 1.0
C      1  0.4409410000000  0.4723450000000  0.4860830000000 1.0
C      1  0.4538060000000  0.4723250000000  0.4617500000000 1.0
C      1  0.4463790000000  0.4933460000000  0.4448060000000 1.0
C      1  0.4574470000000  0.5161680000000  0.4565760000000 1.0
C      1  0.4465620000000  0.5268960000000  0.4791630000000 1.0
C      1  0.4557050000000  0.5428050000000  0.4995800000000 1.0
C      1  0.5576720000000  0.5006230000000  0.5926080000000 1.0
C      1  0.5518340000000  0.4455290000000  0.5746220000000 1.0
C      1  0.5497820000000  0.4073010000000  0.5374090000000 1.0
C      1  0.5545490000000  0.3933130000000  0.4812890000000 1.0
C      1  0.5470760000000  0.4220740000000  0.4339620000000 1.0
C      1  0.5465700000000  0.4798740000000  0.4135390000000 1.0
C      1  0.5393640000000  0.5358890000000  0.4168450000000 1.0
C      1  0.5421680000000  0.5806990000000  0.4459840000000 1.0
C      1  0.5517510000000  0.5989740000000  0.4914080000000 1.0
C      1  0.5535640000000  0.5910670000000  0.5445050000000 1.0
C      1  0.5456880000000  0.5480670000000  0.5788080000000 1.0
C      1  0.5433050000000  0.5253380000000  0.5272940000000 1.0
C      1  0.5322680000000  0.5035930000000  0.5443750000000 1.0
C      1  0.5448500000000  0.4795650000000  0.5317220000000 1.0
C      1  0.5321200000000  0.4519010000000  0.5250800000000 1.0
C      1  0.5492330000000  0.4410560000000  0.5015430000000 1.0
C      1  0.5447730000000  0.4588910000000  0.4700220000000 1.0
C      1  0.5273680000000  0.4849210000000  0.4731980000000 1.0
C      1  0.5414590000000  0.5100310000000  0.4698630000000 1.0
C      1  0.5262110000000  0.5359730000000  0.4681180000000 1.0
C      1  0.5384860000000  0.5503020000000  0.4886270000000 1.0
C      1  0.5280890000000  0.5474970000000  0.5174930000000 1.0
C      1  0.5167340000000  0.4242290000000  0.3951420000000 1.0
C      1  0.5190520000000  0.4969960000000  0.3781900000000 1.0
C      1  0.5075850000000  0.5680630000000  0.3932030000000 1.0
C      1  0.5337210000000  0.6248250000000  0.4356160000000 1.0
C      1  0.5297610000000  0.6359360000000  0.5109570000000 1.0
C      1  0.5180960000000  0.6034010000000  0.5772920000000 1.0
C      1  0.5236500000000  0.5462840000000  0.6214680000000 1.0
C      1  0.5422460000000  0.4761590000000  0.6302810000000 1.0
C      1  0.5181800000000  0.4182190000000  0.5935070000000 1.0
C      1  0.5309400000000  0.3640250000000  0.5287810000000 1.0
C      1  0.5174860000000  0.3745370000000  0.4545480000000 1.0
C      1  0.4799390000000  0.4953520000000  0.4966240000000 1.0
C      1  0.5003350000000  0.4919390000000  0.5118350000000 1.0
END
