TITL C-3577089-586-206 1.17408291079678e-07 125000 -606.627028669479 0 0 99 (C3v) n - 1
REM
REM in /home/bkarasulu/work/CARBON/AIRSS/Generating-Clusters/EDIP-Nigel-Params/with-SteepDescent/Higher-Symm/SD-CG/HFTN-CG
REM
REM
REM
REM
REM
REM ./C.cell (12c818d87b63d06a65506943cc24bca4)
REM
REM compiler GCC version 9.2.1 20190827 (Red Hat 9.2.1-1)
REM options -cpp -mtune=generic -march=x86-64 -g -O0 -fpre-include=/usr/include/finclude/math-vector-fortran.h
REM seed 878907665 -5169567 1692298519 -635123599 1096124360 -1610344310 -1268316218 1088349045 2054707863 -1213252455 -1386570243 -1698644338 1595007077 1677230047 2055714132 268516953 113541020 973230161 1417597978 -1348675618 194346458 -586987663 -1044651607 1161165967 1222473117 -332035294 -525184787 -1444181863 -703897780 810271289 -539260586 145868603 519399104
REM
CELL 1.54180   50.00000   50.00000   50.00000   90.00000   90.00000   90.00000
LATT -1
SFAC C  
C      1  0.4304400000000  0.5248030000000  0.4326740000000 1.0
C      1  0.5567020000000  0.5482280000000  0.4334390000000 1.0
C      1  0.5138200000000  0.4271330000000  0.4334550000000 1.0
C      1  0.4298400000000  0.5244220000000  0.5651910000000 1.0
C      1  0.5560420000000  0.5478160000000  0.5658730000000 1.0
C      1  0.5131980000000  0.4268710000000  0.5657650000000 1.0
C      1  0.5701770000000  0.5247850000000  0.4333150000000 1.0
C      1  0.4439200000000  0.5482430000000  0.4329210000000 1.0
C      1  0.4867670000000  0.4271370000000  0.4333310000000 1.0
C      1  0.5695610000000  0.5244040000000  0.5658320000000 1.0
C      1  0.4433630000000  0.5478310000000  0.5653550000000 1.0
C      1  0.4861740000000  0.4268740000000  0.5656410000000 1.0
C      1  0.5462110000000  0.5562910000000  0.4852240000000 1.0
C      1  0.5257770000000  0.4324000000000  0.4852390000000 1.0
C      1  0.4281090000000  0.5121030000000  0.4841820000000 1.0
C      1  0.5469660000000  0.5569070000000  0.5154970000000 1.0
C      1  0.5257220000000  0.4305990000000  0.5154390000000 1.0
C      1  0.4272390000000  0.5122800000000  0.5144930000000 1.0
C      1  0.4539370000000  0.5563040000000  0.4848000000000 1.0
C      1  0.4743370000000  0.4324060000000  0.4850030000000 1.0
C      1  0.5720310000000  0.5120840000000  0.4848430000000 1.0
C      1  0.4529050000000  0.5569200000000  0.5150650000000 1.0
C      1  0.4741140000000  0.4306060000000  0.5152020000000 1.0
C      1  0.5726240000000  0.5122610000000  0.5151610000000 1.0
C      1  0.4213000000000  0.4837510000000  0.4765040000000 1.0
C      1  0.5248600000000  0.5761790000000  0.4775880000000 1.0
C      1  0.5537940000000  0.4407580000000  0.4778670000000 1.0
C      1  0.4203890000000  0.4837720000000  0.5217680000000 1.0
C      1  0.5261080000000  0.5772940000000  0.5229980000000 1.0
C      1  0.5537930000000  0.4381870000000  0.5231450000000 1.0
C      1  0.5789030000000  0.4837300000000  0.4772280000000 1.0
C      1  0.4753630000000  0.5761860000000  0.4773610000000 1.0
C      1  0.4463910000000  0.4407730000000  0.4773740000000 1.0
C      1  0.5793990000000  0.4837500000000  0.5224980000000 1.0
C      1  0.4736980000000  0.5773010000000  0.5227570000000 1.0
C      1  0.4459750000000  0.4382020000000  0.5226500000000 1.0
C      1  0.5547440000000  0.4514530000000  0.4489480000000 1.0
C      1  0.4307460000000  0.4772040000000  0.4479710000000 1.0
C      1  0.5151650000000  0.5716270000000  0.4486510000000 1.0
C      1  0.5541390000000  0.4512400000000  0.5506410000000 1.0
C      1  0.4308000000000  0.4769180000000  0.5497750000000 1.0
C      1  0.5145420000000  0.5711280000000  0.5505720000000 1.0
C      1  0.4457100000000  0.4514670000000  0.4484470000000 1.0
C      1  0.5697180000000  0.4771850000000  0.4486090000000 1.0
C      1  0.4853220000000  0.5716310000000  0.4485140000000 1.0
C      1  0.4453810000000  0.4512540000000  0.5501410000000 1.0
C      1  0.5687290000000  0.4769000000000  0.5504090000000 1.0
C      1  0.4850090000000  0.5711320000000  0.5504370000000 1.0
C      1  0.6065160000000  0.4769590000000  0.5138110000000 1.0
C      1  0.4262970000000  0.4190000000000  0.5130910000000 1.0
C      1  0.4668120000000  0.6040920000000  0.5135270000000 1.0
C      1  0.6060140000000  0.4772620000000  0.4862730000000 1.0
C      1  0.4272730000000  0.4203320000000  0.4857280000000 1.0
C      1  0.4675050000000  0.6029570000000  0.4861020000000 1.0
C      1  0.3933510000000  0.4769880000000  0.5128320000000 1.0
C      1  0.5735530000000  0.4189800000000  0.5137680000000 1.0
C      1  0.5330860000000  0.6040840000000  0.5138310000000 1.0
C      1  0.3941060000000  0.4772900000000  0.4853000000000 1.0
C      1  0.5728280000000  0.4203120000000  0.4863970000000 1.0
C      1  0.5326450000000  0.6029480000000  0.4864010000000 1.0
C      1  0.4854360000000  0.5246550000000  0.5707370000000 1.0
C      1  0.5283650000000  0.4996230000000  0.5708600000000 1.0
C      1  0.4852270000000  0.4749860000000  0.5707110000000 1.0
C      1  0.4861080000000  0.5249330000000  0.4287800000000 1.0
C      1  0.5289600000000  0.4999180000000  0.4289210000000 1.0
C      1  0.4858900000000  0.4752820000000  0.4287880000000 1.0
C      1  0.5139160000000  0.5246510000000  0.5708680000000 1.0
C      1  0.4709810000000  0.4996310000000  0.5705970000000 1.0
C      1  0.5141120000000  0.4749820000000  0.5708430000000 1.0
C      1  0.5145470000000  0.5249290000000  0.4289110000000 1.0
C      1  0.4716890000000  0.4999260000000  0.4286580000000 1.0
C      1  0.5147510000000  0.4752780000000  0.4289210000000 1.0
C      1  0.5284530000000  0.4503870000000  0.5655280000000 1.0
C      1  0.4424790000000  0.4994010000000  0.5652640000000 1.0
C      1  0.5280540000000  0.5493860000000  0.5656420000000 1.0
C      1  0.5291750000000  0.4506060000000  0.4337440000000 1.0
C      1  0.4430430000000  0.4997510000000  0.4329690000000 1.0
C      1  0.5286990000000  0.5497760000000  0.4336390000000 1.0
C      1  0.4709280000000  0.4503950000000  0.5652640000000 1.0
C      1  0.5569150000000  0.4993850000000  0.5657890000000 1.0
C      1  0.4713530000000  0.5493930000000  0.5653820000000 1.0
C      1  0.4714160000000  0.4506140000000  0.4334790000000 1.0
C      1  0.5575650000000  0.4997360000000  0.4334950000000 1.0
C      1  0.4719200000000  0.5497840000000  0.4333780000000 1.0
C      1  0.5915910000000  0.5356770000000  0.4830630000000 1.0
C      1  0.4850400000000  0.4037280000000  0.4820840000000 1.0
C      1  0.4237170000000  0.5616430000000  0.4824430000000 1.0
C      1  0.5923240000000  0.5359750000000  0.5157500000000 1.0
C      1  0.4848530000000  0.4016310000000  0.5146760000000 1.0
C      1  0.4225100000000  0.5621270000000  0.5150810000000 1.0
C      1  0.4085730000000  0.5357020000000  0.4822220000000 1.0
C      1  0.5150940000000  0.4037240000000  0.4822220000000 1.0
C      1  0.5764520000000  0.5616220000000  0.4831450000000 1.0
C      1  0.4075400000000  0.5360000000000  0.5149020000000 1.0
C      1  0.5149810000000  0.4016270000000  0.5148150000000 1.0
C      1  0.5773600000000  0.5621060000000  0.5157920000000 1.0
C      1  0.5000260000000  0.5692440000000  0.4958910000000 1.0
C      1  0.5606330000000  0.4659190000000  0.4967620000000 1.0
C      1  0.4393850000000  0.4659350000000  0.4962050000000 1.0
END
