TITL C-3578198-8939-546 1.08662244077395e-06 125000 -351.705114986335 0 0 58 (C1) n - 1
REM
REM in /home/bkarasulu/work/CARBON/AIRSS/Generating-Clusters/EDIP-Nigel-Params/with-SteepDescent/Higher-Symm/SD-CG/HFTN-CG
REM
REM
REM
REM
REM
REM ./C.cell (12c818d87b63d06a65506943cc24bca4)
REM
REM compiler GCC version 9.2.1 20190827 (Red Hat 9.2.1-1)
REM options -cpp -mtune=generic -march=x86-64 -g -O0 -fpre-include=/usr/include/finclude/math-vector-fortran.h
REM seed 2098296476 -1112449378 1553274399 1185165624 -2005416805 -178447867 516274586 984961391 659506161 -251473886 1140059082 -1692217929 967820383 2035128838 -984206251 -404245303 -1753695661 469065016 875534896 1757864968 -1300819557 -1655369556 426582737 1247017833 204437529 459760687 1959008547 -1639997 -478304250 1542878998 -1300260790 1168475445 -1450955823
REM
CELL 1.54180   50.00000   50.00000   50.00000   90.00000   90.00000   90.00000
LATT -1
SFAC C  
C      1  0.4923830000000  0.5295450000000  0.4265620000000 1.0
C      1  0.4866910000000  0.5822570000000  0.5090980000000 1.0
C      1  0.4959030000000  0.5179090000000  0.5763790000000 1.0
C      1  0.4909010000000  0.4290320000000  0.5428630000000 1.0
C      1  0.4917540000000  0.4382870000000  0.4499020000000 1.0
C      1  0.5030730000000  0.5076500000000  0.4669150000000 1.0
C      1  0.5032860000000  0.5414610000000  0.4926600000000 1.0
C      1  0.5004150000000  0.5142970000000  0.5302890000000 1.0
C      1  0.5033670000000  0.4700850000000  0.5236970000000 1.0
C      1  0.4976900000000  0.4693050000000  0.4864170000000 1.0
C      1  0.5086940000000  0.4401370000000  0.5221460000000 1.0
C      1  0.5089950000000  0.4607800000000  0.4586960000000 1.0
C      1  0.5101360000000  0.5325770000000  0.4499220000000 1.0
C      1  0.5064610000000  0.5609290000000  0.5146070000000 1.0
C      1  0.5121380000000  0.5034380000000  0.5558900000000 1.0
C      1  0.4656060000000  0.4575460000000  0.5128260000000 1.0
C      1  0.4644860000000  0.4748610000000  0.4664910000000 1.0
C      1  0.4610440000000  0.5287560000000  0.4671780000000 1.0
C      1  0.4606770000000  0.5414780000000  0.5144850000000 1.0
C      1  0.4667890000000  0.4986830000000  0.5433510000000 1.0
C      1  0.4989720000000  0.4325670000000  0.4954910000000 1.0
C      1  0.5019260000000  0.4858270000000  0.4453850000000 1.0
C      1  0.4991900000000  0.5564800000000  0.4664640000000 1.0
C      1  0.4992460000000  0.5440570000000  0.5371400000000 1.0
C      1  0.5033520000000  0.4756340000000  0.5535550000000 1.0
C      1  0.4400430000000  0.4854470000000  0.4807050000000 1.0
C      1  0.4364430000000  0.5153370000000  0.4811650000000 1.0
C      1  0.4363650000000  0.5234060000000  0.5103920000000 1.0
C      1  0.4413400000000  0.4985390000000  0.5265500000000 1.0
C      1  0.4418370000000  0.4754070000000  0.5083020000000 1.0
C      1  0.5524760000000  0.5234810000000  0.5322410000000 1.0
C      1  0.5509010000000  0.4537060000000  0.5420280000000 1.0
C      1  0.5493740000000  0.4388950000000  0.4762810000000 1.0
C      1  0.5523470000000  0.5096440000000  0.4696710000000 1.0
C      1  0.5470450000000  0.5467750000000  0.4935600000000 1.0
C      1  0.5537830000000  0.4789610000000  0.5504210000000 1.0
C      1  0.5504910000000  0.4301760000000  0.5014920000000 1.0
C      1  0.5508510000000  0.4833130000000  0.4602640000000 1.0
C      1  0.5482730000000  0.5556700000000  0.4664260000000 1.0
C      1  0.5476510000000  0.5509990000000  0.5378670000000 1.0
C      1  0.4730250000000  0.4882760000000  0.4409360000000 1.0
C      1  0.4690690000000  0.5589810000000  0.4700940000000 1.0
C      1  0.4711590000000  0.5448330000000  0.5440040000000 1.0
C      1  0.4743460000000  0.4724130000000  0.5569570000000 1.0
C      1  0.4703300000000  0.4356850000000  0.4925180000000 1.0
C      1  0.5367800000000  0.5641400000000  0.5152180000000 1.0
C      1  0.5428110000000  0.5045110000000  0.5529990000000 1.0
C      1  0.5380780000000  0.4355220000000  0.5255570000000 1.0
C      1  0.5387850000000  0.4583370000000  0.4598580000000 1.0
C      1  0.5415510000000  0.5319970000000  0.4522350000000 1.0
C      1  0.4691360000000  0.4479860000000  0.5409910000000 1.0
C      1  0.4677720000000  0.4448920000000  0.4646940000000 1.0
C      1  0.4695820000000  0.5173230000000  0.4395970000000 1.0
C      1  0.4641830000000  0.5677350000000  0.4985690000000 1.0
C      1  0.4705410000000  0.5215540000000  0.5624860000000 1.0
C      1  0.5161380000000  0.5038820000000  0.5027040000000 1.0
C      1  0.4780930000000  0.5230500000000  0.4944280000000 1.0
C      1  0.5454080000000  0.5163520000000  0.5008600000000 1.0
END
