TITL C-3578201-9217-421 -7.8488919656128e-07 125000 -530.412412335421 0 0 87 (C1) n - 1
REM
REM in /home/bkarasulu/work/CARBON/AIRSS/Generating-Clusters/EDIP-Nigel-Params/with-SteepDescent/Higher-Symm/SD-CG/HFTN-CG
REM
REM
REM
REM
REM
REM ./C.cell (12c818d87b63d06a65506943cc24bca4)
REM
REM compiler GCC version 9.2.1 20190827 (Red Hat 9.2.1-1)
REM options -cpp -mtune=generic -march=x86-64 -g -O0 -fpre-include=/usr/include/finclude/math-vector-fortran.h
REM seed 1389603048 -2133675478 1488903197 -1413025518 -2135533861 1216341657 -491947453 1901762280 -1104871509 -1853413378 528254573 489935761 1725976016 -188859495 2117583219 122147204 -1690406711 -897241674 -246005990 682200591 1976532284 -1263479895 -1872516230 -1766457782 -1117385083 877437259 180284243 1566523129 -2022360337 -729692583 1954098928 174722193 -101066079
REM
CELL 1.54180   50.00000   50.00000   50.00000   90.00000   90.00000   90.00000
LATT -1
SFAC C  
C      1  0.5534480000000  0.5474810000000  0.5378600000000 1.0
C      1  0.5560660000000  0.5112970000000  0.4380220000000 1.0
C      1  0.5575040000000  0.4427080000000  0.5198810000000 1.0
C      1  0.4786640000000  0.5320830000000  0.4859510000000 1.0
C      1  0.4861600000000  0.4746300000000  0.4796510000000 1.0
C      1  0.4808950000000  0.4970080000000  0.5313310000000 1.0
C      1  0.4401630000000  0.5441420000000  0.5548720000000 1.0
C      1  0.4404280000000  0.5173420000000  0.4389290000000 1.0
C      1  0.4374480000000  0.4406490000000  0.5130550000000 1.0
C      1  0.5773300000000  0.4868590000000  0.5164540000000 1.0
C      1  0.5729790000000  0.5150860000000  0.5073090000000 1.0
C      1  0.5774690000000  0.4962180000000  0.4736770000000 1.0
C      1  0.5103570000000  0.5276730000000  0.4996970000000 1.0
C      1  0.5157890000000  0.4847140000000  0.4733890000000 1.0
C      1  0.5123640000000  0.4820790000000  0.5226730000000 1.0
C      1  0.4895040000000  0.4560800000000  0.4451200000000 1.0
C      1  0.4880650000000  0.4753480000000  0.5630850000000 1.0
C      1  0.4868220000000  0.5660570000000  0.4902810000000 1.0
C      1  0.4993120000000  0.4883430000000  0.5879720000000 1.0
C      1  0.4971210000000  0.5814980000000  0.4662000000000 1.0
C      1  0.4986630000000  0.4276270000000  0.4468520000000 1.0
C      1  0.5380840000000  0.5319360000000  0.4284210000000 1.0
C      1  0.5377360000000  0.4239660000000  0.5079700000000 1.0
C      1  0.5369820000000  0.5457760000000  0.5622740000000 1.0
C      1  0.4549180000000  0.5626970000000  0.4581120000000 1.0
C      1  0.4553450000000  0.4325250000000  0.4666210000000 1.0
C      1  0.4564180000000  0.5031500000000  0.5786680000000 1.0
C      1  0.4849580000000  0.5220730000000  0.4569680000000 1.0
C      1  0.4842090000000  0.4546850000000  0.5021970000000 1.0
C      1  0.4830180000000  0.5256650000000  0.5399140000000 1.0
C      1  0.5352810000000  0.4665980000000  0.5666920000000 1.0
C      1  0.5350110000000  0.5730170000000  0.4940560000000 1.0
C      1  0.5371700000000  0.4550890000000  0.4376680000000 1.0
C      1  0.4282390000000  0.4609710000000  0.4956380000000 1.0
C      1  0.4268760000000  0.5200970000000  0.5467200000000 1.0
C      1  0.4330680000000  0.5211540000000  0.4665310000000 1.0
C      1  0.4619430000000  0.4526840000000  0.5235720000000 1.0
C      1  0.4610240000000  0.5460770000000  0.5342940000000 1.0
C      1  0.4658460000000  0.5029870000000  0.4426500000000 1.0
C      1  0.4253990000000  0.5186460000000  0.5173390000000 1.0
C      1  0.4479550000000  0.5017020000000  0.4835450000000 1.0
C      1  0.4343510000000  0.4903700000000  0.5073530000000 1.0
C      1  0.4733690000000  0.4369750000000  0.5471050000000 1.0
C      1  0.4737470000000  0.5734180000000  0.5321450000000 1.0
C      1  0.4776420000000  0.4891370000000  0.4184220000000 1.0
C      1  0.5214090000000  0.5117410000000  0.5227750000000 1.0
C      1  0.5240510000000  0.5131330000000  0.4758120000000 1.0
C      1  0.5298870000000  0.4755400000000  0.4987480000000 1.0
C      1  0.5286800000000  0.4930120000000  0.5818720000000 1.0
C      1  0.5264750000000  0.5743550000000  0.4644450000000 1.0
C      1  0.5281180000000  0.4303530000000  0.4542590000000 1.0
C      1  0.4806000000000  0.4196510000000  0.4689110000000 1.0
C      1  0.4819020000000  0.5120210000000  0.5871650000000 1.0
C      1  0.4801310000000  0.5681950000000  0.4462800000000 1.0
C      1  0.5248480000000  0.5182020000000  0.5658720000000 1.0
C      1  0.5245290000000  0.5483410000000  0.4496210000000 1.0
C      1  0.5242380000000  0.4347380000000  0.4834600000000 1.0
C      1  0.5506500000000  0.5188890000000  0.5298520000000 1.0
C      1  0.5544780000000  0.5163040000000  0.4670860000000 1.0
C      1  0.5591960000000  0.4670860000000  0.5019590000000 1.0
C      1  0.4414470000000  0.4572030000000  0.4690350000000 1.0
C      1  0.4401920000000  0.4955030000000  0.5566950000000 1.0
C      1  0.4387780000000  0.5481490000000  0.4764980000000 1.0
C      1  0.4965210000000  0.5433130000000  0.4396690000000 1.0
C      1  0.4962800000000  0.4288430000000  0.4932470000000 1.0
C      1  0.4965080000000  0.5291880000000  0.5667220000000 1.0
C      1  0.5572930000000  0.5557950000000  0.5009110000000 1.0
C      1  0.5587670000000  0.4737820000000  0.4466360000000 1.0
C      1  0.5590760000000  0.4646120000000  0.5501330000000 1.0
C      1  0.5032330000000  0.5718600000000  0.5351910000000 1.0
C      1  0.5068630000000  0.4933590000000  0.4188880000000 1.0
C      1  0.5031150000000  0.4338760000000  0.5448510000000 1.0
C      1  0.5118070000000  0.4630050000000  0.5486660000000 1.0
C      1  0.5114600000000  0.5603770000000  0.5073580000000 1.0
C      1  0.5143500000000  0.4738300000000  0.4424860000000 1.0
C      1  0.4537250000000  0.4831480000000  0.5312580000000 1.0
C      1  0.4463410000000  0.5391850000000  0.5066170000000 1.0
C      1  0.4597850000000  0.4816920000000  0.4661400000000 1.0
C      1  0.5713140000000  0.4662430000000  0.4734360000000 1.0
C      1  0.5698850000000  0.4901890000000  0.5439910000000 1.0
C      1  0.5672210000000  0.5407620000000  0.4787330000000 1.0
C      1  0.4688960000000  0.4541780000000  0.5689710000000 1.0
C      1  0.4681900000000  0.5821160000000  0.5060720000000 1.0
C      1  0.4723880000000  0.4617270000000  0.4223560000000 1.0
C      1  0.5149010000000  0.5210360000000  0.4144850000000 1.0
C      1  0.5142610000000  0.4162190000000  0.5244490000000 1.0
C      1  0.5130690000000  0.5629290000000  0.5612530000000 1.0
END
