TITL C-3578197-9521-433 -2.30672968502544e-06 125000 -1179.80554586214 0 0 187 (C1) n - 1
REM
REM in /home/bkarasulu/work/CARBON/AIRSS/Generating-Clusters/EDIP-Nigel-Params/with-SteepDescent/Higher-Symm/SD-CG/HFTN-CG
REM
REM
REM
REM
REM
REM ./C.cell (12c818d87b63d06a65506943cc24bca4)
REM
REM compiler GCC version 9.2.1 20190827 (Red Hat 9.2.1-1)
REM options -cpp -mtune=generic -march=x86-64 -g -O0 -fpre-include=/usr/include/finclude/math-vector-fortran.h
REM seed -1572755245 1643009466 -1467567312 -1855184943 -1949629737 1158283630 -1599996128 1889142930 530274336 -2110822221 -1745086327 1847492087 -1569942299 -789655410 -1522898914 -2065993914 546013196 -548168593 1559709798 -1033749077 1787975359 -950991282 -923871402 -328357059 317567031 499546148 -1263141355 -1132820807 -934800539 -1060494499 -111777759 -1161789084 -1991710122
REM
CELL 1.54180   50.00000   50.00000   50.00000   90.00000   90.00000   90.00000
LATT -1
SFAC C  
C      1  0.5604440000000  0.5597790000000  0.5583710000000 1.0
C      1  0.4079310000000  0.5308290000000  0.5562100000000 1.0
C      1  0.5177460000000  0.4009510000000  0.5576100000000 1.0
C      1  0.4516480000000  0.4525470000000  0.5013860000000 1.0
C      1  0.5641020000000  0.4870360000000  0.5020870000000 1.0
C      1  0.4903920000000  0.5708010000000  0.5023010000000 1.0
C      1  0.5022720000000  0.5376580000000  0.4493830000000 1.0
C      1  0.4747970000000  0.4719390000000  0.4472790000000 1.0
C      1  0.5317310000000  0.4867100000000  0.4510000000000 1.0
C      1  0.5376070000000  0.4530480000000  0.5125170000000 1.0
C      1  0.5180250000000  0.5618010000000  0.5129850000000 1.0
C      1  0.4404290000000  0.4842210000000  0.5009120000000 1.0
C      1  0.5091390000000  0.4901820000000  0.4881550000000 1.0
C      1  0.5217760000000  0.5103110000000  0.5037820000000 1.0
C      1  0.4817150000000  0.4961540000000  0.4916930000000 1.0
C      1  0.5722090000000  0.4602900000000  0.4336460000000 1.0
C      1  0.5000840000000  0.5853290000000  0.4340890000000 1.0
C      1  0.4250650000000  0.4568610000000  0.4353290000000 1.0
C      1  0.6089030000000  0.4980730000000  0.4886810000000 1.0
C      1  0.4511480000000  0.5924160000000  0.4879470000000 1.0
C      1  0.4428160000000  0.4086200000000  0.4888510000000 1.0
C      1  0.5153440000000  0.5972180000000  0.4554990000000 1.0
C      1  0.4091250000000  0.4639670000000  0.4581500000000 1.0
C      1  0.5742970000000  0.4418470000000  0.4556640000000 1.0
C      1  0.4081170000000  0.5638520000000  0.4935810000000 1.0
C      1  0.4926490000000  0.3884260000000  0.4927770000000 1.0
C      1  0.6006980000000  0.5506280000000  0.4934280000000 1.0
C      1  0.4761130000000  0.4599930000000  0.5169820000000 1.0
C      1  0.5419540000000  0.4976200000000  0.5209180000000 1.0
C      1  0.4789370000000  0.5220090000000  0.5066380000000 1.0
C      1  0.4503720000000  0.4968930000000  0.5285220000000 1.0
C      1  0.5225960000000  0.4557160000000  0.5381720000000 1.0
C      1  0.5142520000000  0.5471430000000  0.5406960000000 1.0
C      1  0.3959540000000  0.5434690000000  0.4760500000000 1.0
C      1  0.5147590000000  0.3890590000000  0.4736970000000 1.0
C      1  0.5910870000000  0.5699230000000  0.4730860000000 1.0
C      1  0.4952990000000  0.4437970000000  0.5017920000000 1.0
C      1  0.5570810000000  0.5369200000000  0.5032300000000 1.0
C      1  0.4506160000000  0.5352410000000  0.5067230000000 1.0
C      1  0.4127850000000  0.4390590000000  0.5512340000000 1.0
C      1  0.5974750000000  0.4533680000000  0.5503860000000 1.0
C      1  0.4899330000000  0.6161260000000  0.5459120000000 1.0
C      1  0.5524100000000  0.4792700000000  0.5694110000000 1.0
C      1  0.4934470000000  0.5554760000000  0.5660150000000 1.0
C      1  0.4623760000000  0.4659420000000  0.5640620000000 1.0
C      1  0.4682510000000  0.5273310000000  0.5923340000000 1.0
C      1  0.4953430000000  0.4566560000000  0.5963420000000 1.0
C      1  0.5450440000000  0.5189500000000  0.5925950000000 1.0
C      1  0.5440730000000  0.5830200000000  0.5139590000000 1.0
C      1  0.4133700000000  0.5000350000000  0.5045580000000 1.0
C      1  0.5389990000000  0.4230660000000  0.5134360000000 1.0
C      1  0.3769570000000  0.5241990000000  0.4838240000000 1.0
C      1  0.5412320000000  0.3851890000000  0.4816050000000 1.0
C      1  0.5802850000000  0.5943850000000  0.4815820000000 1.0
C      1  0.4688960000000  0.5500870000000  0.5495360000000 1.0
C      1  0.4673890000000  0.4352060000000  0.5607080000000 1.0
C      1  0.5784150000000  0.4976240000000  0.5648220000000 1.0
C      1  0.5057880000000  0.4202210000000  0.5197510000000 1.0
C      1  0.5566470000000  0.5222410000000  0.5302320000000 1.0
C      1  0.4218510000000  0.5279780000000  0.5148110000000 1.0
C      1  0.5357120000000  0.6082830000000  0.5275610000000 1.0
C      1  0.3954020000000  0.4838680000000  0.5344190000000 1.0
C      1  0.5696400000000  0.4138300000000  0.5346580000000 1.0
C      1  0.5450420000000  0.4835000000000  0.3997630000000 1.0
C      1  0.4930360000000  0.5585550000000  0.3942550000000 1.0
C      1  0.4526670000000  0.4657410000000  0.3972870000000 1.0
C      1  0.5197840000000  0.4318870000000  0.5606990000000 1.0
C      1  0.5407900000000  0.5370020000000  0.5525450000000 1.0
C      1  0.4294320000000  0.5070920000000  0.5504550000000 1.0
C      1  0.4125280000000  0.5432630000000  0.4513520000000 1.0
C      1  0.5054370000000  0.4043860000000  0.4502000000000 1.0
C      1  0.5837390000000  0.5554150000000  0.4481570000000 1.0
C      1  0.4164830000000  0.5217970000000  0.4309780000000 1.0
C      1  0.5219000000000  0.4159020000000  0.4283380000000 1.0
C      1  0.5614320000000  0.5623680000000  0.4278640000000 1.0
C      1  0.5742980000000  0.5207340000000  0.5835060000000 1.0
C      1  0.4502370000000  0.5355110000000  0.5677810000000 1.0
C      1  0.4927210000000  0.4317380000000  0.5774790000000 1.0
C      1  0.5385530000000  0.5796080000000  0.4613700000000 1.0
C      1  0.3927740000000  0.4867050000000  0.4588810000000 1.0
C      1  0.5485890000000  0.4290980000000  0.4610250000000 1.0
C      1  0.4003060000000  0.4472090000000  0.5047620000000 1.0
C      1  0.5948870000000  0.4406580000000  0.5023010000000 1.0
C      1  0.5010660000000  0.6241070000000  0.4984410000000 1.0
C      1  0.5359710000000  0.5530970000000  0.4140440000000 1.0
C      1  0.4458700000000  0.5092070000000  0.4278320000000 1.0
C      1  0.5208740000000  0.4442980000000  0.4177930000000 1.0
C      1  0.4932080000000  0.5238600000000  0.5341800000000 1.0
C      1  0.4727220000000  0.4801590000000  0.5388600000000 1.0
C      1  0.5273840000000  0.4836600000000  0.5454160000000 1.0
C      1  0.5659130000000  0.4394250000000  0.5805550000000 1.0
C      1  0.5195120000000  0.5904270000000  0.5738540000000 1.0
C      1  0.4221920000000  0.4740000000000  0.5789680000000 1.0
C      1  0.5952660000000  0.5290340000000  0.4501970000000 1.0
C      1  0.4307730000000  0.5655420000000  0.4525620000000 1.0
C      1  0.4768640000000  0.4035590000000  0.4492910000000 1.0
C      1  0.5265850000000  0.6276870000000  0.5096390000000 1.0
C      1  0.3831460000000  0.4699540000000  0.5120950000000 1.0
C      1  0.5816280000000  0.4154980000000  0.5084650000000 1.0
C      1  0.5210640000000  0.3874490000000  0.5321130000000 1.0
C      1  0.5666040000000  0.5706520000000  0.5305850000000 1.0
C      1  0.3917500000000  0.5406130000000  0.5345530000000 1.0
C      1  0.4619820000000  0.4988480000000  0.5984990000000 1.0
C      1  0.5243220000000  0.4632210000000  0.5993860000000 1.0
C      1  0.5261090000000  0.5419320000000  0.5936590000000 1.0
C      1  0.4250040000000  0.5530280000000  0.5665190000000 1.0
C      1  0.4906610000000  0.3945170000000  0.5658210000000 1.0
C      1  0.5845200000000  0.5451950000000  0.5690920000000 1.0
C      1  0.5968910000000  0.4746020000000  0.5720260000000 1.0
C      1  0.4713430000000  0.5984400000000  0.5616140000000 1.0
C      1  0.4312810000000  0.4280160000000  0.5707590000000 1.0
C      1  0.5767640000000  0.5105630000000  0.4382570000000 1.0
C      1  0.4563580000000  0.5628850000000  0.4390410000000 1.0
C      1  0.4642430000000  0.4244830000000  0.4333120000000 1.0
C      1  0.4675430000000  0.4204770000000  0.4048890000000 1.0
C      1  0.5740210000000  0.5169340000000  0.4105420000000 1.0
C      1  0.4510360000000  0.5555530000000  0.4117860000000 1.0
C      1  0.4798980000000  0.6178810000000  0.5182330000000 1.0
C      1  0.4147890000000  0.4299240000000  0.5238800000000 1.0
C      1  0.6015110000000  0.4612060000000  0.5224200000000 1.0
C      1  0.4575940000000  0.5784390000000  0.5414380000000 1.0
C      1  0.4695090000000  0.4194620000000  0.5335210000000 1.0
C      1  0.5843780000000  0.5108940000000  0.5377420000000 1.0
C      1  0.5295300000000  0.5442250000000  0.4629820000000 1.0
C      1  0.4572120000000  0.5154760000000  0.4548550000000 1.0
C      1  0.5230610000000  0.4530940000000  0.4610650000000 1.0
C      1  0.4359300000000  0.4504780000000  0.5875060000000 1.0
C      1  0.5792580000000  0.4620390000000  0.5917070000000 1.0
C      1  0.4909000000000  0.5832120000000  0.5790480000000 1.0
C      1  0.4970460000000  0.5345910000000  0.5867810000000 1.0
C      1  0.4794140000000  0.4785400000000  0.5848410000000 1.0
C      1  0.5332360000000  0.4913400000000  0.5886740000000 1.0
C      1  0.5665160000000  0.5143780000000  0.4849980000000 1.0
C      1  0.4701220000000  0.5522230000000  0.4877870000000 1.0
C      1  0.4765130000000  0.4353110000000  0.4797440000000 1.0
C      1  0.4756480000000  0.3907600000000  0.5408580000000 1.0
C      1  0.5995290000000  0.5365790000000  0.5437360000000 1.0
C      1  0.4271700000000  0.5738700000000  0.5449120000000 1.0
C      1  0.4741830000000  0.5177310000000  0.4094790000000 1.0
C      1  0.4967090000000  0.4585670000000  0.4064900000000 1.0
C      1  0.5322620000000  0.5300220000000  0.3974770000000 1.0
C      1  0.3964130000000  0.5035980000000  0.4371800000000 1.0
C      1  0.5476400000000  0.4109530000000  0.4378140000000 1.0
C      1  0.5550720000000  0.5875850000000  0.4382090000000 1.0
C      1  0.4884480000000  0.4832040000000  0.4216580000000 1.0
C      1  0.5137830000000  0.4957560000000  0.4288210000000 1.0
C      1  0.5043630000000  0.5231520000000  0.4229390000000 1.0
C      1  0.5523860000000  0.5100130000000  0.3951010000000 1.0
C      1  0.4698100000000  0.5434940000000  0.3959000000000 1.0
C      1  0.4727830000000  0.4462600000000  0.3957430000000 1.0
C      1  0.6033730000000  0.4772140000000  0.4674450000000 1.0
C      1  0.4695150000000  0.6019060000000  0.4664270000000 1.0
C      1  0.4274060000000  0.4236670000000  0.4690700000000 1.0
C      1  0.3869690000000  0.4971480000000  0.4861430000000 1.0
C      1  0.5508400000000  0.4116190000000  0.4867520000000 1.0
C      1  0.5532020000000  0.5891340000000  0.4858220000000 1.0
C      1  0.4098520000000  0.4678170000000  0.5534440000000 1.0
C      1  0.5760680000000  0.4341370000000  0.5539310000000 1.0
C      1  0.5156230000000  0.6020820000000  0.5473460000000 1.0
C      1  0.5381330000000  0.5670180000000  0.5798990000000 1.0
C      1  0.4351480000000  0.4984570000000  0.5865770000000 1.0
C      1  0.5369640000000  0.4402590000000  0.5840680000000 1.0
C      1  0.4319140000000  0.5727250000000  0.4799860000000 1.0
C      1  0.4684280000000  0.3973810000000  0.4776110000000 1.0
C      1  0.5958060000000  0.5232360000000  0.4795760000000 1.0
C      1  0.4952410000000  0.3786540000000  0.5209010000000 1.0
C      1  0.5919660000000  0.5562630000000  0.5222380000000 1.0
C      1  0.4067220000000  0.5633280000000  0.5238410000000 1.0
C      1  0.5444300000000  0.4646920000000  0.4214910000000 1.0
C      1  0.5118960000000  0.5699610000000  0.4114520000000 1.0
C      1  0.4446570000000  0.4759860000000  0.4228780000000 1.0
C      1  0.4726730000000  0.5417070000000  0.4576080000000 1.0
C      1  0.4897100000000  0.4455940000000  0.4541760000000 1.0
C      1  0.5501510000000  0.5137120000000  0.4572320000000 1.0
C      1  0.5180630000000  0.4613060000000  0.4906640000000 1.0
C      1  0.5287850000000  0.5390280000000  0.4944540000000 1.0
C      1  0.4627390000000  0.4909160000000  0.4699810000000 1.0
C      1  0.4713570000000  0.5883810000000  0.4400090000000 1.0
C      1  0.4365410000000  0.4305820000000  0.4420460000000 1.0
C      1  0.5885810000000  0.4834770000000  0.4419570000000 1.0
C      1  0.4078740000000  0.4431470000000  0.4773290000000 1.0
C      1  0.5908690000000  0.4525570000000  0.4764040000000 1.0
C      1  0.4967960000000  0.6058270000000  0.4760090000000 1.0
C      1  0.4432540000000  0.4248930000000  0.5140380000000 1.0
C      1  0.5927970000000  0.4888580000000  0.5134190000000 1.0
C      1  0.4686070000000  0.5900060000000  0.5128290000000 1.0
C      1  0.4981220000000  0.4965150000000  0.5458470000000 1.0
END
