TITL C-3577080-309-250 8.22954405984596e-07 125000 -597.398492124963 0 0 104 (C1) n - 1
REM
REM in /home/bkarasulu/work/CARBON/AIRSS/Generating-Clusters/EDIP-Nigel-Params/with-SteepDescent/Higher-Symm/SD-CG/HFTN-CG
REM
REM
REM
REM
REM
REM ./C.cell (12c818d87b63d06a65506943cc24bca4)
REM
REM compiler GCC version 9.2.1 20190827 (Red Hat 9.2.1-1)
REM options -cpp -mtune=generic -march=x86-64 -g -O0 -fpre-include=/usr/include/finclude/math-vector-fortran.h
REM seed 256179459 -1833823096 1836185151 -1797862366 -1803134156 -532635236 957182835 1905629632 -274372435 -910083802 -623936487 -61732598 -1215444673 -1876005140 1758096304 -488811140 -1077337084 -1815835555 -1009240744 865549237 662004024 1554259795 -1261902104 -1382350759 1373921730 -1273584475 862187393 2049070372 1370686279 2068853960 -1925798050 742331435 -2135506708
REM
CELL 1.54180   50.00000   50.00000   50.00000   90.00000   90.00000   90.00000
LATT -1
SFAC C  
C      1  0.5080370000000  0.4783480000000  0.5910520000000 1.0
C      1  0.5556190000000  0.4773120000000  0.5773470000000 1.0
C      1  0.5870720000000  0.4774150000000  0.5327490000000 1.0
C      1  0.5924920000000  0.4794100000000  0.4781540000000 1.0
C      1  0.5631160000000  0.4712930000000  0.4272470000000 1.0
C      1  0.5098370000000  0.4826150000000  0.4163100000000 1.0
C      1  0.4663220000000  0.4816180000000  0.4079890000000 1.0
C      1  0.4426150000000  0.4810200000000  0.4451780000000 1.0
C      1  0.4115710000000  0.4796560000000  0.4902260000000 1.0
C      1  0.4158230000000  0.4817200000000  0.5453850000000 1.0
C      1  0.4533540000000  0.4793800000000  0.5856530000000 1.0
C      1  0.5154020000000  0.5309820000000  0.5799600000000 1.0
C      1  0.5548900000000  0.5260500000000  0.5600490000000 1.0
C      1  0.5798950000000  0.5312010000000  0.5236470000000 1.0
C      1  0.5768390000000  0.5305580000000  0.4751310000000 1.0
C      1  0.5500530000000  0.5283240000000  0.4361480000000 1.0
C      1  0.5093020000000  0.5269570000000  0.4182800000000 1.0
C      1  0.4620170000000  0.5274950000000  0.4275540000000 1.0
C      1  0.4329560000000  0.5302260000000  0.4604440000000 1.0
C      1  0.4208850000000  0.5275550000000  0.5028150000000 1.0
C      1  0.4347310000000  0.5308880000000  0.5508240000000 1.0
C      1  0.4712820000000  0.5266880000000  0.5758750000000 1.0
C      1  0.5572480000000  0.4471180000000  0.4405270000000 1.0
C      1  0.5210780000000  0.4562550000000  0.4194860000000 1.0
C      1  0.4728090000000  0.4586370000000  0.4215070000000 1.0
C      1  0.4365320000000  0.4533090000000  0.4578400000000 1.0
C      1  0.4241230000000  0.4546150000000  0.4847300000000 1.0
C      1  0.4249510000000  0.4568080000000  0.5391350000000 1.0
C      1  0.4592650000000  0.4561760000000  0.5726370000000 1.0
C      1  0.5047010000000  0.4538810000000  0.5791910000000 1.0
C      1  0.5464780000000  0.4546220000000  0.5650340000000 1.0
C      1  0.5753650000000  0.4526610000000  0.5290590000000 1.0
C      1  0.5779930000000  0.4563010000000  0.4828960000000 1.0
C      1  0.5884070000000  0.5047020000000  0.5311920000000 1.0
C      1  0.5929770000000  0.5071030000000  0.4781940000000 1.0
C      1  0.5583790000000  0.4989690000000  0.4364450000000 1.0
C      1  0.5190660000000  0.5055960000000  0.4016830000000 1.0
C      1  0.4615810000000  0.5083780000000  0.4069800000000 1.0
C      1  0.4264670000000  0.5040910000000  0.4513620000000 1.0
C      1  0.4060120000000  0.5064630000000  0.4911390000000 1.0
C      1  0.4175360000000  0.5086290000000  0.5479460000000 1.0
C      1  0.4556890000000  0.5062640000000  0.5876740000000 1.0
C      1  0.5105090000000  0.5053680000000  0.5920590000000 1.0
C      1  0.5585280000000  0.5043220000000  0.5780140000000 1.0
C      1  0.5755620000000  0.5614930000000  0.5254920000000 1.0
C      1  0.5800880000000  0.5584640000000  0.4802640000000 1.0
C      1  0.5515420000000  0.5601810000000  0.4393040000000 1.0
C      1  0.5179100000000  0.5548220000000  0.4210490000000 1.0
C      1  0.4673820000000  0.5551750000000  0.4238340000000 1.0
C      1  0.4329280000000  0.5595180000000  0.4583650000000 1.0
C      1  0.4221150000000  0.5558270000000  0.4941960000000 1.0
C      1  0.4329790000000  0.5591210000000  0.5414740000000 1.0
C      1  0.4651390000000  0.5549360000000  0.5728040000000 1.0
C      1  0.5135610000000  0.5622830000000  0.5780200000000 1.0
C      1  0.5485760000000  0.5552190000000  0.5631370000000 1.0
C      1  0.4672150000000  0.4795650000000  0.4835540000000 1.0
C      1  0.4522260000000  0.4906910000000  0.5046710000000 1.0
C      1  0.4612440000000  0.4830660000000  0.5298730000000 1.0
C      1  0.4835300000000  0.4911350000000  0.5443720000000 1.0
C      1  0.5082580000000  0.4813620000000  0.5359130000000 1.0
C      1  0.5338530000000  0.4918580000000  0.5322670000000 1.0
C      1  0.5492890000000  0.4831030000000  0.5101700000000 1.0
C      1  0.5540700000000  0.4933490000000  0.4832940000000 1.0
C      1  0.5400850000000  0.4832700000000  0.4561690000000 1.0
C      1  0.5090700000000  0.4883050000000  0.4458080000000 1.0
C      1  0.4711150000000  0.4863250000000  0.4556160000000 1.0
C      1  0.4492520000000  0.5680120000000  0.4984170000000 1.0
C      1  0.4548690000000  0.5741670000000  0.5281300000000 1.0
C      1  0.4761750000000  0.5674060000000  0.5490350000000 1.0
C      1  0.5054620000000  0.5755440000000  0.5510480000000 1.0
C      1  0.5337620000000  0.5668080000000  0.5393300000000 1.0
C      1  0.5516300000000  0.5771730000000  0.5163560000000 1.0
C      1  0.5541580000000  0.5690130000000  0.4870780000000 1.0
C      1  0.5360760000000  0.5745240000000  0.4627840000000 1.0
C      1  0.5088490000000  0.5675040000000  0.4463380000000 1.0
C      1  0.4787840000000  0.5677330000000  0.4467040000000 1.0
C      1  0.4579460000000  0.5730830000000  0.4682200000000 1.0
C      1  0.5130450000000  0.4442210000000  0.4444160000000 1.0
C      1  0.4830050000000  0.4454100000000  0.4443650000000 1.0
C      1  0.4623130000000  0.4397630000000  0.4645180000000 1.0
C      1  0.4477310000000  0.4428890000000  0.4993790000000 1.0
C      1  0.4466700000000  0.4414270000000  0.5290640000000 1.0
C      1  0.4701690000000  0.4442420000000  0.5490560000000 1.0
C      1  0.5012600000000  0.4413250000000  0.5536240000000 1.0
C      1  0.5310520000000  0.4439660000000  0.5433180000000 1.0
C      1  0.5511680000000  0.4400060000000  0.5195760000000 1.0
C      1  0.5525300000000  0.4446170000000  0.4884360000000 1.0
C      1  0.5385940000000  0.4397860000000  0.4611000000000 1.0
C      1  0.4586390000000  0.5313730000000  0.5313240000000 1.0
C      1  0.4819880000000  0.5197120000000  0.5487810000000 1.0
C      1  0.5098010000000  0.5329750000000  0.5496580000000 1.0
C      1  0.5358430000000  0.5201550000000  0.5374740000000 1.0
C      1  0.5502550000000  0.5341800000000  0.5141340000000 1.0
C      1  0.5501530000000  0.5228810000000  0.4842240000000 1.0
C      1  0.5310350000000  0.5324560000000  0.4606510000000 1.0
C      1  0.5054150000000  0.5181460000000  0.4465370000000 1.0
C      1  0.4749540000000  0.5170060000000  0.4528700000000 1.0
C      1  0.4668010000000  0.5320760000000  0.4801660000000 1.0
C      1  0.4497880000000  0.5197410000000  0.5040790000000 1.0
C      1  0.5056190000000  0.5141300000000  0.4925820000000 1.0
C      1  0.4924660000000  0.5373900000000  0.4922900000000 1.0
C      1  0.5056450000000  0.4611940000000  0.4960310000000 1.0
C      1  0.5102140000000  0.4875740000000  0.4898890000000 1.0
C      1  0.5096170000000  0.4355990000000  0.4942040000000 1.0
END
