TITL C-3577088-510-385 -6.87598608242193e-06 125000 -324.474553454646 0 0 55 (C1) n - 1
REM
REM in /home/bkarasulu/work/CARBON/AIRSS/Generating-Clusters/EDIP-Nigel-Params/with-SteepDescent/Higher-Symm/SD-CG/HFTN-CG
REM
REM
REM
REM
REM
REM ./C.cell (12c818d87b63d06a65506943cc24bca4)
REM
REM compiler GCC version 9.2.1 20190827 (Red Hat 9.2.1-1)
REM options -cpp -mtune=generic -march=x86-64 -g -O0 -fpre-include=/usr/include/finclude/math-vector-fortran.h
REM seed 1415511070 -59897103 -14737403 -1856279271 -760409860 -1025217668 1755751022 1121654385 1585429948 -1815857178 357385144 -1366579566 -1681603361 -480959343 -956013008 -15147775 2120567846 383223390 -1103977543 -438534751 1720019388 -155422328 2039910836 -739237762 -1457079449 -1890026544 401996945 849308900 -1509910943 1933530576 -1620919653 -1744308431 -1084951037
REM
CELL 1.54180   50.00000   50.00000   50.00000   90.00000   90.00000   90.00000
LATT -1
SFAC C  
C      1  0.4841690000000  0.5143590000000  0.4928160000000 1.0
C      1  0.5041720000000  0.5198530000000  0.5126400000000 1.0
C      1  0.5275390000000  0.5219450000000  0.4944760000000 1.0
C      1  0.5228860000000  0.5371580000000  0.4435120000000 1.0
C      1  0.4404550000000  0.5326010000000  0.5053400000000 1.0
C      1  0.5345230000000  0.5307080000000  0.5499220000000 1.0
C      1  0.4596970000000  0.5308880000000  0.5287620000000 1.0
C      1  0.5491720000000  0.5349850000000  0.5243300000000 1.0
C      1  0.4938930000000  0.5340230000000  0.4485850000000 1.0
C      1  0.5645340000000  0.5111870000000  0.5153310000000 1.0
C      1  0.4823570000000  0.5082190000000  0.4404350000000 1.0
C      1  0.4543920000000  0.5082180000000  0.5468130000000 1.0
C      1  0.4917400000000  0.4674250000000  0.5557040000000 1.0
C      1  0.5405940000000  0.4715590000000  0.4895430000000 1.0
C      1  0.4608460000000  0.4705900000000  0.4684670000000 1.0
C      1  0.5227400000000  0.5016020000000  0.5529620000000 1.0
C      1  0.5387390000000  0.5118280000000  0.4464670000000 1.0
C      1  0.4286950000000  0.5064450000000  0.4917990000000 1.0
C      1  0.4770350000000  0.4681810000000  0.5202190000000 1.0
C      1  0.5190540000000  0.4686190000000  0.5100560000000 1.0
C      1  0.4901040000000  0.4752440000000  0.4785470000000 1.0
C      1  0.5159380000000  0.5018050000000  0.4689430000000 1.0
C      1  0.4628460000000  0.4943780000000  0.5055430000000 1.0
C      1  0.5105380000000  0.4950080000000  0.5267910000000 1.0
C      1  0.5429650000000  0.4790640000000  0.5529180000000 1.0
C      1  0.5249770000000  0.4763370000000  0.4408970000000 1.0
C      1  0.4314910000000  0.4732370000000  0.5102550000000 1.0
C      1  0.4949210000000  0.4816290000000  0.4351990000000 1.0
C      1  0.4416470000000  0.4811460000000  0.5417000000000 1.0
C      1  0.5609240000000  0.4836070000000  0.5268260000000 1.0
C      1  0.4985310000000  0.5174890000000  0.5721920000000 1.0
C      1  0.5631900000000  0.5220410000000  0.4621530000000 1.0
C      1  0.4359860000000  0.5188500000000  0.4634320000000 1.0
C      1  0.5312750000000  0.4584720000000  0.4646900000000 1.0
C      1  0.4478110000000  0.4541140000000  0.4903170000000 1.0
C      1  0.5200810000000  0.4568810000000  0.5529380000000 1.0
C      1  0.4546330000000  0.5077630000000  0.4455170000000 1.0
C      1  0.4723750000000  0.5088610000000  0.5681750000000 1.0
C      1  0.5696870000000  0.5117450000000  0.4876200000000 1.0
C      1  0.4622410000000  0.4624090000000  0.5542600000000 1.0
C      1  0.5631920000000  0.4639930000000  0.5055210000000 1.0
C      1  0.4742910000000  0.4623330000000  0.4432490000000 1.0
C      1  0.4898700000000  0.5663160000000  0.4883770000000 1.0
C      1  0.4910070000000  0.5679750000000  0.5169800000000 1.0
C      1  0.5180430000000  0.5720320000000  0.4895690000000 1.0
C      1  0.5382170000000  0.5511330000000  0.4900710000000 1.0
C      1  0.4792730000000  0.5404790000000  0.4760130000000 1.0
C      1  0.4899080000000  0.5419720000000  0.5299910000000 1.0
C      1  0.5521510000000  0.5494250000000  0.4642980000000 1.0
C      1  0.4491260000000  0.5424650000000  0.4771450000000 1.0
C      1  0.5059490000000  0.5422810000000  0.5561490000000 1.0
C      1  0.5044550000000  0.4494480000000  0.4726480000000 1.0
C      1  0.4700710000000  0.4416670000000  0.5074660000000 1.0
C      1  0.5235400000000  0.4438810000000  0.5272640000000 1.0
C      1  0.4991140000000  0.4369900000000  0.4989060000000 1.0
END
