TITL C-3577089-586-222 -2.64664175747027e-06 125000 -809.791625422195 0 0 129 (C1) n - 1
REM
REM in /home/bkarasulu/work/CARBON/AIRSS/Generating-Clusters/EDIP-Nigel-Params/with-SteepDescent/Higher-Symm/SD-CG/HFTN-CG
REM
REM
REM
REM
REM
REM ./C.cell (12c818d87b63d06a65506943cc24bca4)
REM
REM compiler GCC version 9.2.1 20190827 (Red Hat 9.2.1-1)
REM options -cpp -mtune=generic -march=x86-64 -g -O0 -fpre-include=/usr/include/finclude/math-vector-fortran.h
REM seed 480300930 -550481186 -1806873555 -1496455995 370706617 -699765293 -125345255 1015389360 -2072099925 -1006266277 1203658083 664525887 1675359316 919669284 -197823330 -1542399759 -84281432 957922476 -593510756 -1899647852 1815606680 -1273119216 2019203858 1255917087 -556437736 -781513887 -759201511 -1939822416 1084736428 468036800 1392068368 -441714619 -757810121
REM
CELL 1.54180   50.00000   50.00000   50.00000   90.00000   90.00000   90.00000
LATT -1
SFAC C  
C      1  0.4476550000000  0.5700690000000  0.5516440000000 1.0
C      1  0.4751360000000  0.5653980000000  0.4271360000000 1.0
C      1  0.5745640000000  0.5730360000000  0.5161700000000 1.0
C      1  0.4512040000000  0.4275660000000  0.5581420000000 1.0
C      1  0.4768240000000  0.4343800000000  0.4320930000000 1.0
C      1  0.5719360000000  0.4365390000000  0.5078890000000 1.0
C      1  0.4482430000000  0.5739580000000  0.4382310000000 1.0
C      1  0.4697990000000  0.5616570000000  0.5673360000000 1.0
C      1  0.5752220000000  0.5719980000000  0.4859660000000 1.0
C      1  0.4518610000000  0.4289320000000  0.4451540000000 1.0
C      1  0.4762450000000  0.4338180000000  0.5705000000000 1.0
C      1  0.5743990000000  0.4256070000000  0.4813370000000 1.0
C      1  0.4161240000000  0.4856050000000  0.4485220000000 1.0
C      1  0.5897970000000  0.4854250000000  0.4521680000000 1.0
C      1  0.5016500000000  0.4835570000000  0.5993490000000 1.0
C      1  0.4172990000000  0.5156050000000  0.4520350000000 1.0
C      1  0.5896470000000  0.5155100000000  0.4549610000000 1.0
C      1  0.4977850000000  0.5131230000000  0.5987690000000 1.0
C      1  0.4134260000000  0.4832840000000  0.5555960000000 1.0
C      1  0.5857490000000  0.4864640000000  0.5429150000000 1.0
C      1  0.5019140000000  0.4832370000000  0.4012230000000 1.0
C      1  0.4117280000000  0.5139290000000  0.5504350000000 1.0
C      1  0.5865260000000  0.5161810000000  0.5485700000000 1.0
C      1  0.4981840000000  0.5128610000000  0.4002960000000 1.0
C      1  0.5190370000000  0.4682030000000  0.4851930000000 1.0
C      1  0.4960570000000  0.4747980000000  0.5281140000000 1.0
C      1  0.4707120000000  0.4790580000000  0.4860930000000 1.0
C      1  0.5233950000000  0.5223760000000  0.4851610000000 1.0
C      1  0.4997950000000  0.5231780000000  0.5265890000000 1.0
C      1  0.4746520000000  0.5280990000000  0.4859260000000 1.0
C      1  0.5199500000000  0.4693670000000  0.5135080000000 1.0
C      1  0.4950010000000  0.4765430000000  0.4714110000000 1.0
C      1  0.4715580000000  0.4728410000000  0.5137270000000 1.0
C      1  0.5242130000000  0.5282780000000  0.5125240000000 1.0
C      1  0.4992730000000  0.5264830000000  0.4715190000000 1.0
C      1  0.4754580000000  0.5321250000000  0.5149060000000 1.0
C      1  0.5686730000000  0.5319090000000  0.4419820000000 1.0
C      1  0.5176390000000  0.5292640000000  0.5849730000000 1.0
C      1  0.4180520000000  0.5290750000000  0.4773140000000 1.0
C      1  0.5698300000000  0.4704270000000  0.4367790000000 1.0
C      1  0.5201180000000  0.4710570000000  0.5806090000000 1.0
C      1  0.4185090000000  0.4684490000000  0.4731740000000 1.0
C      1  0.5637650000000  0.5308040000000  0.5597170000000 1.0
C      1  0.5186970000000  0.5288360000000  0.4141870000000 1.0
C      1  0.4271260000000  0.5252940000000  0.5262350000000 1.0
C      1  0.5683980000000  0.4668380000000  0.5566810000000 1.0
C      1  0.5198680000000  0.4717160000000  0.4211950000000 1.0
C      1  0.4143020000000  0.4630900000000  0.5323980000000 1.0
C      1  0.5463290000000  0.5535820000000  0.5539070000000 1.0
C      1  0.4247160000000  0.5592190000000  0.5119400000000 1.0
C      1  0.5230600000000  0.5508990000000  0.4327110000000 1.0
C      1  0.5510320000000  0.4430350000000  0.5537420000000 1.0
C      1  0.4302840000000  0.4437050000000  0.5165090000000 1.0
C      1  0.5261060000000  0.4462590000000  0.4345570000000 1.0
C      1  0.5487480000000  0.5527730000000  0.4470560000000 1.0
C      1  0.4220740000000  0.5578730000000  0.4831480000000 1.0
C      1  0.5198780000000  0.5514920000000  0.5664560000000 1.0
C      1  0.5517670000000  0.4486240000000  0.4512570000000 1.0
C      1  0.4301670000000  0.4447010000000  0.4869100000000 1.0
C      1  0.5252820000000  0.4446300000000  0.5686520000000 1.0
C      1  0.4333350000000  0.5548760000000  0.4177790000000 1.0
C      1  0.6013410000000  0.5529360000000  0.4873130000000 1.0
C      1  0.4590510000000  0.5480360000000  0.5913930000000 1.0
C      1  0.4395010000000  0.4529700000000  0.4175670000000 1.0
C      1  0.6061240000000  0.4464500000000  0.4816860000000 1.0
C      1  0.4664480000000  0.4464910000000  0.5951740000000 1.0
C      1  0.4311910000000  0.5447840000000  0.5888250000000 1.0
C      1  0.6016540000000  0.5568170000000  0.5181250000000 1.0
C      1  0.4622200000000  0.5503170000000  0.4035870000000 1.0
C      1  0.4388770000000  0.4516910000000  0.5857460000000 1.0
C      1  0.5974550000000  0.4506490000000  0.5095250000000 1.0
C      1  0.4665830000000  0.4468730000000  0.4074110000000 1.0
C      1  0.5492610000000  0.5672630000000  0.4726470000000 1.0
C      1  0.4967480000000  0.5668410000000  0.5561700000000 1.0
C      1  0.4490520000000  0.5660930000000  0.4674860000000 1.0
C      1  0.5504660000000  0.4157620000000  0.4700890000000 1.0
C      1  0.5022170000000  0.4292100000000  0.5582050000000 1.0
C      1  0.4512970000000  0.4286890000000  0.4735560000000 1.0
C      1  0.5480390000000  0.5659580000000  0.5273830000000 1.0
C      1  0.5003220000000  0.5667660000000  0.4421310000000 1.0
C      1  0.4461040000000  0.5759530000000  0.5239080000000 1.0
C      1  0.5511480000000  0.4298740000000  0.5270990000000 1.0
C      1  0.5028530000000  0.4298520000000  0.4445670000000 1.0
C      1  0.4506890000000  0.4266110000000  0.5296550000000 1.0
C      1  0.4371520000000  0.4799440000000  0.4276470000000 1.0
C      1  0.6078700000000  0.4692750000000  0.4660780000000 1.0
C      1  0.4804860000000  0.4674430000000  0.6072200000000 1.0
C      1  0.4231990000000  0.5314980000000  0.4298370000000 1.0
C      1  0.5977320000000  0.5246890000000  0.4813400000000 1.0
C      1  0.4708540000000  0.5231470000000  0.5990520000000 1.0
C      1  0.4356520000000  0.4786060000000  0.5756810000000 1.0
C      1  0.5993030000000  0.4774850000000  0.5192230000000 1.0
C      1  0.4806480000000  0.4669620000000  0.3940220000000 1.0
C      1  0.4147850000000  0.5297800000000  0.5734150000000 1.0
C      1  0.6021900000000  0.5328360000000  0.5327970000000 1.0
C      1  0.4706860000000  0.5227260000000  0.3998290000000 1.0
C      1  0.5264000000000  0.4139090000000  0.4862340000000 1.0
C      1  0.5017690000000  0.4179850000000  0.5308160000000 1.0
C      1  0.4758320000000  0.4191760000000  0.4869520000000 1.0
C      1  0.5248680000000  0.5792310000000  0.4848250000000 1.0
C      1  0.4978500000000  0.5786280000000  0.5284970000000 1.0
C      1  0.4730500000000  0.5801270000000  0.4821990000000 1.0
C      1  0.5270510000000  0.4172700000000  0.5157160000000 1.0
C      1  0.5012390000000  0.4173380000000  0.4717340000000 1.0
C      1  0.4758550000000  0.4181950000000  0.5160980000000 1.0
C      1  0.5242020000000  0.5790570000000  0.5146800000000 1.0
C      1  0.4996710000000  0.5781060000000  0.4692960000000 1.0
C      1  0.4727800000000  0.5800270000000  0.5115720000000 1.0
C      1  0.4458380000000  0.4950110000000  0.4791780000000 1.0
C      1  0.5462790000000  0.4702710000000  0.4744170000000 1.0
C      1  0.4934710000000  0.4843310000000  0.5562980000000 1.0
C      1  0.4546930000000  0.5349030000000  0.4655810000000 1.0
C      1  0.5491890000000  0.5175100000000  0.4724440000000 1.0
C      1  0.4970630000000  0.5157720000000  0.5550700000000 1.0
C      1  0.4475040000000  0.4822810000000  0.5273480000000 1.0
C      1  0.5470630000000  0.4740210000000  0.5244850000000 1.0
C      1  0.4923540000000  0.4861280000000  0.4437710000000 1.0
C      1  0.4544200000000  0.5348360000000  0.5368140000000 1.0
C      1  0.5506420000000  0.5219580000000  0.5239710000000 1.0
C      1  0.4961110000000  0.5178650000000  0.4435890000000 1.0
C      1  0.5665740000000  0.5109950000000  0.4975700000000 1.0
C      1  0.5658700000000  0.4797240000000  0.5003020000000 1.0
C      1  0.4575520000000  0.4882120000000  0.5564840000000 1.0
C      1  0.4653210000000  0.5232670000000  0.4378690000000 1.0
C      1  0.4663790000000  0.5177230000000  0.5607510000000 1.0
C      1  0.4595040000000  0.4931550000000  0.4452940000000 1.0
C      1  0.5433490000000  0.4984360000000  0.5392500000000 1.0
C      1  0.4349230000000  0.5024190000000  0.5085320000000 1.0
C      1  0.5463700000000  0.4931800000000  0.4560050000000 1.0
END
