TITL C-3577091-527-68 2.14518405793308e-06 125000 -754.654146083819 0 0 119 (C1) n - 1
REM
REM in /home/bkarasulu/work/CARBON/AIRSS/Generating-Clusters/EDIP-Nigel-Params/with-SteepDescent/Higher-Symm/SD-CG/HFTN-CG
REM
REM
REM
REM
REM
REM ./C.cell (12c818d87b63d06a65506943cc24bca4)
REM
REM compiler GCC version 9.2.1 20190827 (Red Hat 9.2.1-1)
REM options -cpp -mtune=generic -march=x86-64 -g -O0 -fpre-include=/usr/include/finclude/math-vector-fortran.h
REM seed 964702416 661814331 -472988702 1177325569 607542208 70551191 70844514 -2117586174 -310159909 849642471 -614425615 231559796 233645055 -1374898272 915681645 2044267991 32792124 586841418 689043422 -37411823 1665814191 -853875250 -1840175473 -1643999763 -429299938 -1221209066 1158234692 593449428 -100789078 2118658312 1883868456 142806588 -1014132925
REM
CELL 1.54180   50.00000   50.00000   50.00000   90.00000   90.00000   90.00000
LATT -1
SFAC C  
C      1  0.4679640000000  0.5129980000000  0.4060210000000 1.0
C      1  0.5946570000000  0.4894010000000  0.4691400000000 1.0
C      1  0.5269360000000  0.5115570000000  0.5971740000000 1.0
C      1  0.4065250000000  0.4873040000000  0.5314780000000 1.0
C      1  0.5549450000000  0.5673870000000  0.5108920000000 1.0
C      1  0.4897240000000  0.4351570000000  0.5595490000000 1.0
C      1  0.4418470000000  0.5707230000000  0.4907910000000 1.0
C      1  0.5096850000000  0.4350970000000  0.4435210000000 1.0
C      1  0.4408840000000  0.5099030000000  0.4525670000000 1.0
C      1  0.5473360000000  0.4856160000000  0.4327440000000 1.0
C      1  0.5607800000000  0.5118300000000  0.5442780000000 1.0
C      1  0.4540960000000  0.4903230000000  0.5695550000000 1.0
C      1  0.5083110000000  0.5579380000000  0.4367160000000 1.0
C      1  0.5782630000000  0.4381030000000  0.4925460000000 1.0
C      1  0.5042990000000  0.5604000000000  0.5784200000000 1.0
C      1  0.4353910000000  0.4405180000000  0.4910460000000 1.0
C      1  0.4703100000000  0.5320890000000  0.5124220000000 1.0
C      1  0.4779580000000  0.4767120000000  0.4635580000000 1.0
C      1  0.5279820000000  0.5313880000000  0.4811510000000 1.0
C      1  0.5087320000000  0.4706680000000  0.5409470000000 1.0
C      1  0.4265140000000  0.4866210000000  0.4399860000000 1.0
C      1  0.5570120000000  0.5140530000000  0.4253910000000 1.0
C      1  0.5677590000000  0.4831860000000  0.5521050000000 1.0
C      1  0.4425460000000  0.5192420000000  0.5742890000000 1.0
C      1  0.3904370000000  0.4991800000000  0.4877120000000 1.0
C      1  0.5115500000000  0.4991710000000  0.3855250000000 1.0
C      1  0.6098760000000  0.5020750000000  0.5144420000000 1.0
C      1  0.4800960000000  0.4987220000000  0.6126950000000 1.0
C      1  0.5592600000000  0.4412170000000  0.4486320000000 1.0
C      1  0.5471790000000  0.5554980000000  0.5588520000000 1.0
C      1  0.4401160000000  0.4398010000000  0.5539330000000 1.0
C      1  0.4572980000000  0.5551040000000  0.4425580000000 1.0
C      1  0.4892450000000  0.5188460000000  0.4403300000000 1.0
C      1  0.5606240000000  0.4753750000000  0.4805530000000 1.0
C      1  0.5165270000000  0.5220950000000  0.5681300000000 1.0
C      1  0.4405350000000  0.4702540000000  0.5233690000000 1.0
C      1  0.4977390000000  0.5195230000000  0.6056490000000 1.0
C      1  0.4020440000000  0.4787540000000  0.5030850000000 1.0
C      1  0.4966700000000  0.5202110000000  0.3973390000000 1.0
C      1  0.6007630000000  0.4812490000000  0.4979120000000 1.0
C      1  0.4807930000000  0.4269270000000  0.4847980000000 1.0
C      1  0.5168700000000  0.5822980000000  0.4797100000000 1.0
C      1  0.5255100000000  0.4282930000000  0.5188550000000 1.0
C      1  0.4803240000000  0.5794210000000  0.5271750000000 1.0
C      1  0.4738880000000  0.4976150000000  0.5477290000000 1.0
C      1  0.4627260000000  0.5008200000000  0.4743190000000 1.0
C      1  0.5240730000000  0.4881370000000  0.4509010000000 1.0
C      1  0.5424120000000  0.5101090000000  0.5195470000000 1.0
C      1  0.4374990000000  0.5558320000000  0.4648470000000 1.0
C      1  0.5358470000000  0.4402690000000  0.4296440000000 1.0
C      1  0.5660090000000  0.5576690000000  0.5365120000000 1.0
C      1  0.4627930000000  0.4381920000000  0.5720030000000 1.0
C      1  0.4635850000000  0.4543620000000  0.4487170000000 1.0
C      1  0.5478540000000  0.5484810000000  0.4659230000000 1.0
C      1  0.5298170000000  0.4544060000000  0.5568820000000 1.0
C      1  0.4492720000000  0.5468300000000  0.5312630000000 1.0
C      1  0.4594780000000  0.5259740000000  0.4333480000000 1.0
C      1  0.5679220000000  0.4700400000000  0.4497880000000 1.0
C      1  0.5472960000000  0.5271570000000  0.5677590000000 1.0
C      1  0.4324310000000  0.4707060000000  0.5545350000000 1.0
C      1  0.5068910000000  0.4280600000000  0.4718360000000 1.0
C      1  0.5277130000000  0.5773530000000  0.5073280000000 1.0
C      1  0.4970530000000  0.4252530000000  0.5315150000000 1.0
C      1  0.4696780000000  0.5808610000000  0.4981020000000 1.0
C      1  0.4899350000000  0.5696150000000  0.4789530000000 1.0
C      1  0.5297550000000  0.4283980000000  0.4892550000000 1.0
C      1  0.5096990000000  0.5764550000000  0.5304630000000 1.0
C      1  0.4786630000000  0.4383830000000  0.5121980000000 1.0
C      1  0.4865170000000  0.5196310000000  0.4711020000000 1.0
C      1  0.5289070000000  0.4852160000000  0.4795790000000 1.0
C      1  0.5134090000000  0.5095150000000  0.5202240000000 1.0
C      1  0.4657280000000  0.4857680000000  0.5220780000000 1.0
C      1  0.5662350000000  0.4623850000000  0.5303340000000 1.0
C      1  0.4608310000000  0.5428970000000  0.5775230000000 1.0
C      1  0.4140250000000  0.4701840000000  0.4585820000000 1.0
C      1  0.5405390000000  0.5308180000000  0.4103000000000 1.0
C      1  0.5140520000000  0.5394140000000  0.4128810000000 1.0
C      1  0.5870170000000  0.4577710000000  0.5104220000000 1.0
C      1  0.4861590000000  0.5429010000000  0.5909230000000 1.0
C      1  0.4192640000000  0.4639460000000  0.4850830000000 1.0
C      1  0.5301400000000  0.5699080000000  0.4543480000000 1.0
C      1  0.5464740000000  0.4402360000000  0.5367270000000 1.0
C      1  0.4632200000000  0.5665230000000  0.5482720000000 1.0
C      1  0.4558540000000  0.4334010000000  0.4702040000000 1.0
C      1  0.4600640000000  0.4593340000000  0.5915920000000 1.0
C      1  0.4221360000000  0.5306900000000  0.4642280000000 1.0
C      1  0.5384200000000  0.4654150000000  0.4106100000000 1.0
C      1  0.5874260000000  0.5371810000000  0.5381780000000 1.0
C      1  0.5659240000000  0.5290170000000  0.4490070000000 1.0
C      1  0.5472540000000  0.4730870000000  0.5713260000000 1.0
C      1  0.4323800000000  0.5273290000000  0.5474860000000 1.0
C      1  0.4453860000000  0.4691330000000  0.4266990000000 1.0
C      1  0.5560310000000  0.4317050000000  0.4767300000000 1.0
C      1  0.5196080000000  0.5640890000000  0.5551380000000 1.0
C      1  0.4480490000000  0.4395410000000  0.5189740000000 1.0
C      1  0.4830990000000  0.5671070000000  0.4495040000000 1.0
C      1  0.4026420000000  0.5244650000000  0.4854840000000 1.0
C      1  0.5131880000000  0.4732880000000  0.3966420000000 1.0
C      1  0.6002310000000  0.5282560000000  0.5142130000000 1.0
C      1  0.4825090000000  0.4747070000000  0.5990970000000 1.0
C      1  0.4644540000000  0.4825500000000  0.4067750000000 1.0
C      1  0.5854910000000  0.5174760000000  0.4675110000000 1.0
C      1  0.5321080000000  0.4819810000000  0.5954120000000 1.0
C      1  0.4082220000000  0.5172240000000  0.5347000000000 1.0
C      1  0.4591470000000  0.5066050000000  0.5034710000000 1.0
C      1  0.4963800000000  0.4879030000000  0.4415900000000 1.0
C      1  0.5483510000000  0.5096230000000  0.4903480000000 1.0
C      1  0.5041480000000  0.5000370000000  0.5471920000000 1.0
C      1  0.4281540000000  0.5589820000000  0.5142840000000 1.0
C      1  0.4857610000000  0.4438790000000  0.4295980000000 1.0
C      1  0.5677240000000  0.5576140000000  0.4870180000000 1.0
C      1  0.5128210000000  0.4401140000000  0.5773180000000 1.0
C      1  0.5089860000000  0.4627170000000  0.5975990000000 1.0
C      1  0.4076200000000  0.5367270000000  0.5114180000000 1.0
C      1  0.4908030000000  0.4709710000000  0.4160840000000 1.0
C      1  0.5846280000000  0.5340300000000  0.4907660000000 1.0
C      1  0.4903570000000  0.4688880000000  0.5143020000000 1.0
C      1  0.4960700000000  0.5411610000000  0.4906860000000 1.0
C      1  0.5030690000000  0.4931470000000  0.4958070000000 1.0
END
