TITL C-3577082-504-20 -4.06424306962541e-06 125000 -877.520279616925 0 0 141 (C1) n - 1
REM
REM in /home/bkarasulu/work/CARBON/AIRSS/Generating-Clusters/EDIP-Nigel-Params/with-SteepDescent/Higher-Symm/SD-CG/HFTN-CG
REM
REM
REM
REM
REM
REM ./C.cell (12c818d87b63d06a65506943cc24bca4)
REM
REM compiler GCC version 9.2.1 20190827 (Red Hat 9.2.1-1)
REM options -cpp -mtune=generic -march=x86-64 -g -O0 -fpre-include=/usr/include/finclude/math-vector-fortran.h
REM seed -694300223 -508403210 293569416 -2109402455 36153553 790524334 -537510732 -1416578639 303555341 -1405109283 791374912 -499509382 1506535906 89746024 1378480162 214812589 1946204314 1493283109 -201154325 -1628779088 801899645 -1474447439 515092910 -667524444 524308684 2115871237 745721103 -1802760565 258313754 2098425372 1990701244 1821631490 1874108562
REM
CELL 1.54180   50.00000   50.00000   50.00000   90.00000   90.00000   90.00000
LATT -1
SFAC C  
C      1  0.4594480000000  0.5344610000000  0.4853000000000 1.0
C      1  0.4855270000000  0.4537700000000  0.4085360000000 1.0
C      1  0.5458830000000  0.5521830000000  0.5117140000000 1.0
C      1  0.4475920000000  0.4662180000000  0.5137840000000 1.0
C      1  0.5333480000000  0.4098620000000  0.5199020000000 1.0
C      1  0.4397460000000  0.5833970000000  0.4864820000000 1.0
C      1  0.4984310000000  0.5018210000000  0.4991300000000 1.0
C      1  0.5286400000000  0.5814290000000  0.4756490000000 1.0
C      1  0.4270630000000  0.4742700000000  0.4437430000000 1.0
C      1  0.4515800000000  0.4542780000000  0.4847020000000 1.0
C      1  0.5326470000000  0.4318290000000  0.5422760000000 1.0
C      1  0.4276820000000  0.4155630000000  0.4638150000000 1.0
C      1  0.5734020000000  0.4598840000000  0.5510070000000 1.0
C      1  0.4263400000000  0.4402890000000  0.5337040000000 1.0
C      1  0.4572610000000  0.4547120000000  0.4059530000000 1.0
C      1  0.4450390000000  0.4432430000000  0.5579630000000 1.0
C      1  0.4703710000000  0.4233550000000  0.5236730000000 1.0
C      1  0.5341820000000  0.5043380000000  0.5702520000000 1.0
C      1  0.4330920000000  0.4278750000000  0.4400590000000 1.0
C      1  0.5331860000000  0.5571760000000  0.5842050000000 1.0
C      1  0.5981600000000  0.5242490000000  0.5016030000000 1.0
C      1  0.4684310000000  0.5352280000000  0.4105160000000 1.0
C      1  0.5051190000000  0.4459780000000  0.5530290000000 1.0
C      1  0.4800950000000  0.4253360000000  0.4505620000000 1.0
C      1  0.5051400000000  0.5986070000000  0.4661240000000 1.0
C      1  0.5501030000000  0.5354320000000  0.5731490000000 1.0
C      1  0.4066310000000  0.4717420000000  0.4918500000000 1.0
C      1  0.5026690000000  0.5064980000000  0.5776850000000 1.0
C      1  0.5143800000000  0.5485630000000  0.4130370000000 1.0
C      1  0.4859740000000  0.5750940000000  0.5793580000000 1.0
C      1  0.4723150000000  0.4708570000000  0.5282470000000 1.0
C      1  0.5712300000000  0.5447390000000  0.5531610000000 1.0
C      1  0.5327120000000  0.5831020000000  0.5721740000000 1.0
C      1  0.4934000000000  0.5275570000000  0.5971550000000 1.0
C      1  0.5378300000000  0.4734950000000  0.5791350000000 1.0
C      1  0.5748270000000  0.4364510000000  0.5103910000000 1.0
C      1  0.4843890000000  0.5088730000000  0.4123100000000 1.0
C      1  0.4673600000000  0.5636070000000  0.5577460000000 1.0
C      1  0.5758590000000  0.4549610000000  0.4658770000000 1.0
C      1  0.4235200000000  0.5463200000000  0.5115090000000 1.0
C      1  0.5580420000000  0.4339720000000  0.4559310000000 1.0
C      1  0.4865740000000  0.5173220000000  0.5490630000000 1.0
C      1  0.4836150000000  0.5982660000000  0.4872110000000 1.0
C      1  0.5647380000000  0.5673390000000  0.4816970000000 1.0
C      1  0.4729920000000  0.4824100000000  0.6096290000000 1.0
C      1  0.4358630000000  0.4580320000000  0.5797520000000 1.0
C      1  0.6110460000000  0.4994680000000  0.5132960000000 1.0
C      1  0.4639430000000  0.5269230000000  0.5923860000000 1.0
C      1  0.4625350000000  0.5339470000000  0.5630510000000 1.0
C      1  0.6032900000000  0.4747740000000  0.5015930000000 1.0
C      1  0.5115790000000  0.5843630000000  0.5245860000000 1.0
C      1  0.5388060000000  0.4842220000000  0.4832310000000 1.0
C      1  0.5155190000000  0.5254540000000  0.4946830000000 1.0
C      1  0.5141860000000  0.4629580000000  0.5927510000000 1.0
C      1  0.4360560000000  0.5736220000000  0.5149970000000 1.0
C      1  0.5102160000000  0.5642460000000  0.5471220000000 1.0
C      1  0.5095190000000  0.5332670000000  0.5376240000000 1.0
C      1  0.4043080000000  0.4899590000000  0.5367240000000 1.0
C      1  0.5146700000000  0.4559230000000  0.4539560000000 1.0
C      1  0.4929570000000  0.5893500000000  0.4401510000000 1.0
C      1  0.5216700000000  0.5688330000000  0.5025550000000 1.0
C      1  0.4411280000000  0.5257050000000  0.5245080000000 1.0
C      1  0.4277240000000  0.5647330000000  0.4660900000000 1.0
C      1  0.5230490000000  0.4737770000000  0.5309830000000 1.0
C      1  0.5385370000000  0.4442310000000  0.4367750000000 1.0
C      1  0.4649230000000  0.5824690000000  0.4382750000000 1.0
C      1  0.5294280000000  0.4791860000000  0.4010670000000 1.0
C      1  0.6002800000000  0.5039910000000  0.5409530000000 1.0
C      1  0.5208760000000  0.5579670000000  0.4569820000000 1.0
C      1  0.5043890000000  0.5532930000000  0.5897110000000 1.0
C      1  0.5272630000000  0.4177820000000  0.5874800000000 1.0
C      1  0.4928070000000  0.4811590000000  0.5894890000000 1.0
C      1  0.4447600000000  0.5350520000000  0.4286160000000 1.0
C      1  0.5562060000000  0.4160300000000  0.5021560000000 1.0
C      1  0.4712200000000  0.5025030000000  0.4401080000000 1.0
C      1  0.5298130000000  0.4838790000000  0.4545520000000 1.0
C      1  0.4577160000000  0.5030840000000  0.4868480000000 1.0
C      1  0.5552900000000  0.5054680000000  0.4934370000000 1.0
C      1  0.5682840000000  0.5419280000000  0.4647970000000 1.0
C      1  0.4994240000000  0.4582390000000  0.4843770000000 1.0
C      1  0.5064040000000  0.5945960000000  0.5712070000000 1.0
C      1  0.3996970000000  0.5090710000000  0.5153390000000 1.0
C      1  0.4534650000000  0.4993700000000  0.5980400000000 1.0
C      1  0.4360150000000  0.5247680000000  0.5526320000000 1.0
C      1  0.4722830000000  0.4738590000000  0.4766010000000 1.0
C      1  0.4327960000000  0.5075340000000  0.4437810000000 1.0
C      1  0.5132300000000  0.5195530000000  0.4185600000000 1.0
C      1  0.5907360000000  0.4812500000000  0.5531410000000 1.0
C      1  0.4188130000000  0.5158300000000  0.4698700000000 1.0
C      1  0.4386140000000  0.4967530000000  0.5097940000000 1.0
C      1  0.5357980000000  0.5075090000000  0.4038520000000 1.0
C      1  0.5166270000000  0.5117030000000  0.4492300000000 1.0
C      1  0.4337420000000  0.4856730000000  0.5806800000000 1.0
C      1  0.5575160000000  0.5131870000000  0.4226270000000 1.0
C      1  0.4353210000000  0.4079710000000  0.4895910000000 1.0
C      1  0.5796940000000  0.5170060000000  0.4789190000000 1.0
C      1  0.5941180000000  0.5003570000000  0.4585980000000 1.0
C      1  0.4422370000000  0.4224290000000  0.5144480000000 1.0
C      1  0.5067130000000  0.4367240000000  0.5826230000000 1.0
C      1  0.4993030000000  0.5494030000000  0.4959350000000 1.0
C      1  0.4878230000000  0.5503150000000  0.4583270000000 1.0
C      1  0.5468980000000  0.4249700000000  0.5685400000000 1.0
C      1  0.5634780000000  0.5657340000000  0.5333870000000 1.0
C      1  0.4869060000000  0.5592620000000  0.4159010000000 1.0
C      1  0.5586560000000  0.5402100000000  0.4353350000000 1.0
C      1  0.5205970000000  0.4028420000000  0.4729160000000 1.0
C      1  0.4380620000000  0.4524080000000  0.4269110000000 1.0
C      1  0.5495660000000  0.4551490000000  0.5314210000000 1.0
C      1  0.5100990000000  0.4039770000000  0.5006730000000 1.0
C      1  0.5442270000000  0.4192430000000  0.4765040000000 1.0
C      1  0.5298690000000  0.5048280000000  0.5392720000000 1.0
C      1  0.5000880000000  0.4767110000000  0.3993990000000 1.0
C      1  0.5017740000000  0.4081700000000  0.4529160000000 1.0
C      1  0.5544230000000  0.5103920000000  0.5222030000000 1.0
C      1  0.4776210000000  0.5005840000000  0.5230170000000 1.0
C      1  0.4650240000000  0.5705860000000  0.5270870000000 1.0
C      1  0.4882760000000  0.4518890000000  0.4384060000000 1.0
C      1  0.4260060000000  0.4980310000000  0.5558560000000 1.0
C      1  0.4009500000000  0.5002630000000  0.4879200000000 1.0
C      1  0.5351030000000  0.5587770000000  0.4308060000000 1.0
C      1  0.4885530000000  0.4250880000000  0.5008000000000 1.0
C      1  0.5846160000000  0.4757690000000  0.4478200000000 1.0
C      1  0.5476780000000  0.4700030000000  0.4238170000000 1.0
C      1  0.4884720000000  0.5171820000000  0.4604670000000 1.0
C      1  0.5306840000000  0.5311500000000  0.4681940000000 1.0
C      1  0.5791920000000  0.5702440000000  0.5080900000000 1.0
C      1  0.4671970000000  0.4266520000000  0.4780540000000 1.0
C      1  0.5587180000000  0.4523920000000  0.5746130000000 1.0
C      1  0.4681560000000  0.5752480000000  0.4797260000000 1.0
C      1  0.5789990000000  0.4927260000000  0.4233980000000 1.0
C      1  0.4849860000000  0.5926850000000  0.5171070000000 1.0
C      1  0.5789530000000  0.5241120000000  0.5313940000000 1.0
C      1  0.4055330000000  0.4635960000000  0.5221950000000 1.0
C      1  0.4739400000000  0.4451240000000  0.5439100000000 1.0
C      1  0.4293200000000  0.5402660000000  0.4826610000000 1.0
C      1  0.4470230000000  0.5598640000000  0.4444880000000 1.0
C      1  0.5154950000000  0.4778830000000  0.5004500000000 1.0
C      1  0.4709620000000  0.4737420000000  0.4480460000000 1.0
C      1  0.5885660000000  0.4529730000000  0.4916840000000 1.0
C      1  0.4242140000000  0.4590190000000  0.4704940000000 1.0
C      1  0.4743290000000  0.5436290000000  0.5146690000000 1.0
END
