TITL C-3578200-9634-288 -1.42843641618154e-06 125000 -543.490973126991 0 0 88 (C1) n - 1
REM
REM in /home/bkarasulu/work/CARBON/AIRSS/Generating-Clusters/EDIP-Nigel-Params/with-SteepDescent/Higher-Symm/SD-CG/HFTN-CG
REM
REM
REM
REM
REM
REM ./C.cell (12c818d87b63d06a65506943cc24bca4)
REM
REM compiler GCC version 9.2.1 20190827 (Red Hat 9.2.1-1)
REM options -cpp -mtune=generic -march=x86-64 -g -O0 -fpre-include=/usr/include/finclude/math-vector-fortran.h
REM seed 170794588 -1603308558 173642233 1803150354 -2006439925 -728337419 2119257392 1205199273 957924397 -759769133 -37308642 -1502441932 1631961068 -537351097 1856190977 -660210616 509354864 848763125 -867963697 -2047771174 102922251 -1780693237 481905970 -1004631174 -2060975644 1517667659 -31487263 -1769228748 -2139039932 -1899380046 -108932396 2016123958 -785124852
REM
CELL 1.54180   50.00000   50.00000   50.00000   90.00000   90.00000   90.00000
LATT -1
SFAC C  
C      1  0.4413580000000  0.5430990000000  0.5547080000000 1.0
C      1  0.5587000000000  0.5430080000000  0.4476270000000 1.0
C      1  0.4156090000000  0.5006420000000  0.5011980000000 1.0
C      1  0.5847140000000  0.5014050000000  0.4978820000000 1.0
C      1  0.5259690000000  0.5672510000000  0.4748830000000 1.0
C      1  0.4731660000000  0.5668710000000  0.5257240000000 1.0
C      1  0.5286360000000  0.4956880000000  0.4828230000000 1.0
C      1  0.4719830000000  0.4938350000000  0.5146070000000 1.0
C      1  0.5211060000000  0.4702700000000  0.5951120000000 1.0
C      1  0.4806140000000  0.4700780000000  0.4057960000000 1.0
C      1  0.4482420000000  0.4684400000000  0.4796740000000 1.0
C      1  0.5520760000000  0.4669470000000  0.5153410000000 1.0
C      1  0.5062230000000  0.5658370000000  0.4526840000000 1.0
C      1  0.4935220000000  0.5648400000000  0.5472930000000 1.0
C      1  0.5141240000000  0.5672610000000  0.5029730000000 1.0
C      1  0.4844140000000  0.5673060000000  0.4972630000000 1.0
C      1  0.5443510000000  0.4560920000000  0.4735390000000 1.0
C      1  0.4566420000000  0.4559350000000  0.5312070000000 1.0
C      1  0.5177410000000  0.4304860000000  0.5044960000000 1.0
C      1  0.4768570000000  0.4166580000000  0.4941730000000 1.0
C      1  0.5451080000000  0.4954970000000  0.5620010000000 1.0
C      1  0.4547670000000  0.4959000000000  0.4369300000000 1.0
C      1  0.4860030000000  0.5589450000000  0.5734720000000 1.0
C      1  0.5144080000000  0.5582220000000  0.4271420000000 1.0
C      1  0.5263830000000  0.4822750000000  0.4205960000000 1.0
C      1  0.4750190000000  0.4824620000000  0.5822330000000 1.0
C      1  0.5801570000000  0.4899150000000  0.4727390000000 1.0
C      1  0.4224410000000  0.4904320000000  0.5268470000000 1.0
C      1  0.4833770000000  0.4433810000000  0.5372550000000 1.0
C      1  0.5193640000000  0.4439110000000  0.4621240000000 1.0
C      1  0.5430090000000  0.4941710000000  0.4409960000000 1.0
C      1  0.4563090000000  0.4947880000000  0.5641510000000 1.0
C      1  0.4901260000000  0.5263860000000  0.5254970000000 1.0
C      1  0.5081340000000  0.5271820000000  0.4741830000000 1.0
C      1  0.5600740000000  0.5373600000000  0.4914650000000 1.0
C      1  0.4394060000000  0.5368030000000  0.5088810000000 1.0
C      1  0.4822880000000  0.5386030000000  0.4844590000000 1.0
C      1  0.5162430000000  0.5381410000000  0.5153750000000 1.0
C      1  0.4798940000000  0.5326250000000  0.5803530000000 1.0
C      1  0.5211640000000  0.5318490000000  0.4211260000000 1.0
C      1  0.5363320000000  0.5211110000000  0.4997550000000 1.0
C      1  0.4628730000000  0.5206260000000  0.4995990000000 1.0
C      1  0.5154270000000  0.4818500000000  0.5325130000000 1.0
C      1  0.4825730000000  0.4803640000000  0.4669430000000 1.0
C      1  0.4269880000000  0.4884800000000  0.4769650000000 1.0
C      1  0.5720720000000  0.4884900000000  0.5205090000000 1.0
C      1  0.4945600000000  0.4573360000000  0.4497160000000 1.0
C      1  0.5073270000000  0.4583890000000  0.5504290000000 1.0
C      1  0.4988400000000  0.4678270000000  0.5777200000000 1.0
C      1  0.5027320000000  0.4671100000000  0.4230600000000 1.0
C      1  0.4414460000000  0.4452630000000  0.5095080000000 1.0
C      1  0.5595860000000  0.4382580000000  0.4909260000000 1.0
C      1  0.5006860000000  0.5104360000000  0.4271550000000 1.0
C      1  0.4993990000000  0.5108740000000  0.5721120000000 1.0
C      1  0.4460980000000  0.5555390000000  0.5302040000000 1.0
C      1  0.5535310000000  0.5569040000000  0.4710250000000 1.0
C      1  0.5957880000000  0.5277650000000  0.5024790000000 1.0
C      1  0.4040790000000  0.5269970000000  0.4968830000000 1.0
C      1  0.4355930000000  0.5335200000000  0.4589740000000 1.0
C      1  0.5641880000000  0.5329800000000  0.5401770000000 1.0
C      1  0.5388890000000  0.5424670000000  0.5527580000000 1.0
C      1  0.4609790000000  0.5429810000000  0.4463760000000 1.0
C      1  0.4539620000000  0.5235940000000  0.5703410000000 1.0
C      1  0.5462780000000  0.5226220000000  0.4331150000000 1.0
C      1  0.5673370000000  0.5042320000000  0.5447900000000 1.0
C      1  0.4322760000000  0.5050050000000  0.4534820000000 1.0
C      1  0.4442050000000  0.4428010000000  0.4642780000000 1.0
C      1  0.5543540000000  0.4426030000000  0.5349600000000 1.0
C      1  0.4768340000000  0.5667070000000  0.4583810000000 1.0
C      1  0.5228150000000  0.5661910000000  0.5413800000000 1.0
C      1  0.5356560000000  0.4448400000000  0.5579520000000 1.0
C      1  0.4622040000000  0.4434610000000  0.4411860000000 1.0
C      1  0.4877100000000  0.4766800000000  0.4957540000000 1.0
C      1  0.5165470000000  0.4742910000000  0.5025880000000 1.0
C      1  0.5828180000000  0.5450240000000  0.5214560000000 1.0
C      1  0.4172670000000  0.5448460000000  0.4785080000000 1.0
C      1  0.5593700000000  0.4772120000000  0.4587680000000 1.0
C      1  0.4428840000000  0.4792880000000  0.5429730000000 1.0
C      1  0.5429340000000  0.4687860000000  0.5765340000000 1.0
C      1  0.4586620000000  0.4686710000000  0.4240310000000 1.0
C      1  0.4711490000000  0.5195710000000  0.4294700000000 1.0
C      1  0.5290300000000  0.5193770000000  0.5699860000000 1.0
C      1  0.5113660000000  0.4220010000000  0.4778450000000 1.0
C      1  0.4929320000000  0.4229310000000  0.5181520000000 1.0
C      1  0.4939070000000  0.5011370000000  0.5418060000000 1.0
C      1  0.5028990000000  0.5021540000000  0.4574900000000 1.0
C      1  0.4496930000000  0.4256310000000  0.4893990000000 1.0
C      1  0.5452010000000  0.4239750000000  0.5127640000000 1.0
END
