TITL C-3578208-4450-83 -5.98825292232818e-06 125000 -1158.65070930988 0 0 183 (C1) n - 1
REM
REM in /home/bkarasulu/work/CARBON/AIRSS/Generating-Clusters/EDIP-Nigel-Params/with-SteepDescent/Higher-Symm/SD-CG/HFTN-CG
REM
REM
REM
REM
REM
REM ./C.cell (12c818d87b63d06a65506943cc24bca4)
REM
REM compiler GCC version 9.2.1 20190827 (Red Hat 9.2.1-1)
REM options -cpp -mtune=generic -march=x86-64 -g -O0 -fpre-include=/usr/include/finclude/math-vector-fortran.h
REM seed 1201899550 -673064156 -1092645195 251899874 -1816518141 -1797792555 1143682861 225171078 363063416 590320726 84668672 1858907524 181752814 -1483588654 -656928082 292599752 -2078359381 1332045648 697315240 128325740 241047482 277526820 697975120 1827210527 -252294010 88142317 1215712733 1501059567 -725589837 -1549029950 2051365573 2132810613 -519803105
REM
CELL 1.54180   50.00000   50.00000   50.00000   90.00000   90.00000   90.00000
LATT -1
SFAC C  
C      1  0.5490550000000  0.4253820000000  0.4397600000000 1.0
C      1  0.5593630000000  0.4245970000000  0.5488410000000 1.0
C      1  0.4515570000000  0.4245340000000  0.5569510000000 1.0
C      1  0.4427840000000  0.4253240000000  0.4483690000000 1.0
C      1  0.5516940000000  0.5713680000000  0.4498030000000 1.0
C      1  0.5577970000000  0.5830990000000  0.5509260000000 1.0
C      1  0.4487700000000  0.5833360000000  0.5574390000000 1.0
C      1  0.4427710000000  0.5813890000000  0.4499790000000 1.0
C      1  0.5023220000000  0.4122100000000  0.4468910000000 1.0
C      1  0.5519210000000  0.4125580000000  0.5020650000000 1.0
C      1  0.4975480000000  0.4148540000000  0.5491570000000 1.0
C      1  0.4490020000000  0.4096120000000  0.4947000000000 1.0
C      1  0.5065870000000  0.5868870000000  0.4528210000000 1.0
C      1  0.5519060000000  0.5955370000000  0.5046280000000 1.0
C      1  0.4951820000000  0.5947740000000  0.5486490000000 1.0
C      1  0.4484030000000  0.5970770000000  0.4951850000000 1.0
C      1  0.5263820000000  0.4302570000000  0.5867680000000 1.0
C      1  0.4146680000000  0.4299450000000  0.5246030000000 1.0
C      1  0.4727400000000  0.4271730000000  0.4083310000000 1.0
C      1  0.5856730000000  0.4321240000000  0.4730920000000 1.0
C      1  0.5222090000000  0.5686040000000  0.5795000000000 1.0
C      1  0.4185290000000  0.5690230000000  0.5229020000000 1.0
C      1  0.4782470000000  0.5634600000000  0.4213750000000 1.0
C      1  0.5859770000000  0.5700930000000  0.4807200000000 1.0
C      1  0.6117640000000  0.4860810000000  0.4576080000000 1.0
C      1  0.5446250000000  0.4845680000000  0.6076350000000 1.0
C      1  0.3916060000000  0.4833270000000  0.5441030000000 1.0
C      1  0.4531570000000  0.4821960000000  0.3915580000000 1.0
C      1  0.6125530000000  0.5150870000000  0.4589210000000 1.0
C      1  0.5443930000000  0.5135120000000  0.6065020000000 1.0
C      1  0.3918280000000  0.5125270000000  0.5445440000000 1.0
C      1  0.4530620000000  0.5107960000000  0.3945870000000 1.0
C      1  0.5871210000000  0.4529870000000  0.4271180000000 1.0
C      1  0.5736580000000  0.4502550000000  0.5869500000000 1.0
C      1  0.4143130000000  0.4505100000000  0.5718030000000 1.0
C      1  0.4283630000000  0.4520250000000  0.4126790000000 1.0
C      1  0.5897380000000  0.5453410000000  0.4358040000000 1.0
C      1  0.5706200000000  0.5534820000000  0.5871870000000 1.0
C      1  0.4139700000000  0.5518110000000  0.5709480000000 1.0
C      1  0.4287460000000  0.5510610000000  0.4157180000000 1.0
C      1  0.4820750000000  0.5519240000000  0.5738390000000 1.0
C      1  0.4238300000000  0.5526800000000  0.4826520000000 1.0
C      1  0.5202580000000  0.5393100000000  0.4297580000000 1.0
C      1  0.5774400000000  0.5524520000000  0.5196100000000 1.0
C      1  0.4842560000000  0.4562830000000  0.5737110000000 1.0
C      1  0.4253590000000  0.4554320000000  0.4821370000000 1.0
C      1  0.5137230000000  0.4535780000000  0.4226580000000 1.0
C      1  0.5750280000000  0.4573860000000  0.5165420000000 1.0
C      1  0.5446860000000  0.5560500000000  0.4270850000000 1.0
C      1  0.5831670000000  0.5701120000000  0.5433680000000 1.0
C      1  0.4582940000000  0.5690860000000  0.5814170000000 1.0
C      1  0.4170890000000  0.5698730000000  0.4586360000000 1.0
C      1  0.5409240000000  0.4405270000000  0.4157540000000 1.0
C      1  0.5824350000000  0.4403140000000  0.5405040000000 1.0
C      1  0.4599810000000  0.4397760000000  0.5805580000000 1.0
C      1  0.4194380000000  0.4398830000000  0.4574450000000 1.0
C      1  0.5635020000000  0.4600090000000  0.4104620000000 1.0
C      1  0.5916170000000  0.4554850000000  0.5640370000000 1.0
C      1  0.4370160000000  0.4553880000000  0.5900910000000 1.0
C      1  0.4104850000000  0.4565940000000  0.4355540000000 1.0
C      1  0.5674420000000  0.5414390000000  0.4174760000000 1.0
C      1  0.5916020000000  0.5521650000000  0.5660960000000 1.0
C      1  0.4362800000000  0.5507860000000  0.5906540000000 1.0
C      1  0.4076070000000  0.5515160000000  0.4367060000000 1.0
C      1  0.6091430000000  0.5246340000000  0.4861200000000 1.0
C      1  0.5174690000000  0.5232250000000  0.6025190000000 1.0
C      1  0.3944840000000  0.5230500000000  0.5176300000000 1.0
C      1  0.4794170000000  0.5211290000000  0.3986400000000 1.0
C      1  0.6134920000000  0.4702780000000  0.4823900000000 1.0
C      1  0.5192910000000  0.4700660000000  0.6112660000000 1.0
C      1  0.3877060000000  0.4685440000000  0.5187780000000 1.0
C      1  0.4790980000000  0.4694110000000  0.3872310000000 1.0
C      1  0.5280150000000  0.4895930000000  0.3945320000000 1.0
C      1  0.6119230000000  0.4882270000000  0.5327700000000 1.0
C      1  0.4701400000000  0.4884210000000  0.6093440000000 1.0
C      1  0.3885440000000  0.4877180000000  0.4697790000000 1.0
C      1  0.5286820000000  0.5193450000000  0.3974190000000 1.0
C      1  0.6104350000000  0.5170910000000  0.5325240000000 1.0
C      1  0.4719660000000  0.5170420000000  0.6073960000000 1.0
C      1  0.3897770000000  0.5164240000000  0.4717590000000 1.0
C      1  0.5012170000000  0.5476750000000  0.5228410000000 1.0
C      1  0.4744320000000  0.5481200000000  0.5018980000000 1.0
C      1  0.4989220000000  0.5442450000000  0.4794120000000 1.0
C      1  0.5260200000000  0.5474680000000  0.4995840000000 1.0
C      1  0.5012010000000  0.4462170000000  0.5192240000000 1.0
C      1  0.4733330000000  0.4452980000000  0.5027820000000 1.0
C      1  0.4971850000000  0.4397330000000  0.4809800000000 1.0
C      1  0.5263840000000  0.4464820000000  0.4972310000000 1.0
C      1  0.5599170000000  0.5681550000000  0.4977460000000 1.0
C      1  0.5029460000000  0.5677640000000  0.5563400000000 1.0
C      1  0.4414310000000  0.5692580000000  0.5032070000000 1.0
C      1  0.4985320000000  0.5594580000000  0.4432500000000 1.0
C      1  0.5651700000000  0.4378470000000  0.4937480000000 1.0
C      1  0.5060080000000  0.4362770000000  0.5666880000000 1.0
C      1  0.4355040000000  0.4349700000000  0.5034910000000 1.0
C      1  0.4931690000000  0.4324920000000  0.4285680000000 1.0
C      1  0.5028130000000  0.4773860000000  0.4047850000000 1.0
C      1  0.5981800000000  0.4785350000000  0.5072700000000 1.0
C      1  0.4945560000000  0.4777330000000  0.5954230000000 1.0
C      1  0.4027440000000  0.4770730000000  0.4940190000000 1.0
C      1  0.4961870000000  0.5060970000000  0.4183070000000 1.0
C      1  0.5891320000000  0.5085520000000  0.5012330000000 1.0
C      1  0.5015660000000  0.5062020000000  0.5838750000000 1.0
C      1  0.4132020000000  0.5062570000000  0.5015330000000 1.0
C      1  0.4996640000000  0.4759940000000  0.5281600000000 1.0
C      1  0.4641530000000  0.4734310000000  0.4997990000000 1.0
C      1  0.4971280000000  0.4680370000000  0.4678130000000 1.0
C      1  0.5342480000000  0.4776480000000  0.4962120000000 1.0
C      1  0.4959490000000  0.5217990000000  0.5381160000000 1.0
C      1  0.4592600000000  0.5222380000000  0.4966810000000 1.0
C      1  0.5009480000000  0.5142290000000  0.4685680000000 1.0
C      1  0.5422070000000  0.5226250000000  0.5051300000000 1.0
C      1  0.4825070000000  0.5485940000000  0.3985990000000 1.0
C      1  0.6055490000000  0.5523850000000  0.4927860000000 1.0
C      1  0.5112380000000  0.5510740000000  0.5994550000000 1.0
C      1  0.3985650000000  0.5511240000000  0.5121580000000 1.0
C      1  0.4765330000000  0.4418890000000  0.3846690000000 1.0
C      1  0.6107670000000  0.4432330000000  0.4776780000000 1.0
C      1  0.5225340000000  0.4426470000000  0.6115810000000 1.0
C      1  0.3893360000000  0.4410260000000  0.5209290000000 1.0
C      1  0.4508840000000  0.5643850000000  0.4289030000000 1.0
C      1  0.5795400000000  0.5663780000000  0.4530210000000 1.0
C      1  0.5495060000000  0.5661870000000  0.5722760000000 1.0
C      1  0.4269650000000  0.5664350000000  0.5498560000000 1.0
C      1  0.4457210000000  0.4294640000000  0.4197260000000 1.0
C      1  0.5742080000000  0.4370120000000  0.4473810000000 1.0
C      1  0.5529570000000  0.4332950000000  0.5756510000000 1.0
C      1  0.4252900000000  0.4337570000000  0.5508710000000 1.0
C      1  0.5148700000000  0.5073460000000  0.5556320000000 1.0
C      1  0.4412750000000  0.5079600000000  0.5155040000000 1.0
C      1  0.4815540000000  0.5043820000000  0.4464000000000 1.0
C      1  0.5621130000000  0.5110300000000  0.4866910000000 1.0
C      1  0.5241810000000  0.4818800000000  0.5441210000000 1.0
C      1  0.4520100000000  0.4817400000000  0.5242510000000 1.0
C      1  0.4714700000000  0.4772130000000  0.4542310000000 1.0
C      1  0.5531350000000  0.4864800000000  0.4732950000000 1.0
C      1  0.5240710000000  0.5166070000000  0.4501530000000 1.0
C      1  0.5601230000000  0.5285000000000  0.5274770000000 1.0
C      1  0.4742900000000  0.5277050000000  0.5569900000000 1.0
C      1  0.4405470000000  0.5281330000000  0.4750530000000 1.0
C      1  0.5185510000000  0.4682670000000  0.4476530000000 1.0
C      1  0.5497870000000  0.4807500000000  0.5270410000000 1.0
C      1  0.4726920000000  0.4789750000000  0.5470840000000 1.0
C      1  0.4483230000000  0.4774880000000  0.4740090000000 1.0
C      1  0.5396040000000  0.5918350000000  0.5294660000000 1.0
C      1  0.4690850000000  0.5926550000000  0.5382960000000 1.0
C      1  0.4608880000000  0.5918780000000  0.4702350000000 1.0
C      1  0.5331470000000  0.5904250000000  0.4615470000000 1.0
C      1  0.5409210000000  0.4176700000000  0.5276850000000 1.0
C      1  0.4720520000000  0.4182620000000  0.5375070000000 1.0
C      1  0.4576290000000  0.4088330000000  0.4672470000000 1.0
C      1  0.5278280000000  0.4172420000000  0.4581990000000 1.0
C      1  0.4465980000000  0.5243880000000  0.5963040000000 1.0
C      1  0.4012630000000  0.5254270000000  0.4472440000000 1.0
C      1  0.5585060000000  0.5208920000000  0.4000820000000 1.0
C      1  0.5973340000000  0.5254320000000  0.5565690000000 1.0
C      1  0.4449160000000  0.4820140000000  0.5967240000000 1.0
C      1  0.4015150000000  0.4819800000000  0.4446120000000 1.0
C      1  0.5513000000000  0.4872750000000  0.4162160000000 1.0
C      1  0.5983560000000  0.4822070000000  0.5572480000000 1.0
C      1  0.5295410000000  0.4045280000000  0.4843110000000 1.0
C      1  0.5152350000000  0.4054830000000  0.5285960000000 1.0
C      1  0.4709950000000  0.4025320000000  0.5129220000000 1.0
C      1  0.4852130000000  0.4012390000000  0.4666370000000 1.0
C      1  0.5332510000000  0.6059540000000  0.4858470000000 1.0
C      1  0.5132720000000  0.6044110000000  0.5281880000000 1.0
C      1  0.4684860000000  0.6082140000000  0.5135430000000 1.0
C      1  0.4885830000000  0.5998780000000  0.4713570000000 1.0
C      1  0.6149890000000  0.5331100000000  0.4373800000000 1.0
C      1  0.5656930000000  0.5313420000000  0.6037680000000 1.0
C      1  0.3970940000000  0.5298410000000  0.5659240000000 1.0
C      1  0.4319410000000  0.5285630000000  0.3990680000000 1.0
C      1  0.6066560000000  0.4721670000000  0.4339150000000 1.0
C      1  0.5681820000000  0.4694960000000  0.6068590000000 1.0
C      1  0.3929520000000  0.4684080000000  0.5677080000000 1.0
C      1  0.4296330000000  0.4669940000000  0.3887970000000 1.0
C      1  0.5704510000000  0.5025730000000  0.5396260000000 1.0
C      1  0.4294210000000  0.5026560000000  0.4621600000000 1.0
C      1  0.4621720000000  0.5020130000000  0.5680520000000 1.0
C      1  0.5384320000000  0.4901820000000  0.4466530000000 1.0
C      1  0.5016530000000  0.4002400000000  0.5010820000000 1.0
C      1  0.4976090000000  0.6105030000000  0.5000000000000 1.0
C      1  0.5045200000000  0.4889900000000  0.4914080000000 1.0
END
