TITL C-3577090-796-87 -3.5227564831124e-06 125000 -635.357249075 0 0 100 (C1) n - 1
REM
REM in /home/bkarasulu/work/CARBON/AIRSS/Generating-Clusters/EDIP-Nigel-Params/with-SteepDescent/Higher-Symm/SD-CG/HFTN-CG
REM
REM
REM
REM
REM
REM ./C.cell (12c818d87b63d06a65506943cc24bca4)
REM
REM compiler GCC version 9.2.1 20190827 (Red Hat 9.2.1-1)
REM options -cpp -mtune=generic -march=x86-64 -g -O0 -fpre-include=/usr/include/finclude/math-vector-fortran.h
REM seed 283503333 1706994295 1827334958 302510663 -517224393 503741821 2050890480 -1132260777 607610576 -1840616556 465906282 1379795530 -837107152 -1269422621 1367686894 340084159 -1755621981 -1480290256 791202699 -1710554537 -1398788840 1550847525 -1187986405 113532600 1177020808 2008200424 -483159352 1049188650 -1585100598 1638254040 2073089223 -1240476075 1949324745
REM
CELL 1.54180   50.00000   50.00000   50.00000   90.00000   90.00000   90.00000
LATT -1
SFAC C  
C      1  0.4369120000000  0.5028170000000  0.4500810000000 1.0
C      1  0.4975470000000  0.5008390000000  0.4189140000000 1.0
C      1  0.5527920000000  0.5039960000000  0.4614910000000 1.0
C      1  0.5844580000000  0.5042680000000  0.5167660000000 1.0
C      1  0.5393330000000  0.5004980000000  0.5760910000000 1.0
C      1  0.4684240000000  0.5034950000000  0.5722300000000 1.0
C      1  0.4227360000000  0.5046310000000  0.5176750000000 1.0
C      1  0.5720500000000  0.5305450000000  0.5537380000000 1.0
C      1  0.5037810000000  0.5309330000000  0.5874400000000 1.0
C      1  0.4386720000000  0.5331030000000  0.5508790000000 1.0
C      1  0.4164070000000  0.5327560000000  0.4806100000000 1.0
C      1  0.4601700000000  0.5312800000000  0.4206990000000 1.0
C      1  0.5349720000000  0.5292670000000  0.4255480000000 1.0
C      1  0.5809840000000  0.5328100000000  0.4802910000000 1.0
C      1  0.4889760000000  0.4839580000000  0.5633010000000 1.0
C      1  0.4444460000000  0.4877500000000  0.5303570000000 1.0
C      1  0.4403400000000  0.4836470000000  0.4734110000000 1.0
C      1  0.4791570000000  0.4845360000000  0.4367040000000 1.0
C      1  0.5341560000000  0.4845420000000  0.4499200000000 1.0
C      1  0.5822110000000  0.4830270000000  0.4956720000000 1.0
C      1  0.5497910000000  0.4854930000000  0.5510810000000 1.0
C      1  0.5077360000000  0.3839660000000  0.4739490000000 1.0
C      1  0.5322820000000  0.3941620000000  0.4834450000000 1.0
C      1  0.5331640000000  0.3961770000000  0.5144300000000 1.0
C      1  0.5099060000000  0.3863930000000  0.5268280000000 1.0
C      1  0.4833320000000  0.3951110000000  0.5249450000000 1.0
C      1  0.4709670000000  0.3846050000000  0.5018670000000 1.0
C      1  0.4810800000000  0.3925510000000  0.4767660000000 1.0
C      1  0.4669120000000  0.5806010000000  0.4984060000000 1.0
C      1  0.4789310000000  0.5800720000000  0.4717480000000 1.0
C      1  0.5078390000000  0.5794750000000  0.4668550000000 1.0
C      1  0.5310300000000  0.5817390000000  0.4859820000000 1.0
C      1  0.5322050000000  0.5797540000000  0.5155570000000 1.0
C      1  0.5094250000000  0.5789050000000  0.5334450000000 1.0
C      1  0.4810600000000  0.5791430000000  0.5247750000000 1.0
C      1  0.5079650000000  0.4381090000000  0.5257970000000 1.0
C      1  0.4810320000000  0.4255640000000  0.5248840000000 1.0
C      1  0.4682210000000  0.4327970000000  0.4996340000000 1.0
C      1  0.4784360000000  0.4229590000000  0.4737850000000 1.0
C      1  0.5057890000000  0.4337650000000  0.4685020000000 1.0
C      1  0.5314390000000  0.4261040000000  0.4815320000000 1.0
C      1  0.5321690000000  0.4273770000000  0.5129930000000 1.0
C      1  0.5325170000000  0.4860320000000  0.4992050000000 1.0
C      1  0.5198570000000  0.4803150000000  0.5263360000000 1.0
C      1  0.4939270000000  0.4938530000000  0.5341670000000 1.0
C      1  0.4690260000000  0.4961090000000  0.5135010000000 1.0
C      1  0.4679390000000  0.4853720000000  0.4855870000000 1.0
C      1  0.4881920000000  0.4936910000000  0.4652620000000 1.0
C      1  0.5151560000000  0.4835490000000  0.4729390000000 1.0
C      1  0.4370400000000  0.5318250000000  0.5203700000000 1.0
C      1  0.4398320000000  0.5304510000000  0.4613560000000 1.0
C      1  0.4893100000000  0.5285030000000  0.4293190000000 1.0
C      1  0.5421400000000  0.5308000000000  0.4549020000000 1.0
C      1  0.5688330000000  0.5279780000000  0.5079920000000 1.0
C      1  0.5430660000000  0.5281760000000  0.5634300000000 1.0
C      1  0.4823530000000  0.5297370000000  0.5661690000000 1.0
C      1  0.4646070000000  0.5731110000000  0.5464070000000 1.0
C      1  0.4395230000000  0.5740400000000  0.4981120000000 1.0
C      1  0.4622560000000  0.5716300000000  0.4501800000000 1.0
C      1  0.5139380000000  0.5699050000000  0.4409280000000 1.0
C      1  0.5552770000000  0.5744000000000  0.4740140000000 1.0
C      1  0.5563260000000  0.5712900000000  0.5273180000000 1.0
C      1  0.5154250000000  0.5698270000000  0.5596590000000 1.0
C      1  0.5440030000000  0.4569000000000  0.4471130000000 1.0
C      1  0.5568470000000  0.4655700000000  0.4973460000000 1.0
C      1  0.5465050000000  0.4555610000000  0.5490440000000 1.0
C      1  0.4805740000000  0.4553120000000  0.5653140000000 1.0
C      1  0.4426960000000  0.4571140000000  0.5297640000000 1.0
C      1  0.4378570000000  0.4540040000000  0.4660300000000 1.0
C      1  0.4808620000000  0.4542520000000  0.4352430000000 1.0
C      1  0.4639530000000  0.4412970000000  0.5453490000000 1.0
C      1  0.4432360000000  0.4466110000000  0.5019550000000 1.0
C      1  0.4608570000000  0.4386210000000  0.4527440000000 1.0
C      1  0.5082670000000  0.4458380000000  0.4427210000000 1.0
C      1  0.5529770000000  0.4460330000000  0.4728200000000 1.0
C      1  0.5551650000000  0.4456070000000  0.5216990000000 1.0
C      1  0.5157980000000  0.4506470000000  0.5508360000000 1.0
C      1  0.4438200000000  0.5036740000000  0.5570310000000 1.0
C      1  0.4169380000000  0.5024600000000  0.4895800000000 1.0
C      1  0.4539550000000  0.5006760000000  0.4273160000000 1.0
C      1  0.5261560000000  0.4997180000000  0.4236460000000 1.0
C      1  0.5796920000000  0.5027650000000  0.4723960000000 1.0
C      1  0.5765270000000  0.5003630000000  0.5450460000000 1.0
C      1  0.5111210000000  0.5003670000000  0.5846380000000 1.0
C      1  0.4600630000000  0.5502490000000  0.5618150000000 1.0
C      1  0.4226620000000  0.5520470000000  0.5034660000000 1.0
C      1  0.4459610000000  0.5505630000000  0.4394920000000 1.0
C      1  0.5117580000000  0.5482370000000  0.4227220000000 1.0
C      1  0.5639290000000  0.5500740000000  0.4629000000000 1.0
C      1  0.5733670000000  0.5488050000000  0.5292860000000 1.0
C      1  0.5252870000000  0.5493890000000  0.5770400000000 1.0
C      1  0.5151260000000  0.5359950000000  0.4695970000000 1.0
C      1  0.5383300000000  0.5177430000000  0.5101140000000 1.0
C      1  0.5283030000000  0.5219380000000  0.5387470000000 1.0
C      1  0.4990560000000  0.5229770000000  0.5396500000000 1.0
C      1  0.4654500000000  0.5259160000000  0.5063160000000 1.0
C      1  0.4651910000000  0.5318750000000  0.4766390000000 1.0
C      1  0.4893360000000  0.5240060000000  0.4604200000000 1.0
C      1  0.5157920000000  0.5333130000000  0.4978600000000 1.0
C      1  0.4913090000000  0.5371360000000  0.5154300000000 1.0
END
