TITL C-3578200-9634-752 3.38334189342214e-06 125000 -193.168517084491 0 0 32 (C1) n - 1
REM
REM in /home/bkarasulu/work/CARBON/AIRSS/Generating-Clusters/EDIP-Nigel-Params/with-SteepDescent/Higher-Symm/SD-CG/HFTN-CG
REM
REM
REM
REM
REM
REM ./C.cell (12c818d87b63d06a65506943cc24bca4)
REM
REM compiler GCC version 9.2.1 20190827 (Red Hat 9.2.1-1)
REM options -cpp -mtune=generic -march=x86-64 -g -O0 -fpre-include=/usr/include/finclude/math-vector-fortran.h
REM seed -1938776500 -1457662848 -272932566 -37747400 -1839785272 606395096 925509078 1217979956 1922932547 88286100 -1965229697 -256076725 482207438 -1607896606 -42307407 -1285024839 -1340915285 -1995828522 1338908344 -1477088835 -1994081766 380910238 123931432 98569188 1319759798 -2123382746 -1307059325 -1787174769 1207673027 -127702947 -131477233 391492804 -79071165
REM
CELL 1.54180   50.00000   50.00000   50.00000   90.00000   90.00000   90.00000
LATT -1
SFAC C  
C      1  0.4803430000000  0.5362070000000  0.4487370000000 1.0
C      1  0.4598290000000  0.4938680000000  0.4480340000000 1.0
C      1  0.4969160000000  0.4633410000000  0.4492390000000 1.0
C      1  0.5419570000000  0.4801920000000  0.4491550000000 1.0
C      1  0.5270420000000  0.5258540000000  0.4476950000000 1.0
C      1  0.5144710000000  0.4697120000000  0.5473050000000 1.0
C      1  0.5432700000000  0.5066760000000  0.5405730000000 1.0
C      1  0.5072650000000  0.5374600000000  0.5438760000000 1.0
C      1  0.4746200000000  0.5074750000000  0.5433330000000 1.0
C      1  0.4658890000000  0.4622310000000  0.5403320000000 1.0
C      1  0.5210160000000  0.4645490000000  0.4912550000000 1.0
C      1  0.5371970000000  0.5054330000000  0.4895660000000 1.0
C      1  0.5062460000000  0.5398130000000  0.4888910000000 1.0
C      1  0.4647780000000  0.5173530000000  0.4905700000000 1.0
C      1  0.4739460000000  0.4747090000000  0.4891560000000 1.0
C      1  0.5431570000000  0.4721390000000  0.5080580000000 1.0
C      1  0.5323150000000  0.5320100000000  0.5019630000000 1.0
C      1  0.4795500000000  0.5413970000000  0.5028060000000 1.0
C      1  0.4524190000000  0.4912420000000  0.5042680000000 1.0
C      1  0.4952300000000  0.4589790000000  0.5030800000000 1.0
C      1  0.4927360000000  0.4584000000000  0.5320730000000 1.0
C      1  0.5392110000000  0.4792680000000  0.5357930000000 1.0
C      1  0.5329940000000  0.5314280000000  0.5316370000000 1.0
C      1  0.4818540000000  0.5427400000000  0.5314180000000 1.0
C      1  0.4553120000000  0.4879330000000  0.5339390000000 1.0
C      1  0.4728500000000  0.4723750000000  0.4597880000000 1.0
C      1  0.5215940000000  0.4658770000000  0.4620330000000 1.0
C      1  0.5412930000000  0.5057150000000  0.4605550000000 1.0
C      1  0.5057980000000  0.5395360000000  0.4592550000000 1.0
C      1  0.4625340000000  0.5185300000000  0.4606880000000 1.0
C      1  0.4997570000000  0.5025510000000  0.4991350000000 1.0
C      1  0.5016230000000  0.5017590000000  0.5308680000000 1.0
END
