TITL C-3578201-9217-754 -5.84504235618828e-06 125000 -1172.38858485149 0 0 188 (C1) n - 1
REM
REM in /home/bkarasulu/work/CARBON/AIRSS/Generating-Clusters/EDIP-Nigel-Params/with-SteepDescent/Higher-Symm/SD-CG/HFTN-CG
REM
REM
REM
REM
REM
REM ./C.cell (12c818d87b63d06a65506943cc24bca4)
REM
REM compiler GCC version 9.2.1 20190827 (Red Hat 9.2.1-1)
REM options -cpp -mtune=generic -march=x86-64 -g -O0 -fpre-include=/usr/include/finclude/math-vector-fortran.h
REM seed -670589236 1137475000 1239181766 -32769292 -513904963 -65665952 1882689871 175702393 -407382791 1653666106 1733098998 1479994131 -1902686520 688401336 2044325316 1834976826 -1475200816 1985157911 -1843605189 -1120830832 -613641630 1389161678 -51472531 1899358352 13619789 928150789 -644504840 328038960 1850145960 -49743915 -631362204 -377055344 -1688896147
REM
CELL 1.54180   50.00000   50.00000   50.00000   90.00000   90.00000   90.00000
LATT -1
SFAC C  
C      1  0.5550740000000  0.5763450000000  0.4157620000000 1.0
C      1  0.5665420000000  0.4369150000000  0.4107520000000 1.0
C      1  0.5547850000000  0.3923690000000  0.5276750000000 1.0
C      1  0.5552510000000  0.4903050000000  0.6083390000000 1.0
C      1  0.5566380000000  0.6022420000000  0.5440030000000 1.0
C      1  0.5262660000000  0.5240690000000  0.4862120000000 1.0
C      1  0.5277420000000  0.4960520000000  0.4759140000000 1.0
C      1  0.5217880000000  0.4782640000000  0.5002640000000 1.0
C      1  0.5093300000000  0.4959460000000  0.5210790000000 1.0
C      1  0.5220160000000  0.5216250000000  0.5162810000000 1.0
C      1  0.5358040000000  0.4416780000000  0.4633860000000 1.0
C      1  0.5308830000000  0.4487770000000  0.5345880000000 1.0
C      1  0.5326260000000  0.5212550000000  0.5622760000000 1.0
C      1  0.5302120000000  0.5689590000000  0.5026710000000 1.0
C      1  0.5353670000000  0.5228080000000  0.4337340000000 1.0
C      1  0.5517210000000  0.5374300000000  0.4803260000000 1.0
C      1  0.5555980000000  0.4905770000000  0.4641540000000 1.0
C      1  0.5573270000000  0.4587140000000  0.4945160000000 1.0
C      1  0.5497290000000  0.4755480000000  0.5341580000000 1.0
C      1  0.5534360000000  0.5182150000000  0.5239160000000 1.0
C      1  0.4237510000000  0.4905280000000  0.4184500000000 1.0
C      1  0.4252420000000  0.4159800000000  0.4781230000000 1.0
C      1  0.4245680000000  0.4549670000000  0.5729190000000 1.0
C      1  0.4253660000000  0.5597990000000  0.5714550000000 1.0
C      1  0.4265460000000  0.5761990000000  0.4707370000000 1.0
C      1  0.4440230000000  0.5818790000000  0.5803290000000 1.0
C      1  0.4406830000000  0.5887750000000  0.4484320000000 1.0
C      1  0.4434760000000  0.4756370000000  0.4026960000000 1.0
C      1  0.4455120000000  0.3955830000000  0.4816630000000 1.0
C      1  0.4446400000000  0.4540510000000  0.5940810000000 1.0
C      1  0.5671320000000  0.4573500000000  0.5813300000000 1.0
C      1  0.5715070000000  0.5647390000000  0.5657230000000 1.0
C      1  0.5687420000000  0.5851130000000  0.4597180000000 1.0
C      1  0.5598440000000  0.4852250000000  0.4065530000000 1.0
C      1  0.5686830000000  0.4057830000000  0.4866780000000 1.0
C      1  0.5093180000000  0.5942970000000  0.5674810000000 1.0
C      1  0.5041750000000  0.5866540000000  0.4344890000000 1.0
C      1  0.5070670000000  0.4602320000000  0.3925620000000 1.0
C      1  0.5042620000000  0.3871680000000  0.5005870000000 1.0
C      1  0.5045870000000  0.4680560000000  0.6079090000000 1.0
C      1  0.4891000000000  0.4483510000000  0.5664810000000 1.0
C      1  0.4934980000000  0.5518010000000  0.5765210000000 1.0
C      1  0.4876820000000  0.5848860000000  0.4782520000000 1.0
C      1  0.4931120000000  0.5026330000000  0.4108130000000 1.0
C      1  0.4898240000000  0.4204650000000  0.4654090000000 1.0
C      1  0.4804340000000  0.4983400000000  0.4677460000000 1.0
C      1  0.4756900000000  0.4765560000000  0.4893450000000 1.0
C      1  0.4663770000000  0.4881140000000  0.5155750000000 1.0
C      1  0.4759790000000  0.5411140000000  0.5214010000000 1.0
C      1  0.4821400000000  0.5243280000000  0.4780850000000 1.0
C      1  0.5039780000000  0.4579740000000  0.5430970000000 1.0
C      1  0.5063530000000  0.5329760000000  0.5568170000000 1.0
C      1  0.5040530000000  0.5634250000000  0.4901750000000 1.0
C      1  0.5087510000000  0.5128190000000  0.4349120000000 1.0
C      1  0.5065160000000  0.4465020000000  0.4654410000000 1.0
C      1  0.4612630000000  0.5317000000000  0.5458340000000 1.0
C      1  0.4620170000000  0.5350250000000  0.4955160000000 1.0
C      1  0.4617400000000  0.5008280000000  0.4447210000000 1.0
C      1  0.4571510000000  0.4562310000000  0.4807060000000 1.0
C      1  0.4541050000000  0.4679520000000  0.5339610000000 1.0
C      1  0.4282590000000  0.5036150000000  0.4633780000000 1.0
C      1  0.4289450000000  0.4613860000000  0.4875010000000 1.0
C      1  0.4228420000000  0.4738580000000  0.5313450000000 1.0
C      1  0.4313140000000  0.5256590000000  0.5385050000000 1.0
C      1  0.4056460000000  0.5425820000000  0.4939500000000 1.0
C      1  0.5326310000000  0.4359280000000  0.5061880000000 1.0
C      1  0.5365780000000  0.4906660000000  0.5595630000000 1.0
C      1  0.5460460000000  0.5570640000000  0.5262160000000 1.0
C      1  0.5467680000000  0.5441160000000  0.4518940000000 1.0
C      1  0.5545260000000  0.4627910000000  0.4502250000000 1.0
C      1  0.5988570000000  0.5107360000000  0.5213850000000 1.0
C      1  0.5959640000000  0.5221770000000  0.4946320000000 1.0
C      1  0.5968920000000  0.5011950000000  0.4744210000000 1.0
C      1  0.6012040000000  0.4749060000000  0.4888200000000 1.0
C      1  0.5997470000000  0.4811940000000  0.5179700000000 1.0
C      1  0.4739000000000  0.5231690000000  0.4015080000000 1.0
C      1  0.4756230000000  0.4163010000000  0.4393440000000 1.0
C      1  0.4748960000000  0.4233570000000  0.5619700000000 1.0
C      1  0.4786610000000  0.5395160000000  0.5991270000000 1.0
C      1  0.4750760000000  0.6044530000000  0.4970120000000 1.0
C      1  0.4104960000000  0.5510810000000  0.4669370000000 1.0
C      1  0.4231640000000  0.4803390000000  0.4458660000000 1.0
C      1  0.4238980000000  0.4355460000000  0.5015370000000 1.0
C      1  0.4216190000000  0.4819570000000  0.5602090000000 1.0
C      1  0.4237180000000  0.5543510000000  0.5406920000000 1.0
C      1  0.4955470000000  0.4123990000000  0.4204900000000 1.0
C      1  0.4910870000000  0.4009450000000  0.5620300000000 1.0
C      1  0.4962800000000  0.5291960000000  0.6178090000000 1.0
C      1  0.4929060000000  0.6217840000000  0.5095300000000 1.0
C      1  0.4884920000000  0.5438720000000  0.3902700000000 1.0
C      1  0.5457940000000  0.5749700000000  0.4434110000000 1.0
C      1  0.5503400000000  0.4602240000000  0.4195300000000 1.0
C      1  0.5444740000000  0.4052770000000  0.5032010000000 1.0
C      1  0.5426800000000  0.4739150000000  0.5869330000000 1.0
C      1  0.5468780000000  0.5759400000000  0.5527000000000 1.0
C      1  0.5789970000000  0.5470660000000  0.4899800000000 1.0
C      1  0.5794830000000  0.5087900000000  0.4474150000000 1.0
C      1  0.5848710000000  0.4502440000000  0.4822080000000 1.0
C      1  0.5793680000000  0.4651460000000  0.5352910000000 1.0
C      1  0.5800220000000  0.5218440000000  0.5417340000000 1.0
C      1  0.5705980000000  0.4239280000000  0.4357710000000 1.0
C      1  0.5617220000000  0.4151250000000  0.5425960000000 1.0
C      1  0.5639650000000  0.5121760000000  0.5926030000000 1.0
C      1  0.5634870000000  0.5960990000000  0.5171660000000 1.0
C      1  0.5640110000000  0.5499470000000  0.4114050000000 1.0
C      1  0.4865030000000  0.6094300000000  0.5757340000000 1.0
C      1  0.4804820000000  0.5957810000000  0.4217110000000 1.0
C      1  0.4801240000000  0.4503770000000  0.3942040000000 1.0
C      1  0.4809010000000  0.3716750000000  0.5044390000000 1.0
C      1  0.4808660000000  0.4670580000000  0.6234210000000 1.0
C      1  0.5410550000000  0.5598390000000  0.5880440000000 1.0
C      1  0.5359070000000  0.6007610000000  0.4715890000000 1.0
C      1  0.5391510000000  0.5028300000000  0.3941240000000 1.0
C      1  0.5372040000000  0.3971480000000  0.4656670000000 1.0
C      1  0.5357080000000  0.4357080000000  0.5824470000000 1.0
C      1  0.4601140000000  0.5216540000000  0.5835290000000 1.0
C      1  0.4557300000000  0.5912820000000  0.5142410000000 1.0
C      1  0.4571500000000  0.5271650000000  0.4269920000000 1.0
C      1  0.4524260000000  0.4342300000000  0.4336490000000 1.0
C      1  0.4567770000000  0.4302120000000  0.5394290000000 1.0
C      1  0.4299950000000  0.5306030000000  0.5835840000000 1.0
C      1  0.4305390000000  0.5820690000000  0.5004680000000 1.0
C      1  0.4261360000000  0.5213510000000  0.4229010000000 1.0
C      1  0.4264560000000  0.4316740000000  0.4513610000000 1.0
C      1  0.4265330000000  0.4341370000000  0.5502610000000 1.0
C      1  0.4102910000000  0.4451770000000  0.5262480000000 1.0
C      1  0.4194680000000  0.5115970000000  0.5624850000000 1.0
C      1  0.4131550000000  0.5630050000000  0.5143600000000 1.0
C      1  0.4087370000000  0.5249380000000  0.4508690000000 1.0
C      1  0.4115910000000  0.4586140000000  0.4615000000000 1.0
C      1  0.3876610000000  0.4743990000000  0.4769990000000 1.0
C      1  0.3901910000000  0.4725080000000  0.5070730000000 1.0
C      1  0.3932630000000  0.5001300000000  0.5157280000000 1.0
C      1  0.3877390000000  0.5194910000000  0.4953170000000 1.0
C      1  0.3850080000000  0.5039970000000  0.4702730000000 1.0
C      1  0.5770010000000  0.4348900000000  0.5265250000000 1.0
C      1  0.5784050000000  0.5036110000000  0.5674320000000 1.0
C      1  0.5754750000000  0.5652130000000  0.5172840000000 1.0
C      1  0.5764120000000  0.5409290000000  0.4413390000000 1.0
C      1  0.5810720000000  0.4477090000000  0.4521430000000 1.0
C      1  0.5859020000000  0.5518000000000  0.5441520000000 1.0
C      1  0.5863950000000  0.5618760000000  0.4640290000000 1.0
C      1  0.5810890000000  0.4963450000000  0.4213010000000 1.0
C      1  0.5861330000000  0.4256110000000  0.4992340000000 1.0
C      1  0.5829390000000  0.4737690000000  0.5637860000000 1.0
C      1  0.5076460000000  0.5993660000000  0.4602850000000 1.0
C      1  0.5111970000000  0.4900520000000  0.3901140000000 1.0
C      1  0.5080590000000  0.3961020000000  0.4730390000000 1.0
C      1  0.5084140000000  0.4457250000000  0.5900450000000 1.0
C      1  0.5137340000000  0.5721540000000  0.5855870000000 1.0
C      1  0.5383700000000  0.5324780000000  0.4063190000000 1.0
C      1  0.5413280000000  0.4187690000000  0.4450210000000 1.0
C      1  0.5358120000000  0.4253830000000  0.5533860000000 1.0
C      1  0.5389570000000  0.5286560000000  0.5891180000000 1.0
C      1  0.5362800000000  0.5968030000000  0.5025460000000 1.0
C      1  0.4654550000000  0.4686900000000  0.5650970000000 1.0
C      1  0.4677610000000  0.5589540000000  0.5607290000000 1.0
C      1  0.4645920000000  0.5636330000000  0.4697640000000 1.0
C      1  0.4746480000000  0.4819310000000  0.4239650000000 1.0
C      1  0.4668420000000  0.4274300000000  0.4844400000000 1.0
C      1  0.5125190000000  0.4065390000000  0.5453830000000 1.0
C      1  0.5151770000000  0.5149860000000  0.6030280000000 1.0
C      1  0.5130040000000  0.6059090000000  0.5201100000000 1.0
C      1  0.5101440000000  0.5478700000000  0.4076870000000 1.0
C      1  0.5212030000000  0.4229760000000  0.4216800000000 1.0
C      1  0.4600990000000  0.3901520000000  0.5064340000000 1.0
C      1  0.4589510000000  0.4754700000000  0.6080770000000 1.0
C      1  0.4610220000000  0.6020100000000  0.5655480000000 1.0
C      1  0.4588350000000  0.5793690000000  0.4286790000000 1.0
C      1  0.4541870000000  0.4481870000000  0.4064100000000 1.0
C      1  0.4710630000000  0.5849980000000  0.5417100000000 1.0
C      1  0.4701130000000  0.5544870000000  0.4402120000000 1.0
C      1  0.5021630000000  0.4642320000000  0.4410910000000 1.0
C      1  0.4719480000000  0.4169450000000  0.5137980000000 1.0
C      1  0.4711390000000  0.4920530000000  0.5859790000000 1.0
C      1  0.5064890000000  0.4924400000000  0.4548970000000 1.0
C      1  0.5004510000000  0.4612060000000  0.4905820000000 1.0
C      1  0.5077260000000  0.4862670000000  0.5500740000000 1.0
C      1  0.5042650000000  0.5466640000000  0.5306610000000 1.0
C      1  0.5048760000000  0.5407320000000  0.4717250000000 1.0
C      1  0.5205020000000  0.4527020000000  0.4178830000000 1.0
C      1  0.5037760000000  0.4123010000000  0.5170990000000 1.0
C      1  0.5026760000000  0.4910930000000  0.5883710000000 1.0
C      1  0.5029460000000  0.5843200000000  0.5393630000000 1.0
C      1  0.5014570000000  0.5561770000000  0.4367610000000 1.0
C      1  0.4462540000000  0.5098730000000  0.5096410000000 1.0
C      1  0.5634350000000  0.4929440000000  0.5022530000000 1.0
C      1  0.4244790000000  0.4954670000000  0.4934400000000 1.0
END
