TITL C-3577078-809-420 -2.02984492244788e-06 125000 -707.047848232533 0 0 110 (C1) n - 1
REM
REM in /home/bkarasulu/work/CARBON/AIRSS/Generating-Clusters/EDIP-Nigel-Params/with-SteepDescent/Higher-Symm/SD-CG/HFTN-CG
REM
REM
REM
REM
REM
REM ./C.cell (12c818d87b63d06a65506943cc24bca4)
REM
REM compiler GCC version 9.2.1 20190827 (Red Hat 9.2.1-1)
REM options -cpp -mtune=generic -march=x86-64 -g -O0 -fpre-include=/usr/include/finclude/math-vector-fortran.h
REM seed 627083174 933157127 53985909 1115963055 1976040653 -1653199561 877681579 -633669320 -1674113562 1340824796 1849726021 -760362542 1333841121 -1613358886 -181382325 -2098530751 339626580 1915798626 537127103 850002069 1326104429 791319315 1608046268 504115848 317068389 -565266677 964661276 1880962301 1956335457 -2042278500 984550903 -443012465 -481528541
REM
CELL 1.54180   50.00000   50.00000   50.00000   90.00000   90.00000   90.00000
LATT -1
SFAC C  
C      1  0.5446880000000  0.4902540000000  0.5185040000000 1.0
C      1  0.5292010000000  0.5068190000000  0.5381480000000 1.0
C      1  0.5050070000000  0.4913080000000  0.5473910000000 1.0
C      1  0.4804110000000  0.5085120000000  0.5457590000000 1.0
C      1  0.4599230000000  0.4918020000000  0.5306580000000 1.0
C      1  0.4512550000000  0.5092790000000  0.5070570000000 1.0
C      1  0.4558480000000  0.4927760000000  0.4819740000000 1.0
C      1  0.4716850000000  0.5093590000000  0.4620580000000 1.0
C      1  0.4948290000000  0.4928530000000  0.4530810000000 1.0
C      1  0.5206230000000  0.5084020000000  0.4564210000000 1.0
C      1  0.5409020000000  0.4904380000000  0.4699830000000 1.0
C      1  0.5500840000000  0.5070420000000  0.4936100000000 1.0
C      1  0.4579180000000  0.5389370000000  0.5680870000000 1.0
C      1  0.4298930000000  0.4621520000000  0.5424740000000 1.0
C      1  0.4201280000000  0.5376070000000  0.4988260000000 1.0
C      1  0.4357620000000  0.4589280000000  0.4563310000000 1.0
C      1  0.4589960000000  0.5389110000000  0.4327290000000 1.0
C      1  0.5032690000000  0.4628590000000  0.4230160000000 1.0
C      1  0.5460130000000  0.5413490000000  0.4332540000000 1.0
C      1  0.5724820000000  0.4619010000000  0.4594590000000 1.0
C      1  0.5772400000000  0.5401920000000  0.4995790000000 1.0
C      1  0.5706910000000  0.4609240000000  0.5371860000000 1.0
C      1  0.5372900000000  0.5373220000000  0.5683320000000 1.0
C      1  0.4939910000000  0.4581370000000  0.5781160000000 1.0
C      1  0.4226220000000  0.5121740000000  0.5410690000000 1.0
C      1  0.4134880000000  0.4839000000000  0.4982250000000 1.0
C      1  0.4242350000000  0.5105840000000  0.4545770000000 1.0
C      1  0.4613230000000  0.4889000000000  0.4243310000000 1.0
C      1  0.5034390000000  0.5168690000000  0.4146770000000 1.0
C      1  0.5472490000000  0.4890690000000  0.4252490000000 1.0
C      1  0.5777550000000  0.5121530000000  0.4591310000000 1.0
C      1  0.5891010000000  0.4881500000000  0.5013740000000 1.0
C      1  0.5726060000000  0.5126850000000  0.5441200000000 1.0
C      1  0.5408760000000  0.4833070000000  0.5740880000000 1.0
C      1  0.4973320000000  0.5114330000000  0.5865750000000 1.0
C      1  0.4533790000000  0.4887090000000  0.5743220000000 1.0
C      1  0.4709960000000  0.4301180000000  0.5435420000000 1.0
C      1  0.4370600000000  0.5821510000000  0.5289880000000 1.0
C      1  0.4456380000000  0.4258960000000  0.4956860000000 1.0
C      1  0.4635430000000  0.5721510000000  0.4747540000000 1.0
C      1  0.4750590000000  0.4290090000000  0.4569580000000 1.0
C      1  0.5081050000000  0.5758190000000  0.4469770000000 1.0
C      1  0.5226910000000  0.4189390000000  0.4592610000000 1.0
C      1  0.5513050000000  0.5727610000000  0.4712720000000 1.0
C      1  0.5474450000000  0.4268220000000  0.5012010000000 1.0
C      1  0.5369880000000  0.5763530000000  0.5360590000000 1.0
C      1  0.5201840000000  0.4248980000000  0.5470550000000 1.0
C      1  0.4866450000000  0.5760620000000  0.5453290000000 1.0
C      1  0.4715120000000  0.4672210000000  0.4874850000000 1.0
C      1  0.4852290000000  0.5302230000000  0.4784580000000 1.0
C      1  0.4967400000000  0.4705460000000  0.4722390000000 1.0
C      1  0.5153960000000  0.5341640000000  0.4723950000000 1.0
C      1  0.5243490000000  0.4660240000000  0.4819360000000 1.0
C      1  0.5330910000000  0.5341940000000  0.4971670000000 1.0
C      1  0.5255720000000  0.4678100000000  0.5116940000000 1.0
C      1  0.5182750000000  0.5319240000000  0.5242040000000 1.0
C      1  0.5015040000000  0.4661180000000  0.5308300000000 1.0
C      1  0.4884400000000  0.5310720000000  0.5274080000000 1.0
C      1  0.4738920000000  0.4663080000000  0.5183740000000 1.0
C      1  0.4703590000000  0.5337720000000  0.5042370000000 1.0
C      1  0.4238390000000  0.5571490000000  0.5302330000000 1.0
C      1  0.4208170000000  0.4342340000000  0.5044640000000 1.0
C      1  0.4472970000000  0.5542670000000  0.4560870000000 1.0
C      1  0.4784310000000  0.4448990000000  0.4316540000000 1.0
C      1  0.4966810000000  0.5666800000000  0.4234690000000 1.0
C      1  0.5508700000000  0.4445740000000  0.4472150000000 1.0
C      1  0.5752830000000  0.5562910000000  0.4718820000000 1.0
C      1  0.5695610000000  0.4452670000000  0.5104350000000 1.0
C      1  0.5500540000000  0.5532330000000  0.5461150000000 1.0
C      1  0.5415790000000  0.4332660000000  0.5626110000000 1.0
C      1  0.4838070000000  0.5537400000000  0.5651870000000 1.0
C      1  0.4496690000000  0.4447910000000  0.5577360000000 1.0
C      1  0.4302570000000  0.4879840000000  0.5560440000000 1.0
C      1  0.4123850000000  0.5112130000000  0.5128120000000 1.0
C      1  0.4285070000000  0.4854560000000  0.4711030000000 1.0
C      1  0.4455110000000  0.5126310000000  0.4330760000000 1.0
C      1  0.4895410000000  0.4894400000000  0.4144890000000 1.0
C      1  0.5308410000000  0.5148660000000  0.4286640000000 1.0
C      1  0.5704390000000  0.4875080000000  0.4444790000000 1.0
C      1  0.5879380000000  0.5142300000000  0.4868600000000 1.0
C      1  0.5819520000000  0.4876710000000  0.5302800000000 1.0
C      1  0.5537550000000  0.5109930000000  0.5678920000000 1.0
C      1  0.5099160000000  0.4848160000000  0.5765250000000 1.0
C      1  0.4673280000000  0.5136010000000  0.5820790000000 1.0
C      1  0.4352360000000  0.5371590000000  0.5480820000000 1.0
C      1  0.4193740000000  0.4598500000000  0.5151670000000 1.0
C      1  0.4270320000000  0.5363050000000  0.4696080000000 1.0
C      1  0.4530500000000  0.4619450000000  0.4314170000000 1.0
C      1  0.4864780000000  0.5408060000000  0.4221000000000 1.0
C      1  0.5332160000000  0.4634450000000  0.4296210000000 1.0
C      1  0.5725010000000  0.5381050000000  0.4477020000000 1.0
C      1  0.5776250000000  0.4642170000000  0.4888700000000 1.0
C      1  0.5688420000000  0.5375750000000  0.5290810000000 1.0
C      1  0.5520560000000  0.4589760000000  0.5599580000000 1.0
C      1  0.5075440000000  0.5360570000000  0.5737480000000 1.0
C      1  0.4639920000000  0.4617490000000  0.5786280000000 1.0
C      1  0.5097170000000  0.5697620000000  0.5277560000000 1.0
C      1  0.4971360000000  0.4429420000000  0.5515190000000 1.0
C      1  0.4647500000000  0.5861390000000  0.5295730000000 1.0
C      1  0.4700950000000  0.4273820000000  0.5137660000000 1.0
C      1  0.4555080000000  0.5612300000000  0.5015910000000 1.0
C      1  0.4555650000000  0.4437160000000  0.4740020000000 1.0
C      1  0.4936900000000  0.5731760000000  0.4730820000000 1.0
C      1  0.4977940000000  0.4186830000000  0.4722900000000 1.0
C      1  0.5311520000000  0.5582510000000  0.4540580000000 1.0
C      1  0.5375120000000  0.4385810000000  0.4742270000000 1.0
C      1  0.5411260000000  0.5662280000000  0.4980500000000 1.0
C      1  0.5219950000000  0.4238630000000  0.5172160000000 1.0
C      1  0.5104440000000  0.5782900000000  0.4977040000000 1.0
C      1  0.4966970000000  0.4204200000000  0.5016320000000 1.0
END
