TITL C-3578200-9634-617 -1.97779759324539e-06 125000 -1157.61259761721 0 0 181 (C1) n - 1
REM
REM in /home/bkarasulu/work/CARBON/AIRSS/Generating-Clusters/EDIP-Nigel-Params/with-SteepDescent/Higher-Symm/SD-CG/HFTN-CG
REM
REM
REM
REM
REM
REM ./C.cell (12c818d87b63d06a65506943cc24bca4)
REM
REM compiler GCC version 9.2.1 20190827 (Red Hat 9.2.1-1)
REM options -cpp -mtune=generic -march=x86-64 -g -O0 -fpre-include=/usr/include/finclude/math-vector-fortran.h
REM seed -598278859 -1865225669 1319688740 1173121163 -679295612 1218639172 -452118648 1488561153 66848866 1062603729 -1190476160 -1629441370 -70058215 -1032198811 -2107340004 1089249358 -1922740875 -111151206 1419220016 -244008330 -629910208 -680569365 273422561 1550640276 1678177346 43607143 1301264374 508549371 1563745571 -1507539280 98497481 -209247012 89038473
REM
CELL 1.54180   50.00000   50.00000   50.00000   90.00000   90.00000   90.00000
LATT -1
SFAC C  
C      1  0.5402650000000  0.4473260000000  0.5042900000000 1.0
C      1  0.5095670000000  0.4467120000000  0.5409340000000 1.0
C      1  0.4652640000000  0.4473600000000  0.5213680000000 1.0
C      1  0.4688800000000  0.4494550000000  0.4736180000000 1.0
C      1  0.5160100000000  0.4497910000000  0.4612470000000 1.0
C      1  0.4572370000000  0.3925320000000  0.4888500000000 1.0
C      1  0.4948940000000  0.3929690000000  0.4558210000000 1.0
C      1  0.5386160000000  0.3884700000000  0.4845670000000 1.0
C      1  0.5290670000000  0.3921730000000  0.5375130000000 1.0
C      1  0.4789730000000  0.3903990000000  0.5378120000000 1.0
C      1  0.4575160000000  0.5972150000000  0.4991790000000 1.0
C      1  0.4826420000000  0.5979520000000  0.4634840000000 1.0
C      1  0.5223060000000  0.6022300000000  0.4823890000000 1.0
C      1  0.5409690000000  0.6017840000000  0.5275050000000 1.0
C      1  0.4908270000000  0.5979850000000  0.5290690000000 1.0
C      1  0.5161290000000  0.6101440000000  0.5417740000000 1.0
C      1  0.4641920000000  0.6114630000000  0.5255600000000 1.0
C      1  0.4574050000000  0.6115620000000  0.4719610000000 1.0
C      1  0.5068640000000  0.6169460000000  0.4589260000000 1.0
C      1  0.5454640000000  0.6106300000000  0.5000360000000 1.0
C      1  0.4396770000000  0.3988960000000  0.5105360000000 1.0
C      1  0.4695750000000  0.4025470000000  0.4455810000000 1.0
C      1  0.5412790000000  0.3995380000000  0.4572880000000 1.0
C      1  0.5562760000000  0.3980700000000  0.5296810000000 1.0
C      1  0.4925650000000  0.4017010000000  0.5612530000000 1.0
C      1  0.4495730000000  0.4924770000000  0.4854960000000 1.0
C      1  0.4993860000000  0.4980890000000  0.4494180000000 1.0
C      1  0.5506280000000  0.4906000000000  0.4825880000000 1.0
C      1  0.5325250000000  0.4917940000000  0.5426170000000 1.0
C      1  0.4717870000000  0.4919670000000  0.5455130000000 1.0
C      1  0.4388690000000  0.6031740000000  0.4526060000000 1.0
C      1  0.5128380000000  0.6052230000000  0.4326160000000 1.0
C      1  0.5679840000000  0.5940140000000  0.4902640000000 1.0
C      1  0.5177400000000  0.6050490000000  0.5693700000000 1.0
C      1  0.4464140000000  0.5993950000000  0.5451720000000 1.0
C      1  0.3963590000000  0.5240110000000  0.5142570000000 1.0
C      1  0.4552750000000  0.5287300000000  0.4050480000000 1.0
C      1  0.5795760000000  0.5275940000000  0.4284170000000 1.0
C      1  0.5920540000000  0.5231800000000  0.5476220000000 1.0
C      1  0.4819720000000  0.5298550000000  0.6028980000000 1.0
C      1  0.4360060000000  0.5057940000000  0.4116980000000 1.0
C      1  0.5629710000000  0.5074200000000  0.4153610000000 1.0
C      1  0.6015880000000  0.4975470000000  0.5331650000000 1.0
C      1  0.5013210000000  0.5071160000000  0.6089260000000 1.0
C      1  0.3990450000000  0.4994100000000  0.5327330000000 1.0
C      1  0.3911820000000  0.5220300000000  0.4844690000000 1.0
C      1  0.4816780000000  0.5249440000000  0.3905420000000 1.0
C      1  0.5940190000000  0.5200730000000  0.4523270000000 1.0
C      1  0.5789460000000  0.5220750000000  0.5747980000000 1.0
C      1  0.4518230000000  0.5259190000000  0.6005280000000 1.0
C      1  0.5018940000000  0.5837290000000  0.5776950000000 1.0
C      1  0.4269710000000  0.5810600000000  0.5322250000000 1.0
C      1  0.4489160000000  0.5830470000000  0.4356640000000 1.0
C      1  0.5329640000000  0.5856430000000  0.4380070000000 1.0
C      1  0.5775260000000  0.5769710000000  0.5122620000000 1.0
C      1  0.4915530000000  0.5134500000000  0.5554870000000 1.0
C      1  0.4449420000000  0.5128130000000  0.5084440000000 1.0
C      1  0.4741040000000  0.5149240000000  0.4500590000000 1.0
C      1  0.5430490000000  0.5161690000000  0.4683940000000 1.0
C      1  0.5497100000000  0.5104050000000  0.5255740000000 1.0
C      1  0.5233150000000  0.5536920000000  0.4943110000000 1.0
C      1  0.5102170000000  0.5521330000000  0.5203900000000 1.0
C      1  0.4812860000000  0.5516260000000  0.5161480000000 1.0
C      1  0.4771510000000  0.5503850000000  0.4871950000000 1.0
C      1  0.5032670000000  0.5525060000000  0.4740380000000 1.0
C      1  0.5913120000000  0.4710660000000  0.5436400000000 1.0
C      1  0.4906830000000  0.4796440000000  0.6048990000000 1.0
C      1  0.4011820000000  0.4725870000000  0.5192940000000 1.0
C      1  0.4474190000000  0.4782840000000  0.4096550000000 1.0
C      1  0.5697360000000  0.4798000000000  0.4226430000000 1.0
C      1  0.6071190000000  0.4945900000000  0.4554200000000 1.0
C      1  0.5718100000000  0.4947200000000  0.5837780000000 1.0
C      1  0.4447090000000  0.4978990000000  0.5955360000000 1.0
C      1  0.3934830000000  0.4944440000000  0.4743150000000 1.0
C      1  0.4919160000000  0.4978440000000  0.3950740000000 1.0
C      1  0.6094820000000  0.4849030000000  0.4841240000000 1.0
C      1  0.5468170000000  0.4894250000000  0.5981310000000 1.0
C      1  0.4233170000000  0.4885360000000  0.5764890000000 1.0
C      1  0.4050590000000  0.4884400000000  0.4481020000000 1.0
C      1  0.5198130000000  0.4915580000000  0.3988650000000 1.0
C      1  0.5670880000000  0.5530650000000  0.4345520000000 1.0
C      1  0.5670640000000  0.5338900000000  0.5329470000000 1.0
C      1  0.4884670000000  0.5374740000000  0.5742700000000 1.0
C      1  0.4244280000000  0.5355160000000  0.5111550000000 1.0
C      1  0.4663460000000  0.5376690000000  0.4318710000000 1.0
C      1  0.5256130000000  0.4213790000000  0.4989580000000 1.0
C      1  0.5074600000000  0.4205260000000  0.5238860000000 1.0
C      1  0.4783550000000  0.4209710000000  0.5141740000000 1.0
C      1  0.4794850000000  0.4233800000000  0.4834050000000 1.0
C      1  0.5083720000000  0.4237730000000  0.4744130000000 1.0
C      1  0.5937480000000  0.4751350000000  0.4384080000000 1.0
C      1  0.5842050000000  0.4720180000000  0.5711300000000 1.0
C      1  0.4620100000000  0.4773950000000  0.6060270000000 1.0
C      1  0.3909470000000  0.4726020000000  0.4927530000000 1.0
C      1  0.4737740000000  0.4762980000000  0.3984830000000 1.0
C      1  0.4997430000000  0.5480200000000  0.3991870000000 1.0
C      1  0.5978260000000  0.5426390000000  0.4697020000000 1.0
C      1  0.5603240000000  0.5462080000000  0.5778190000000 1.0
C      1  0.4415530000000  0.5465310000000  0.5808090000000 1.0
C      1  0.4042240000000  0.5458530000000  0.4701280000000 1.0
C      1  0.5128260000000  0.5475930000000  0.4458670000000 1.0
C      1  0.5499720000000  0.5429050000000  0.4834320000000 1.0
C      1  0.5242730000000  0.5542530000000  0.5460640000000 1.0
C      1  0.4612700000000  0.5460580000000  0.5370270000000 1.0
C      1  0.4513720000000  0.5542130000000  0.4744900000000 1.0
C      1  0.5067170000000  0.4592070000000  0.5897840000000 1.0
C      1  0.4088410000000  0.4445610000000  0.5299200000000 1.0
C      1  0.4445270000000  0.4616860000000  0.4339420000000 1.0
C      1  0.5479660000000  0.4599500000000  0.4258000000000 1.0
C      1  0.5911790000000  0.4435580000000  0.5310140000000 1.0
C      1  0.4664780000000  0.5544790000000  0.5643300000000 1.0
C      1  0.4262630000000  0.5565820000000  0.4893450000000 1.0
C      1  0.4900070000000  0.5554670000000  0.4271090000000 1.0
C      1  0.5723840000000  0.5603110000000  0.4635790000000 1.0
C      1  0.5536420000000  0.5558660000000  0.5492380000000 1.0
C      1  0.5045990000000  0.4759220000000  0.4741350000000 1.0
C      1  0.5272870000000  0.4744310000000  0.4962290000000 1.0
C      1  0.5125820000000  0.4748320000000  0.5250560000000 1.0
C      1  0.4812190000000  0.4741610000000  0.5207240000000 1.0
C      1  0.4759390000000  0.4751930000000  0.4885770000000 1.0
C      1  0.5344150000000  0.5413240000000  0.5916800000000 1.0
C      1  0.4204880000000  0.5373370000000  0.5609550000000 1.0
C      1  0.4177900000000  0.5398230000000  0.4440980000000 1.0
C      1  0.5287550000000  0.5416060000000  0.4020410000000 1.0
C      1  0.5991460000000  0.5342370000000  0.4977540000000 1.0
C      1  0.4709550000000  0.4516660000000  0.4426720000000 1.0
C      1  0.5466000000000  0.4492300000000  0.4533980000000 1.0
C      1  0.5479860000000  0.4464020000000  0.5348680000000 1.0
C      1  0.4899590000000  0.4489470000000  0.5671920000000 1.0
C      1  0.4383810000000  0.4481870000000  0.5052740000000 1.0
C      1  0.5662470000000  0.4974480000000  0.5056350000000 1.0
C      1  0.5173020000000  0.5047890000000  0.5636000000000 1.0
C      1  0.4465210000000  0.5040500000000  0.5362580000000 1.0
C      1  0.4493220000000  0.5042730000000  0.4586340000000 1.0
C      1  0.5232960000000  0.5174960000000  0.4444000000000 1.0
C      1  0.5370070000000  0.4630470000000  0.5850210000000 1.0
C      1  0.4375810000000  0.4631410000000  0.5689190000000 1.0
C      1  0.4214610000000  0.4630850000000  0.4540910000000 1.0
C      1  0.5211000000000  0.4641550000000  0.4127460000000 1.0
C      1  0.5921050000000  0.4608570000000  0.4803600000000 1.0
C      1  0.5661360000000  0.4704650000000  0.4650300000000 1.0
C      1  0.5488840000000  0.4697790000000  0.5552730000000 1.0
C      1  0.4676930000000  0.4711970000000  0.5684220000000 1.0
C      1  0.4288720000000  0.4702390000000  0.4851730000000 1.0
C      1  0.4946380000000  0.4722460000000  0.4309410000000 1.0
C      1  0.4211580000000  0.4190500000000  0.4712970000000 1.0
C      1  0.5053090000000  0.4233660000000  0.4211770000000 1.0
C      1  0.5709940000000  0.4203490000000  0.4878340000000 1.0
C      1  0.5480960000000  0.4202100000000  0.5709020000000 1.0
C      1  0.4499010000000  0.4214600000000  0.5536980000000 1.0
C      1  0.5598330000000  0.4224770000000  0.4596250000000 1.0
C      1  0.5656180000000  0.4225040000000  0.5450880000000 1.0
C      1  0.4749640000000  0.4231490000000  0.5707790000000 1.0
C      1  0.4217570000000  0.4215300000000  0.5019960000000 1.0
C      1  0.4765010000000  0.4254880000000  0.4285240000000 1.0
C      1  0.5228710000000  0.4054700000000  0.5622390000000 1.0
C      1  0.4507050000000  0.3969180000000  0.5378070000000 1.0
C      1  0.4459090000000  0.4030290000000  0.4644420000000 1.0
C      1  0.5168740000000  0.4008060000000  0.4386810000000 1.0
C      1  0.5612440000000  0.3962280000000  0.5007920000000 1.0
C      1  0.5144250000000  0.4391370000000  0.3989950000000 1.0
C      1  0.5890940000000  0.4399720000000  0.5010850000000 1.0
C      1  0.5500400000000  0.4382860000000  0.5925070000000 1.0
C      1  0.4267960000000  0.4404090000000  0.5541240000000 1.0
C      1  0.4078940000000  0.4375150000000  0.4545750000000 1.0
C      1  0.5339620000000  0.5139100000000  0.4136970000000 1.0
C      1  0.5957370000000  0.5040760000000  0.5038860000000 1.0
C      1  0.5263060000000  0.5112850000000  0.5919710000000 1.0
C      1  0.4212310000000  0.5074010000000  0.5529030000000 1.0
C      1  0.4252860000000  0.5100300000000  0.4403720000000 1.0
C      1  0.5406690000000  0.5825600000000  0.4664120000000 1.0
C      1  0.5624680000000  0.5830240000000  0.5371770000000 1.0
C      1  0.4758340000000  0.5835510000000  0.5624690000000 1.0
C      1  0.4296340000000  0.5840190000000  0.5030790000000 1.0
C      1  0.4794870000000  0.5849690000000  0.4331520000000 1.0
C      1  0.5128930000000  0.5552530000000  0.5736170000000 1.0
C      1  0.4317410000000  0.5508490000000  0.5357600000000 1.0
C      1  0.4452250000000  0.5544630000000  0.4456060000000 1.0
C      1  0.5412650000000  0.5611780000000  0.4228880000000 1.0
C      1  0.5742780000000  0.5473830000000  0.5071700000000 1.0
C      1  0.4958520000000  0.5876910000000  0.4983720000000 1.0
END
