TITL C-3578202-4305-282 -7.90336802897357e-07 125000 -83.7609329159554 0 0 16 (Ci) n - 1
REM
REM in /home/bkarasulu/work/CARBON/AIRSS/Generating-Clusters/EDIP-Nigel-Params/with-SteepDescent/Higher-Symm/SD-CG/HFTN-CG
REM
REM
REM
REM
REM
REM ./C.cell (12c818d87b63d06a65506943cc24bca4)
REM
REM compiler GCC version 9.2.1 20190827 (Red Hat 9.2.1-1)
REM options -cpp -mtune=generic -march=x86-64 -g -O0 -fpre-include=/usr/include/finclude/math-vector-fortran.h
REM seed 893214950 -824480934 1714676894 -1681107452 822309394 251024162 -1629490228 488900307 1530322488 -122944716 -1999192280 -490911426 -1056958337 -1841083806 1987992646 -1691583046 989233788 1681036493 1975229112 -217791303 -647962184 992861461 312222505 -1459789971 -617945342 1961162458 -1531254395 -1925449920 2090372608 1747068845 1985890621 -1245374980 1045087676
REM
CELL 1.54180   50.00000   50.00000   50.00000   90.00000   90.00000   90.00000
LATT -1
SFAC C  
C      1  0.5063820000000  0.5206530000000  0.4949780000000 1.0
C      1  0.4936180000000  0.4793470000000  0.5050220000000 1.0
C      1  0.4501130000000  0.5347570000000  0.5072710000000 1.0
C      1  0.5498870000000  0.4652430000000  0.4927290000000 1.0
C      1  0.5134200000000  0.4557980000000  0.5027870000000 1.0
C      1  0.4865800000000  0.5442020000000  0.4972130000000 1.0
C      1  0.4967690000000  0.4955720000000  0.4784750000000 1.0
C      1  0.5032310000000  0.5044280000000  0.5215250000000 1.0
C      1  0.5267550000000  0.4609960000000  0.4748580000000 1.0
C      1  0.4732450000000  0.5390040000000  0.5251420000000 1.0
C      1  0.4677310000000  0.4720320000000  0.5098720000000 1.0
C      1  0.5322690000000  0.5279680000000  0.4901280000000 1.0
C      1  0.4849220000000  0.5172510000000  0.5382210000000 1.0
C      1  0.5150780000000  0.4827490000000  0.4617790000000 1.0
C      1  0.5382240000000  0.4602380000000  0.5179320000000 1.0
C      1  0.4617760000000  0.5397620000000  0.4820680000000 1.0
END
