TITL C-3577082-504-725 -3.21529537865641e-05 125000 -309.123581720014 0 0 51 (C1) n - 1
REM
REM in /home/bkarasulu/work/CARBON/AIRSS/Generating-Clusters/EDIP-Nigel-Params/with-SteepDescent/Higher-Symm/SD-CG/HFTN-CG
REM
REM
REM
REM
REM
REM ./C.cell (12c818d87b63d06a65506943cc24bca4)
REM
REM compiler GCC version 9.2.1 20190827 (Red Hat 9.2.1-1)
REM options -cpp -mtune=generic -march=x86-64 -g -O0 -fpre-include=/usr/include/finclude/math-vector-fortran.h
REM seed -1271958624 98188652 843295208 -635159319 -166803210 771636002 1272951766 -1433113083 564293569 1482227123 1820098595 1182788334 -1192544692 -1331734844 1723818050 -1638020683 168167484 -1417218056 -499481388 483208743 788883393 324535856 1353444034 -13701430 -1884353693 1619847102 622549048 -1078669279 1821277695 -1892013676 -952560510 -2009456153 1001941414
REM
CELL 1.54180   50.00000   50.00000   50.00000   90.00000   90.00000   90.00000
LATT -1
SFAC C  
C      1  0.5378640000000  0.4416160000000  0.4652540000000 1.0
C      1  0.5269430000000  0.4513820000000  0.5502460000000 1.0
C      1  0.5190010000000  0.5297320000000  0.5620770000000 1.0
C      1  0.5277540000000  0.5689710000000  0.4852300000000 1.0
C      1  0.5373500000000  0.5155670000000  0.4329770000000 1.0
C      1  0.4839090000000  0.4367600000000  0.5039340000000 1.0
C      1  0.4825650000000  0.4855270000000  0.5633220000000 1.0
C      1  0.4855610000000  0.5557090000000  0.5291600000000 1.0
C      1  0.4812720000000  0.5457450000000  0.4533320000000 1.0
C      1  0.4831430000000  0.4734410000000  0.4403470000000 1.0
C      1  0.5099440000000  0.5246060000000  0.4896800000000 1.0
C      1  0.5126710000000  0.4996520000000  0.4710180000000 1.0
C      1  0.5118500000000  0.4741440000000  0.4891800000000 1.0
C      1  0.5064820000000  0.4834240000000  0.5176500000000 1.0
C      1  0.5037710000000  0.5137770000000  0.5177080000000 1.0
C      1  0.5012020000000  0.4940920000000  0.5822020000000 1.0
C      1  0.5014210000000  0.5785600000000  0.5264670000000 1.0
C      1  0.4997910000000  0.5447450000000  0.4319380000000 1.0
C      1  0.5031050000000  0.4541420000000  0.4344350000000 1.0
C      1  0.5030760000000  0.4209730000000  0.5164570000000 1.0
C      1  0.4743890000000  0.5474320000000  0.5037220000000 1.0
C      1  0.4694250000000  0.5189020000000  0.4542740000000 1.0
C      1  0.4697130000000  0.4638630000000  0.4649360000000 1.0
C      1  0.4727830000000  0.4559020000000  0.5231000000000 1.0
C      1  0.4726100000000  0.5085030000000  0.5483110000000 1.0
C      1  0.4510770000000  0.5117430000000  0.4773940000000 1.0
C      1  0.4487710000000  0.4794100000000  0.4808500000000 1.0
C      1  0.4513910000000  0.4751340000000  0.5133710000000 1.0
C      1  0.4534910000000  0.5047570000000  0.5251460000000 1.0
C      1  0.4630650000000  0.5212000000000  0.5025240000000 1.0
C      1  0.4926770000000  0.4521570000000  0.4795280000000 1.0
C      1  0.4908020000000  0.4624830000000  0.5464480000000 1.0
C      1  0.4908390000000  0.5331490000000  0.5489390000000 1.0
C      1  0.4928560000000  0.5524310000000  0.4805610000000 1.0
C      1  0.4926910000000  0.5013230000000  0.4474970000000 1.0
C      1  0.5180980000000  0.4289650000000  0.5371160000000 1.0
C      1  0.5189950000000  0.5140490000000  0.5850890000000 1.0
C      1  0.5126850000000  0.5840920000000  0.5025050000000 1.0
C      1  0.5095500000000  0.5184300000000  0.4285380000000 1.0
C      1  0.5105650000000  0.4401500000000  0.4579550000000 1.0
C      1  0.5386570000000  0.5003600000000  0.4567370000000 1.0
C      1  0.5376090000000  0.4589300000000  0.4877010000000 1.0
C      1  0.5307550000000  0.4776050000000  0.5362840000000 1.0
C      1  0.5290350000000  0.5163870000000  0.5364360000000 1.0
C      1  0.5342140000000  0.5413930000000  0.4914360000000 1.0
C      1  0.5580780000000  0.4856180000000  0.5233240000000 1.0
C      1  0.5589100000000  0.5156490000000  0.5237030000000 1.0
C      1  0.5599660000000  0.5264950000000  0.4953110000000 1.0
C      1  0.5612320000000  0.5014410000000  0.4767390000000 1.0
C      1  0.5606730000000  0.4765620000000  0.4947300000000 1.0
C      1  0.4246030000000  0.5000010000000  0.4994660000000 1.0
END
