TITL C-3577080-309-542 -2.49761277222252e-06 125000 -865.538446817061 0 0 140 (C1) n - 1
REM
REM in /home/bkarasulu/work/CARBON/AIRSS/Generating-Clusters/EDIP-Nigel-Params/with-SteepDescent/Higher-Symm/SD-CG/HFTN-CG
REM
REM
REM
REM
REM
REM ./C.cell (12c818d87b63d06a65506943cc24bca4)
REM
REM compiler GCC version 9.2.1 20190827 (Red Hat 9.2.1-1)
REM options -cpp -mtune=generic -march=x86-64 -g -O0 -fpre-include=/usr/include/finclude/math-vector-fortran.h
REM seed -508252814 -315037891 364776695 381020151 1142156528 -1575419619 -1147986909 -959661700 40426657 1549508698 -1184827907 1300215299 1657171118 89729238 -1326739894 -2146888094 357894411 2121948055 1855199985 512156379 1111796795 -554472939 1132936749 -2136965938 -1402896089 937526432 -1416763304 1153621185 -1283466517 425793422 705935834 1473623645 -892156259
REM
CELL 1.54180   50.00000   50.00000   50.00000   90.00000   90.00000   90.00000
LATT -1
SFAC C  
C      1  0.4301970000000  0.5379690000000  0.5017320000000 1.0
C      1  0.4769450000000  0.5355780000000  0.4339350000000 1.0
C      1  0.5569700000000  0.5348740000000  0.4580060000000 1.0
C      1  0.5598980000000  0.5340570000000  0.5428920000000 1.0
C      1  0.4761280000000  0.5354480000000  0.5649160000000 1.0
C      1  0.5146040000000  0.5534520000000  0.5200200000000 1.0
C      1  0.4863530000000  0.5636360000000  0.5223420000000 1.0
C      1  0.4764810000000  0.5660180000000  0.4913270000000 1.0
C      1  0.5003430000000  0.5591490000000  0.4749550000000 1.0
C      1  0.5238610000000  0.5625480000000  0.4929910000000 1.0
C      1  0.5173020000000  0.4245640000000  0.4576420000000 1.0
C      1  0.5470650000000  0.4254630000000  0.5014050000000 1.0
C      1  0.5139510000000  0.4293990000000  0.5415810000000 1.0
C      1  0.4648880000000  0.4284460000000  0.5249460000000 1.0
C      1  0.4658160000000  0.4260760000000  0.4725810000000 1.0
C      1  0.5163070000000  0.6020320000000  0.5230970000000 1.0
C      1  0.4884490000000  0.5949910000000  0.5233630000000 1.0
C      1  0.4794720000000  0.5975990000000  0.4942980000000 1.0
C      1  0.5030770000000  0.6058720000000  0.4801660000000 1.0
C      1  0.5235480000000  0.5940150000000  0.4964640000000 1.0
C      1  0.4390700000000  0.4713950000000  0.5438820000000 1.0
C      1  0.4336550000000  0.4770370000000  0.4602460000000 1.0
C      1  0.5196320000000  0.4758840000000  0.4242670000000 1.0
C      1  0.5827660000000  0.4730180000000  0.4939530000000 1.0
C      1  0.5223710000000  0.4738900000000  0.5688440000000 1.0
C      1  0.4866490000000  0.5395740000000  0.4049410000000 1.0
C      1  0.5874420000000  0.5387470000000  0.4588260000000 1.0
C      1  0.5643320000000  0.5401350000000  0.5724690000000 1.0
C      1  0.4520340000000  0.5377080000000  0.5838250000000 1.0
C      1  0.4046490000000  0.5408780000000  0.4841580000000 1.0
C      1  0.4356130000000  0.5494100000000  0.5445820000000 1.0
C      1  0.4390810000000  0.5504510000000  0.4576070000000 1.0
C      1  0.5219850000000  0.5491060000000  0.4301050000000 1.0
C      1  0.5731700000000  0.5483850000000  0.4998570000000 1.0
C      1  0.5205690000000  0.5460880000000  0.5700730000000 1.0
C      1  0.4849390000000  0.5013830000000  0.3978000000000 1.0
C      1  0.5943320000000  0.5009010000000  0.4535210000000 1.0
C      1  0.5644690000000  0.5011030000000  0.5748550000000 1.0
C      1  0.4465330000000  0.4996190000000  0.5862110000000 1.0
C      1  0.3974170000000  0.5026040000000  0.4860310000000 1.0
C      1  0.4437120000000  0.5648250000000  0.5719770000000 1.0
C      1  0.4153070000000  0.5671850000000  0.4718670000000 1.0
C      1  0.5008250000000  0.5662750000000  0.4127540000000 1.0
C      1  0.5842240000000  0.5655030000000  0.4747150000000 1.0
C      1  0.5463920000000  0.5645620000000  0.5719580000000 1.0
C      1  0.4684740000000  0.5407480000000  0.5362120000000 1.0
C      1  0.4555590000000  0.5420400000000  0.4845180000000 1.0
C      1  0.5009550000000  0.5375530000000  0.4547280000000 1.0
C      1  0.5450270000000  0.5383760000000  0.4870450000000 1.0
C      1  0.5271570000000  0.5322400000000  0.5383450000000 1.0
C      1  0.4052030000000  0.5000730000000  0.5165700000000 1.0
C      1  0.4501550000000  0.4960520000000  0.4140980000000 1.0
C      1  0.5678050000000  0.4959450000000  0.4256290000000 1.0
C      1  0.5990090000000  0.4949060000000  0.5397650000000 1.0
C      1  0.4850060000000  0.5004940000000  0.5937450000000 1.0
C      1  0.5473040000000  0.4260430000000  0.4512310000000 1.0
C      1  0.5624200000000  0.4279620000000  0.5282700000000 1.0
C      1  0.4949870000000  0.4322750000000  0.5648870000000 1.0
C      1  0.4364150000000  0.4313500000000  0.5142480000000 1.0
C      1  0.4693830000000  0.4272710000000  0.4421470000000 1.0
C      1  0.5844100000000  0.4527160000000  0.4727490000000 1.0
C      1  0.5466660000000  0.4570070000000  0.5648160000000 1.0
C      1  0.4512610000000  0.4550720000000  0.5649410000000 1.0
C      1  0.4182610000000  0.4551070000000  0.4731600000000 1.0
C      1  0.5019710000000  0.4543040000000  0.4138890000000 1.0
C      1  0.5646490000000  0.5788170000000  0.4580400000000 1.0
C      1  0.5560460000000  0.5780180000000  0.5480170000000 1.0
C      1  0.4692200000000  0.5785950000000  0.5733810000000 1.0
C      1  0.4210080000000  0.5816090000000  0.4960290000000 1.0
C      1  0.4791460000000  0.5795950000000  0.4264530000000 1.0
C      1  0.4803160000000  0.4043030000000  0.5149240000000 1.0
C      1  0.4810150000000  0.4030560000000  0.4852900000000 1.0
C      1  0.5096480000000  0.4022030000000  0.4767740000000 1.0
C      1  0.5265990000000  0.4027810000000  0.5012370000000 1.0
C      1  0.5084280000000  0.4046670000000  0.5247160000000 1.0
C      1  0.4810810000000  0.4694560000000  0.3976380000000 1.0
C      1  0.5933120000000  0.4688820000000  0.4486160000000 1.0
C      1  0.5722700000000  0.4704500000000  0.5712590000000 1.0
C      1  0.4548480000000  0.4690090000000  0.5905730000000 1.0
C      1  0.3957860000000  0.4681070000000  0.4882780000000 1.0
C      1  0.4241260000000  0.4986660000000  0.4303770000000 1.0
C      1  0.5440550000000  0.4984760000000  0.4062630000000 1.0
C      1  0.6061000000000  0.4980480000000  0.5116110000000 1.0
C      1  0.5002870000000  0.5190800000000  0.6089890000000 1.0
C      1  0.3937490000000  0.5184960000000  0.5356700000000 1.0
C      1  0.5128120000000  0.4502190000000  0.4735750000000 1.0
C      1  0.5297240000000  0.4513890000000  0.5004860000000 1.0
C      1  0.5084850000000  0.4535890000000  0.5232150000000 1.0
C      1  0.4790590000000  0.4527750000000  0.5128500000000 1.0
C      1  0.4810330000000  0.4511790000000  0.4814470000000 1.0
C      1  0.5223700000000  0.5237990000000  0.5915870000000 1.0
C      1  0.4168800000000  0.5239430000000  0.5519700000000 1.0
C      1  0.4235360000000  0.5251520000000  0.4474220000000 1.0
C      1  0.5276860000000  0.5247420000000  0.4116050000000 1.0
C      1  0.5915300000000  0.5231560000000  0.4999590000000 1.0
C      1  0.4631900000000  0.4774160000000  0.5238290000000 1.0
C      1  0.4655540000000  0.4720150000000  0.4644800000000 1.0
C      1  0.5271780000000  0.4697160000000  0.4544660000000 1.0
C      1  0.5581860000000  0.4679690000000  0.5109580000000 1.0
C      1  0.5110300000000  0.4806940000000  0.5382350000000 1.0
C      1  0.5262910000000  0.5031820000000  0.5222760000000 1.0
C      1  0.4831150000000  0.5190050000000  0.5211900000000 1.0
C      1  0.4729130000000  0.5161010000000  0.4933630000000 1.0
C      1  0.4965480000000  0.5117680000000  0.4734490000000 1.0
C      1  0.5250550000000  0.5083590000000  0.4888440000000 1.0
C      1  0.5706570000000  0.5053460000000  0.5437030000000 1.0
C      1  0.4847600000000  0.5079550000000  0.5656240000000 1.0
C      1  0.4323100000000  0.5102000000000  0.5129980000000 1.0
C      1  0.4664050000000  0.5083860000000  0.4370560000000 1.0
C      1  0.5511630000000  0.5076760000000  0.4487020000000 1.0
C      1  0.5809950000000  0.5013990000000  0.4809060000000 1.0
C      1  0.5354000000000  0.4988000000000  0.5823100000000 1.0
C      1  0.4305350000000  0.4983040000000  0.5606080000000 1.0
C      1  0.4238870000000  0.5045240000000  0.4700330000000 1.0
C      1  0.5066180000000  0.5035920000000  0.4190460000000 1.0
C      1  0.3969490000000  0.4624350000000  0.5166690000000 1.0
C      1  0.4547790000000  0.4659440000000  0.4096500000000 1.0
C      1  0.5740350000000  0.4655310000000  0.4270690000000 1.0
C      1  0.5935090000000  0.4665160000000  0.5503100000000 1.0
C      1  0.4813910000000  0.4632860000000  0.6016460000000 1.0
C      1  0.5483480000000  0.5596240000000  0.4430230000000 1.0
C      1  0.5692790000000  0.5595810000000  0.5290510000000 1.0
C      1  0.4923350000000  0.5600470000000  0.5720410000000 1.0
C      1  0.4266020000000  0.5636650000000  0.5182960000000 1.0
C      1  0.4599160000000  0.5603040000000  0.4369540000000 1.0
C      1  0.5023170000000  0.4546160000000  0.5831430000000 1.0
C      1  0.4207030000000  0.4521260000000  0.5289760000000 1.0
C      1  0.4555810000000  0.4505330000000  0.4337240000000 1.0
C      1  0.5521130000000  0.4481990000000  0.4338940000000 1.0
C      1  0.5845060000000  0.4472890000000  0.5295650000000 1.0
C      1  0.5640100000000  0.4292080000000  0.4752260000000 1.0
C      1  0.5428920000000  0.4323500000000  0.5496710000000 1.0
C      1  0.4672460000000  0.4325270000000  0.5552010000000 1.0
C      1  0.4361820000000  0.4327010000000  0.4846470000000 1.0
C      1  0.4975290000000  0.4297840000000  0.4334590000000 1.0
C      1  0.4532420000000  0.4937850000000  0.5005600000000 1.0
C      1  0.4831110000000  0.4928060000000  0.4544820000000 1.0
C      1  0.5400260000000  0.4913470000000  0.4691970000000 1.0
C      1  0.5521800000000  0.4919280000000  0.5256620000000 1.0
C      1  0.4843720000000  0.4948150000000  0.5385810000000 1.0
END
