TITL C-3577076-40-485 -6.33887087816954e-06 125000 -322.156901813904 0 0 55 (C1) n - 1
REM
REM in /home/bkarasulu/work/CARBON/AIRSS/Generating-Clusters/EDIP-Nigel-Params/with-SteepDescent/Higher-Symm/SD-CG/HFTN-CG
REM
REM
REM
REM
REM
REM ./C.cell (12c818d87b63d06a65506943cc24bca4)
REM
REM compiler GCC version 9.2.1 20190827 (Red Hat 9.2.1-1)
REM options -cpp -mtune=generic -march=x86-64 -g -O0 -fpre-include=/usr/include/finclude/math-vector-fortran.h
REM seed -1963799187 248418916 1612755871 445038606 894830267 837192805 678726671 -1094386514 -424164976 490598279 -125143743 194767818 -816358354 -1355935955 1580179808 333843928 1580539245 257827076 348652066 393766725 761795462 -1962668807 -907437507 2136156742 -1317717282 1090233616 1589862954 -790919321 575004469 1240176551 -1819032915 -433569166 1938564411
REM
CELL 1.54180   50.00000   50.00000   50.00000   90.00000   90.00000   90.00000
LATT -1
SFAC C  
C      1  0.4862740000000  0.4789980000000  0.5608180000000 1.0
C      1  0.5161250000000  0.4810540000000  0.5605980000000 1.0
C      1  0.5232760000000  0.5099450000000  0.5606070000000 1.0
C      1  0.4978730000000  0.5259900000000  0.5597440000000 1.0
C      1  0.4752890000000  0.5065830000000  0.5599850000000 1.0
C      1  0.4899530000000  0.4761230000000  0.5116290000000 1.0
C      1  0.5197220000000  0.4813840000000  0.5098910000000 1.0
C      1  0.5244450000000  0.5115140000000  0.5106870000000 1.0
C      1  0.4973790000000  0.5232240000000  0.5105960000000 1.0
C      1  0.4758860000000  0.5033560000000  0.5085280000000 1.0
C      1  0.4697940000000  0.4871060000000  0.4744580000000 1.0
C      1  0.4950040000000  0.4844010000000  0.4599080000000 1.0
C      1  0.5202750000000  0.4904210000000  0.4724770000000 1.0
C      1  0.5174750000000  0.5211260000000  0.4713700000000 1.0
C      1  0.4870150000000  0.5270430000000  0.4680360000000 1.0
C      1  0.4776980000000  0.4633610000000  0.5359080000000 1.0
C      1  0.5295800000000  0.4681260000000  0.5359140000000 1.0
C      1  0.5400700000000  0.5170630000000  0.5359980000000 1.0
C      1  0.4937800000000  0.5418320000000  0.5332620000000 1.0
C      1  0.4595720000000  0.5090150000000  0.5338180000000 1.0
C      1  0.4526590000000  0.4889450000000  0.4479800000000 1.0
C      1  0.4948280000000  0.4602510000000  0.4436910000000 1.0
C      1  0.5424880000000  0.4817950000000  0.4530470000000 1.0
C      1  0.5345940000000  0.5299520000000  0.4474920000000 1.0
C      1  0.4787220000000  0.5382550000000  0.4402860000000 1.0
C      1  0.4746190000000  0.4377670000000  0.4973000000000 1.0
C      1  0.5530090000000  0.4554960000000  0.4975050000000 1.0
C      1  0.5585970000000  0.5362080000000  0.4972710000000 1.0
C      1  0.4826520000000  0.5681550000000  0.4938600000000 1.0
C      1  0.4307770000000  0.5052280000000  0.5001380000000 1.0
C      1  0.5674880000000  0.4993870000000  0.5282680000000 1.0
C      1  0.5182640000000  0.5611600000000  0.5254240000000 1.0
C      1  0.4510220000000  0.5407870000000  0.5265760000000 1.0
C      1  0.4459440000000  0.4617030000000  0.5278100000000 1.0
C      1  0.5209980000000  0.4377330000000  0.5291590000000 1.0
C      1  0.4520280000000  0.5199020000000  0.4519720000000 1.0
C      1  0.4653730000000  0.4529100000000  0.4474490000000 1.0
C      1  0.5212970000000  0.4494090000000  0.4532080000000 1.0
C      1  0.5553570000000  0.5086720000000  0.4530060000000 1.0
C      1  0.5049440000000  0.5548740000000  0.4469800000000 1.0
C      1  0.5730220000000  0.5289160000000  0.5223280000000 1.0
C      1  0.4940360000000  0.5774890000000  0.5194380000000 1.0
C      1  0.4261880000000  0.5221150000000  0.5247320000000 1.0
C      1  0.4573850000000  0.4348150000000  0.5209900000000 1.0
C      1  0.5504760000000  0.4393300000000  0.5224260000000 1.0
C      1  0.5081740000000  0.5640170000000  0.4767900000000 1.0
C      1  0.4468100000000  0.5239670000000  0.4826190000000 1.0
C      1  0.4585120000000  0.4566950000000  0.4787350000000 1.0
C      1  0.5270500000000  0.4480410000000  0.4821790000000 1.0
C      1  0.5588570000000  0.5098340000000  0.4831540000000 1.0
C      1  0.5294600000000  0.5510400000000  0.4985800000000 1.0
C      1  0.4611430000000  0.5454600000000  0.4985340000000 1.0
C      1  0.4378550000000  0.4757430000000  0.5028930000000 1.0
C      1  0.5058340000000  0.4403130000000  0.5024800000000 1.0
C      1  0.5630530000000  0.4859760000000  0.5014660000000 1.0
END
