TITL C-3577082-504-695 7.86952030317336e-07 125000 -506.444156658369 0 0 81 (C1) n - 1
REM
REM in /home/bkarasulu/work/CARBON/AIRSS/Generating-Clusters/EDIP-Nigel-Params/with-SteepDescent/Higher-Symm/SD-CG/HFTN-CG
REM
REM
REM
REM
REM
REM ./C.cell (12c818d87b63d06a65506943cc24bca4)
REM
REM compiler GCC version 9.2.1 20190827 (Red Hat 9.2.1-1)
REM options -cpp -mtune=generic -march=x86-64 -g -O0 -fpre-include=/usr/include/finclude/math-vector-fortran.h
REM seed 1698194983 641788537 1159467199 -566794624 662588851 354757461 -213292314 -721219132 873596629 -498603169 323890427 -1544806027 -240625369 2008491150 1943148780 -1918019968 448570835 -706308661 -1341546979 1044882155 -1307976807 -160997103 1299373955 -346755027 -2017094709 161929900 -449092166 -1214954080 -189323388 -598127737 -281046125 -887078373 -216809051
REM
CELL 1.54180   50.00000   50.00000   50.00000   90.00000   90.00000   90.00000
LATT -1
SFAC C  
C      1  0.5313260000000  0.5730970000000  0.5136810000000 1.0
C      1  0.4707210000000  0.4279260000000  0.5111830000000 1.0
C      1  0.4708190000000  0.5726270000000  0.5136370000000 1.0
C      1  0.5289130000000  0.4299440000000  0.5110660000000 1.0
C      1  0.4451210000000  0.4407650000000  0.5033250000000 1.0
C      1  0.5556830000000  0.5572400000000  0.5057720000000 1.0
C      1  0.5543600000000  0.4425850000000  0.5042930000000 1.0
C      1  0.4438410000000  0.5577660000000  0.5057400000000 1.0
C      1  0.4836680000000  0.5153060000000  0.4843100000000 1.0
C      1  0.5120660000000  0.4824040000000  0.4931320000000 1.0
C      1  0.5158870000000  0.5120650000000  0.4834910000000 1.0
C      1  0.4823540000000  0.4877580000000  0.4986030000000 1.0
C      1  0.5280840000000  0.5606890000000  0.4686730000000 1.0
C      1  0.4722420000000  0.4371680000000  0.4645940000000 1.0
C      1  0.4734300000000  0.5609140000000  0.4688790000000 1.0
C      1  0.5282920000000  0.4369810000000  0.4647170000000 1.0
C      1  0.5152690000000  0.5563730000000  0.5325940000000 1.0
C      1  0.4854650000000  0.4404010000000  0.5329550000000 1.0
C      1  0.4869100000000  0.5666940000000  0.5389590000000 1.0
C      1  0.5148690000000  0.4343730000000  0.5367090000000 1.0
C      1  0.5267540000000  0.5135280000000  0.4522290000000 1.0
C      1  0.4724410000000  0.4843990000000  0.4415680000000 1.0
C      1  0.4733830000000  0.5145260000000  0.4515700000000 1.0
C      1  0.5284630000000  0.4838970000000  0.4413820000000 1.0
C      1  0.4879550000000  0.4849060000000  0.5302940000000 1.0
C      1  0.5087080000000  0.5296170000000  0.5183070000000 1.0
C      1  0.5153710000000  0.4707040000000  0.5221600000000 1.0
C      1  0.4792280000000  0.5348720000000  0.5100000000000 1.0
C      1  0.5163500000000  0.4355840000000  0.4369740000000 1.0
C      1  0.4843180000000  0.5615430000000  0.4416890000000 1.0
C      1  0.4840680000000  0.4358860000000  0.4370020000000 1.0
C      1  0.5170660000000  0.5611050000000  0.4415890000000 1.0
C      1  0.4460440000000  0.5519370000000  0.4765760000000 1.0
C      1  0.5550420000000  0.4466160000000  0.4750910000000 1.0
C      1  0.5547020000000  0.5514520000000  0.4768170000000 1.0
C      1  0.4452830000000  0.4459740000000  0.4742010000000 1.0
C      1  0.4127720000000  0.5138750000000  0.4853750000000 1.0
C      1  0.5886330000000  0.4847390000000  0.4843210000000 1.0
C      1  0.5873470000000  0.5141830000000  0.4858950000000 1.0
C      1  0.4118710000000  0.4843300000000  0.4837140000000 1.0
C      1  0.4849450000000  0.4639260000000  0.4238210000000 1.0
C      1  0.5154280000000  0.5323290000000  0.4311090000000 1.0
C      1  0.5159090000000  0.4635940000000  0.4235950000000 1.0
C      1  0.4851170000000  0.5329030000000  0.4307550000000 1.0
C      1  0.5131610000000  0.4776160000000  0.5635620000000 1.0
C      1  0.4942130000000  0.5239230000000  0.5645040000000 1.0
C      1  0.4856380000000  0.4718360000000  0.5683210000000 1.0
C      1  0.5142880000000  0.5385620000000  0.5778050000000 1.0
C      1  0.4149120000000  0.5166590000000  0.5141500000000 1.0
C      1  0.5877900000000  0.4791770000000  0.5130940000000 1.0
C      1  0.5850670000000  0.5171950000000  0.5146310000000 1.0
C      1  0.4127270000000  0.4786940000000  0.5124320000000 1.0
C      1  0.4853140000000  0.4224460000000  0.4860720000000 1.0
C      1  0.5162030000000  0.5782980000000  0.4884150000000 1.0
C      1  0.5146970000000  0.4233080000000  0.4865450000000 1.0
C      1  0.4862920000000  0.5779580000000  0.4887190000000 1.0
C      1  0.4749370000000  0.5400300000000  0.5482320000000 1.0
C      1  0.5302830000000  0.4547990000000  0.5554750000000 1.0
C      1  0.5306030000000  0.5482020000000  0.5570640000000 1.0
C      1  0.4701350000000  0.4530230000000  0.5541410000000 1.0
C      1  0.5636370000000  0.5124380000000  0.5662120000000 1.0
C      1  0.4349150000000  0.4845390000000  0.5636260000000 1.0
C      1  0.4378070000000  0.5111600000000  0.5637870000000 1.0
C      1  0.5664030000000  0.4858350000000  0.5640290000000 1.0
C      1  0.4431380000000  0.4627710000000  0.5483430000000 1.0
C      1  0.5552400000000  0.5339150000000  0.5507070000000 1.0
C      1  0.5581590000000  0.4635560000000  0.5495370000000 1.0
C      1  0.4458280000000  0.5332350000000  0.5490760000000 1.0
C      1  0.5645320000000  0.5353900000000  0.5234630000000 1.0
C      1  0.4340940000000  0.4613110000000  0.5210050000000 1.0
C      1  0.4366570000000  0.5339920000000  0.5219140000000 1.0
C      1  0.5660260000000  0.4626440000000  0.5218730000000 1.0
C      1  0.4350290000000  0.5253170000000  0.4700520000000 1.0
C      1  0.5661830000000  0.4730080000000  0.4687330000000 1.0
C      1  0.5651810000000  0.5249700000000  0.4702900000000 1.0
C      1  0.4344480000000  0.4726880000000  0.4683360000000 1.0
C      1  0.5639400000000  0.5140000000000  0.4440460000000 1.0
C      1  0.4425620000000  0.4852020000000  0.4432010000000 1.0
C      1  0.4362930000000  0.5140990000000  0.4437730000000 1.0
C      1  0.5582030000000  0.4851550000000  0.4433220000000 1.0
C      1  0.5057850000000  0.5089080000000  0.5412260000000 1.0
END
