TITL C-3577087-600-291 -4.33940703818398e-06 125000 -936.843743331321 0 0 152 (C1) n - 1
REM
REM in /home/bkarasulu/work/CARBON/AIRSS/Generating-Clusters/EDIP-Nigel-Params/with-SteepDescent/Higher-Symm/SD-CG/HFTN-CG
REM
REM
REM
REM
REM
REM ./C.cell (12c818d87b63d06a65506943cc24bca4)
REM
REM compiler GCC version 9.2.1 20190827 (Red Hat 9.2.1-1)
REM options -cpp -mtune=generic -march=x86-64 -g -O0 -fpre-include=/usr/include/finclude/math-vector-fortran.h
REM seed -1028351525 -1173868160 -2025822752 1307304155 1524639658 -1663778481 -571076743 -1459290920 -1322793798 746035934 -719260110 -1084043858 -1103492336 -1364470144 -735135433 2048943719 -800831413 -1604753780 1347450615 1964501670 1112247569 -253661139 -866336437 -243133984 -1335032110 -1874274248 -1249060034 -681416253 -293025071 -1608890168 -389486431 -437703896 708168552
REM
CELL 1.54180   50.00000   50.00000   50.00000   90.00000   90.00000   90.00000
LATT -1
SFAC C  
C      1  0.4447660000000  0.4976820000000  0.4468060000000 1.0
C      1  0.4526100000000  0.4689710000000  0.4334660000000 1.0
C      1  0.4740380000000  0.4489680000000  0.4484870000000 1.0
C      1  0.5013420000000  0.4396520000000  0.4374290000000 1.0
C      1  0.5340630000000  0.4561410000000  0.4427750000000 1.0
C      1  0.5446800000000  0.4816460000000  0.4576900000000 1.0
C      1  0.5491000000000  0.5098750000000  0.4444640000000 1.0
C      1  0.5306090000000  0.5307510000000  0.4582110000000 1.0
C      1  0.5057840000000  0.5479460000000  0.4426620000000 1.0
C      1  0.4751440000000  0.5432480000000  0.4514550000000 1.0
C      1  0.4540910000000  0.5266020000000  0.4352640000000 1.0
C      1  0.4276150000000  0.5595530000000  0.5466660000000 1.0
C      1  0.4194570000000  0.5094550000000  0.5512870000000 1.0
C      1  0.4276990000000  0.4573020000000  0.5453930000000 1.0
C      1  0.4689370000000  0.4268910000000  0.5360470000000 1.0
C      1  0.5175380000000  0.4079940000000  0.5355360000000 1.0
C      1  0.5614550000000  0.4341500000000  0.5351360000000 1.0
C      1  0.5835320000000  0.4772340000000  0.5420760000000 1.0
C      1  0.5859680000000  0.5253470000000  0.5546350000000 1.0
C      1  0.5601410000000  0.5675980000000  0.5601590000000 1.0
C      1  0.5190480000000  0.5826400000000  0.5441600000000 1.0
C      1  0.4667600000000  0.5853240000000  0.5364770000000 1.0
C      1  0.4487470000000  0.5203390000000  0.4947610000000 1.0
C      1  0.4446910000000  0.4949300000000  0.4777340000000 1.0
C      1  0.4509130000000  0.4665710000000  0.4908900000000 1.0
C      1  0.4785920000000  0.4595070000000  0.4771280000000 1.0
C      1  0.5239620000000  0.4577250000000  0.5006810000000 1.0
C      1  0.5341480000000  0.4850240000000  0.4873240000000 1.0
C      1  0.5583560000000  0.5072140000000  0.5043130000000 1.0
C      1  0.5297730000000  0.5234860000000  0.4896150000000 1.0
C      1  0.5140270000000  0.5444490000000  0.5071440000000 1.0
C      1  0.4863390000000  0.5520580000000  0.5024310000000 1.0
C      1  0.4715880000000  0.5369680000000  0.4819760000000 1.0
C      1  0.4688200000000  0.5568330000000  0.5269210000000 1.0
C      1  0.4385090000000  0.5472320000000  0.5211410000000 1.0
C      1  0.4401640000000  0.5042240000000  0.5283170000000 1.0
C      1  0.4313880000000  0.4739600000000  0.5201660000000 1.0
C      1  0.4773430000000  0.4522130000000  0.5235770000000 1.0
C      1  0.4945750000000  0.4451940000000  0.4991870000000 1.0
C      1  0.5427920000000  0.4574350000000  0.5246840000000 1.0
C      1  0.5620710000000  0.4807010000000  0.5214130000000 1.0
C      1  0.5614980000000  0.5222830000000  0.5365800000000 1.0
C      1  0.5543310000000  0.5525740000000  0.5346660000000 1.0
C      1  0.5238320000000  0.5545380000000  0.5334440000000 1.0
C      1  0.5956130000000  0.4076330000000  0.4844090000000 1.0
C      1  0.6219330000000  0.4695080000000  0.4942590000000 1.0
C      1  0.6087520000000  0.5322840000000  0.5034280000000 1.0
C      1  0.5637300000000  0.5884010000000  0.5001210000000 1.0
C      1  0.5040130000000  0.6273980000000  0.4806630000000 1.0
C      1  0.4373310000000  0.6025180000000  0.4929570000000 1.0
C      1  0.3973190000000  0.5563580000000  0.4913410000000 1.0
C      1  0.3787840000000  0.4955530000000  0.4936640000000 1.0
C      1  0.4059050000000  0.4410150000000  0.4957590000000 1.0
C      1  0.4633530000000  0.4092190000000  0.5127320000000 1.0
C      1  0.5284960000000  0.3810610000000  0.4959110000000 1.0
C      1  0.4827580000000  0.4059320000000  0.4659850000000 1.0
C      1  0.5338370000000  0.4136040000000  0.4632750000000 1.0
C      1  0.5725360000000  0.4456660000000  0.4681220000000 1.0
C      1  0.5864600000000  0.4953210000000  0.4726210000000 1.0
C      1  0.5757940000000  0.5438180000000  0.4689100000000 1.0
C      1  0.5348750000000  0.5781880000000  0.4659250000000 1.0
C      1  0.4848090000000  0.5890680000000  0.4596850000000 1.0
C      1  0.4364950000000  0.5710410000000  0.4537980000000 1.0
C      1  0.4063630000000  0.5278600000000  0.4499910000000 1.0
C      1  0.4044110000000  0.4754170000000  0.4529230000000 1.0
C      1  0.4322800000000  0.4306280000000  0.4574590000000 1.0
C      1  0.4255690000000  0.4548750000000  0.4410750000000 1.0
C      1  0.4607640000000  0.4225370000000  0.4507100000000 1.0
C      1  0.5074510000000  0.4128410000000  0.4502710000000 1.0
C      1  0.5511700000000  0.4337480000000  0.4525530000000 1.0
C      1  0.5724900000000  0.4732810000000  0.4612270000000 1.0
C      1  0.5767990000000  0.5173770000000  0.4559050000000 1.0
C      1  0.5486650000000  0.5531220000000  0.4627390000000 1.0
C      1  0.5098310000000  0.5766690000000  0.4519370000000 1.0
C      1  0.4651320000000  0.5717360000000  0.4463830000000 1.0
C      1  0.4296680000000  0.5439440000000  0.4411820000000 1.0
C      1  0.4145940000000  0.5002370000000  0.4390590000000 1.0
C      1  0.4925340000000  0.5920140000000  0.5458990000000 1.0
C      1  0.4433900000000  0.5828840000000  0.5532280000000 1.0
C      1  0.4301180000000  0.5354900000000  0.5639070000000 1.0
C      1  0.4275020000000  0.4810070000000  0.5639370000000 1.0
C      1  0.4453500000000  0.4357420000000  0.5506120000000 1.0
C      1  0.4960910000000  0.4216770000000  0.5503560000000 1.0
C      1  0.5446640000000  0.4126090000000  0.5422230000000 1.0
C      1  0.5740960000000  0.4532020000000  0.5559520000000 1.0
C      1  0.5931990000000  0.4984360000000  0.5581860000000 1.0
C      1  0.5702520000000  0.5436590000000  0.5751680000000 1.0
C      1  0.5373530000000  0.5838510000000  0.5661520000000 1.0
C      1  0.5039700000000  0.4467000000000  0.5930120000000 1.0
C      1  0.5294220000000  0.4511080000000  0.6040240000000 1.0
C      1  0.5432380000000  0.4751030000000  0.5988280000000 1.0
C      1  0.5247310000000  0.4971210000000  0.6062920000000 1.0
C      1  0.5350750000000  0.5246390000000  0.6058490000000 1.0
C      1  0.5146150000000  0.5417370000000  0.6145750000000 1.0
C      1  0.4883740000000  0.5429930000000  0.6085060000000 1.0
C      1  0.4665680000000  0.5287070000000  0.5986170000000 1.0
C      1  0.4627990000000  0.5035820000000  0.6095870000000 1.0
C      1  0.4632250000000  0.4785820000000  0.5977930000000 1.0
C      1  0.4827020000000  0.4601280000000  0.6048570000000 1.0
C      1  0.4596620000000  0.4725860000000  0.4042500000000 1.0
C      1  0.4837990000000  0.4601310000000  0.3968020000000 1.0
C      1  0.5055560000000  0.4458670000000  0.4077310000000 1.0
C      1  0.5327520000000  0.4589290000000  0.4125840000000 1.0
C      1  0.5395210000000  0.4847650000000  0.4026250000000 1.0
C      1  0.5465360000000  0.5098230000000  0.4142530000000 1.0
C      1  0.5312730000000  0.5315900000000  0.4051170000000 1.0
C      1  0.5085160000000  0.5462450000000  0.4127570000000 1.0
C      1  0.4842140000000  0.5392090000000  0.3999870000000 1.0
C      1  0.4602950000000  0.5254540000000  0.4061120000000 1.0
C      1  0.4572790000000  0.4993540000000  0.3961860000000 1.0
C      1  0.4579480000000  0.4792920000000  0.5686150000000 1.0
C      1  0.4857600000000  0.4672360000000  0.5484670000000 1.0
C      1  0.5044920000000  0.4477490000000  0.5629180000000 1.0
C      1  0.5303850000000  0.4600190000000  0.5528010000000 1.0
C      1  0.5490780000000  0.4775250000000  0.5689710000000 1.0
C      1  0.5452530000000  0.5074020000000  0.5585460000000 1.0
C      1  0.5418340000000  0.5311120000000  0.5773330000000 1.0
C      1  0.5096170000000  0.5395260000000  0.5572880000000 1.0
C      1  0.4796040000000  0.5467520000000  0.5538910000000 1.0
C      1  0.4597110000000  0.5305020000000  0.5691250000000 1.0
C      1  0.4633600000000  0.5051770000000  0.5527870000000 1.0
C      1  0.4397050000000  0.5767410000000  0.4826000000000 1.0
C      1  0.4000620000000  0.5316570000000  0.4783780000000 1.0
C      1  0.4020170000000  0.4842940000000  0.4818920000000 1.0
C      1  0.4321760000000  0.4391400000000  0.4855950000000 1.0
C      1  0.4881620000000  0.4129430000000  0.4957760000000 1.0
C      1  0.5457100000000  0.3912030000000  0.4768250000000 1.0
C      1  0.5970620000000  0.4322960000000  0.4732430000000 1.0
C      1  0.6139280000000  0.4917120000000  0.4801930000000 1.0
C      1  0.5835130000000  0.5428690000000  0.4970770000000 1.0
C      1  0.5454920000000  0.5989150000000  0.4820870000000 1.0
C      1  0.4810220000000  0.6154630000000  0.4708640000000 1.0
C      1  0.4037050000000  0.4676390000000  0.5061440000000 1.0
C      1  0.4388820000000  0.4168760000000  0.5013310000000 1.0
C      1  0.5100310000000  0.3970260000000  0.5096190000000 1.0
C      1  0.5728410000000  0.3926540000000  0.4828170000000 1.0
C      1  0.6154530000000  0.4427530000000  0.4903780000000 1.0
C      1  0.6236990000000  0.5100350000000  0.4979720000000 1.0
C      1  0.5716530000000  0.5646460000000  0.5130120000000 1.0
C      1  0.5294460000000  0.6210780000000  0.4863210000000 1.0
C      1  0.4566940000000  0.6198270000000  0.4836910000000 1.0
C      1  0.4214300000000  0.5680860000000  0.5038370000000 1.0
C      1  0.3768790000000  0.5232540000000  0.4915910000000 1.0
C      1  0.4891810000000  0.5007710000000  0.5172210000000 1.0
C      1  0.5013200000000  0.5091930000000  0.5609440000000 1.0
C      1  0.5008930000000  0.5000890000000  0.3962190000000 1.0
C      1  0.5042910000000  0.4971400000000  0.5867940000000 1.0
C      1  0.5018460000000  0.5033650000000  0.4228820000000 1.0
C      1  0.5016380000000  0.4903360000000  0.5388970000000 1.0
C      1  0.4911980000000  0.4926360000000  0.4449190000000 1.0
C      1  0.4937070000000  0.4827790000000  0.4702160000000 1.0
C      1  0.4936880000000  0.5000460000000  0.4910140000000 1.0
END
