TITL C-3577076-40-378 -6.31859154459652e-07 125000 -648.141662129105 0 0 102 (C1) n - 1
REM
REM in /home/bkarasulu/work/CARBON/AIRSS/Generating-Clusters/EDIP-Nigel-Params/with-SteepDescent/Higher-Symm/SD-CG/HFTN-CG
REM
REM
REM
REM
REM
REM ./C.cell (12c818d87b63d06a65506943cc24bca4)
REM
REM compiler GCC version 9.2.1 20190827 (Red Hat 9.2.1-1)
REM options -cpp -mtune=generic -march=x86-64 -g -O0 -fpre-include=/usr/include/finclude/math-vector-fortran.h
REM seed -2138686192 -324927107 743561300 -744171169 976252043 -729597465 368091119 573674898 1031602981 1708490731 -480732142 347019334 1477417446 -201720431 -810806200 -1926249644 -1756354867 -1546116636 -1199395252 -147851614 610604699 2087737304 -143062661 1579455581 -2059541560 311898176 -921283944 -1843811321 26950813 -2027701 1249820046 -1901222198 -1118315957
REM
CELL 1.54180   50.00000   50.00000   50.00000   90.00000   90.00000   90.00000
LATT -1
SFAC C  
C      1  0.5546480000000  0.4454050000000  0.4752530000000 1.0
C      1  0.4456130000000  0.5552520000000  0.5234790000000 1.0
C      1  0.4748680000000  0.5278360000000  0.4864810000000 1.0
C      1  0.5247400000000  0.4720940000000  0.5144470000000 1.0
C      1  0.5142940000000  0.5227130000000  0.5348030000000 1.0
C      1  0.4853150000000  0.4770440000000  0.4656060000000 1.0
C      1  0.5515680000000  0.4947080000000  0.5550260000000 1.0
C      1  0.4482140000000  0.5047090000000  0.4448180000000 1.0
C      1  0.4455920000000  0.5316570000000  0.5674380000000 1.0
C      1  0.5537270000000  0.4695160000000  0.4320290000000 1.0
C      1  0.5126690000000  0.4820170000000  0.4138400000000 1.0
C      1  0.4864320000000  0.5176720000000  0.5862710000000 1.0
C      1  0.4676610000000  0.4649800000000  0.4100620000000 1.0
C      1  0.5318950000000  0.5336710000000  0.5906430000000 1.0
C      1  0.4585170000000  0.4806310000000  0.4840830000000 1.0
C      1  0.5412000000000  0.5194490000000  0.5162670000000 1.0
C      1  0.5550460000000  0.4997400000000  0.4279770000000 1.0
C      1  0.4435090000000  0.5015370000000  0.5715910000000 1.0
C      1  0.5696070000000  0.4618460000000  0.4557650000000 1.0
C      1  0.4302940000000  0.5394210000000  0.5432530000000 1.0
C      1  0.5243360000000  0.5263880000000  0.3960440000000 1.0
C      1  0.4718850000000  0.4731660000000  0.6029060000000 1.0
C      1  0.4212440000000  0.5140060000000  0.5299930000000 1.0
C      1  0.5781500000000  0.4872780000000  0.4694170000000 1.0
C      1  0.4103800000000  0.4849660000000  0.4747210000000 1.0
C      1  0.5893160000000  0.5151640000000  0.5250330000000 1.0
C      1  0.4388700000000  0.4615760000000  0.5317630000000 1.0
C      1  0.5601290000000  0.5387430000000  0.4679890000000 1.0
C      1  0.5152550000000  0.5116860000000  0.5846580000000 1.0
C      1  0.4838870000000  0.4873800000000  0.4156140000000 1.0
C      1  0.4671610000000  0.4999220000000  0.5277130000000 1.0
C      1  0.5322020000000  0.5004160000000  0.4726260000000 1.0
C      1  0.5293890000000  0.5059210000000  0.4147670000000 1.0
C      1  0.4687880000000  0.4943420000000  0.5847120000000 1.0
C      1  0.4398150000000  0.5326980000000  0.4520950000000 1.0
C      1  0.5604040000000  0.4668300000000  0.5472340000000 1.0
C      1  0.4741140000000  0.4291330000000  0.4754040000000 1.0
C      1  0.5256760000000  0.5710430000000  0.5263270000000 1.0
C      1  0.4710800000000  0.5836250000000  0.5514790000000 1.0
C      1  0.5294850000000  0.4163530000000  0.4470750000000 1.0
C      1  0.4080680000000  0.5130890000000  0.4809260000000 1.0
C      1  0.5917790000000  0.4871650000000  0.5185500000000 1.0
C      1  0.5047380000000  0.4184210000000  0.5383810000000 1.0
C      1  0.5003200000000  0.5817150000000  0.4619100000000 1.0
C      1  0.4736850000000  0.5762330000000  0.4766680000000 1.0
C      1  0.5287250000000  0.4231770000000  0.5212270000000 1.0
C      1  0.5706100000000  0.4813620000000  0.4980220000000 1.0
C      1  0.4291480000000  0.5192600000000  0.5014450000000 1.0
C      1  0.5079430000000  0.4286870000000  0.5639420000000 1.0
C      1  0.5068060000000  0.5675820000000  0.4378120000000 1.0
C      1  0.4456340000000  0.4390460000000  0.4773520000000 1.0
C      1  0.5539450000000  0.5609140000000  0.5237840000000 1.0
C      1  0.5236350000000  0.4648210000000  0.4362430000000 1.0
C      1  0.4758550000000  0.5354810000000  0.5639430000000 1.0
C      1  0.4785620000000  0.4267000000000  0.5249060000000 1.0
C      1  0.5236140000000  0.5741010000000  0.4785260000000 1.0
C      1  0.4965230000000  0.4648290000000  0.5000610000000 1.0
C      1  0.5032870000000  0.5354820000000  0.5004970000000 1.0
C      1  0.4846470000000  0.4368160000000  0.4485050000000 1.0
C      1  0.5152060000000  0.5626290000000  0.5526860000000 1.0
C      1  0.5663920000000  0.5427450000000  0.4980420000000 1.0
C      1  0.4328390000000  0.4574190000000  0.5017760000000 1.0
C      1  0.5326800000000  0.5503030000000  0.4615700000000 1.0
C      1  0.4658990000000  0.4510260000000  0.5382040000000 1.0
C      1  0.4366530000000  0.5481170000000  0.4975750000000 1.0
C      1  0.5636740000000  0.4524870000000  0.5010970000000 1.0
C      1  0.4776540000000  0.4986990000000  0.4431440000000 1.0
C      1  0.5219590000000  0.5008720000000  0.5570210000000 1.0
C      1  0.5083660000000  0.4548670000000  0.5720820000000 1.0
C      1  0.4925770000000  0.5451240000000  0.4291960000000 1.0
C      1  0.5590250000000  0.5451420000000  0.5492040000000 1.0
C      1  0.4406710000000  0.4542820000000  0.4515410000000 1.0
C      1  0.5349680000000  0.5464170000000  0.5656380000000 1.0
C      1  0.4647430000000  0.4526640000000  0.4352710000000 1.0
C      1  0.4596580000000  0.5801130000000  0.5264170000000 1.0
C      1  0.5406820000000  0.4204300000000  0.4721240000000 1.0
C      1  0.4123670000000  0.5301100000000  0.4587180000000 1.0
C      1  0.5877880000000  0.4698900000000  0.5406030000000 1.0
C      1  0.4579580000000  0.5062560000000  0.4993220000000 1.0
C      1  0.5415750000000  0.4938840000000  0.5010100000000 1.0
C      1  0.4941810000000  0.4598720000000  0.5953960000000 1.0
C      1  0.5006220000000  0.5375200000000  0.4035740000000 1.0
C      1  0.4836920000000  0.5228380000000  0.5378800000000 1.0
C      1  0.5158490000000  0.4773720000000  0.4624350000000 1.0
C      1  0.4370840000000  0.4821420000000  0.4620450000000 1.0
C      1  0.5626870000000  0.5175870000000  0.5381100000000 1.0
C      1  0.4064010000000  0.4670060000000  0.4957360000000 1.0
C      1  0.5928040000000  0.5330750000000  0.5038690000000 1.0
C      1  0.5587410000000  0.5078590000000  0.4578100000000 1.0
C      1  0.4400770000000  0.4931380000000  0.5420250000000 1.0
C      1  0.5081220000000  0.5662180000000  0.5027110000000 1.0
C      1  0.4922300000000  0.4342240000000  0.4987740000000 1.0
C      1  0.5078010000000  0.4751480000000  0.5496050000000 1.0
C      1  0.4920100000000  0.5244400000000  0.4507560000000 1.0
C      1  0.4564480000000  0.5488000000000  0.4752290000000 1.0
C      1  0.5441950000000  0.4508220000000  0.5234630000000 1.0
C      1  0.4831460000000  0.4736450000000  0.5290410000000 1.0
C      1  0.5161910000000  0.5266270000000  0.4713910000000 1.0
C      1  0.4872930000000  0.5640040000000  0.5631930000000 1.0
C      1  0.5124150000000  0.4361620000000  0.4370230000000 1.0
C      1  0.5232650000000  0.4139520000000  0.4941930000000 1.0
C      1  0.4769130000000  0.5866560000000  0.5040970000000 1.0
END
