TITL C-3578206-1180-111 -1.5400078054814e-06 125000 -1214.16157979906 0 0 194 (C1) n - 1
REM
REM in /home/bkarasulu/work/CARBON/AIRSS/Generating-Clusters/EDIP-Nigel-Params/with-SteepDescent/Higher-Symm/SD-CG/HFTN-CG
REM
REM
REM
REM
REM
REM ./C.cell (12c818d87b63d06a65506943cc24bca4)
REM
REM compiler GCC version 9.2.1 20190827 (Red Hat 9.2.1-1)
REM options -cpp -mtune=generic -march=x86-64 -g -O0 -fpre-include=/usr/include/finclude/math-vector-fortran.h
REM seed -764804601 836301686 -967557442 -1763282065 -617441205 -1987530132 738002000 -2126817664 -777980680 1602072527 -784690811 -541685992 409271662 -1514495506 42642409 -1984881750 -1402357906 -726179969 964774899 -1865730557 672480498 594290346 -765646966 -465806770 -1503836036 -1012865293 -17259685 571272588 1255731615 1137423679 629646337 -1139978642 -1001965205
REM
CELL 1.54180   50.00000   50.00000   50.00000   90.00000   90.00000   90.00000
LATT -1
SFAC C  
C      1  0.6052470000000  0.4588700000000  0.4764340000000 1.0
C      1  0.4817010000000  0.6113560000000  0.4772590000000 1.0
C      1  0.4125630000000  0.4296200000000  0.4767460000000 1.0
C      1  0.3928460000000  0.4593400000000  0.5226710000000 1.0
C      1  0.5156430000000  0.6154280000000  0.5246070000000 1.0
C      1  0.5882680000000  0.4279550000000  0.5230040000000 1.0
C      1  0.4505920000000  0.4169650000000  0.5541340000000 1.0
C      1  0.5931690000000  0.4972200000000  0.5534990000000 1.0
C      1  0.4488980000000  0.5872240000000  0.5545620000000 1.0
C      1  0.5504770000000  0.4123990000000  0.4452740000000 1.0
C      1  0.4043400000000  0.4990900000000  0.4453910000000 1.0
C      1  0.5508680000000  0.5885750000000  0.4485890000000 1.0
C      1  0.5571400000000  0.4918910000000  0.4970880000000 1.0
C      1  0.4791580000000  0.5548750000000  0.5024120000000 1.0
C      1  0.4652860000000  0.4554010000000  0.5017730000000 1.0
C      1  0.4363410000000  0.4935290000000  0.5027260000000 1.0
C      1  0.5259230000000  0.5605590000000  0.5006610000000 1.0
C      1  0.5360320000000  0.4502940000000  0.4985530000000 1.0
C      1  0.6010950000000  0.5460460000000  0.4937270000000 1.0
C      1  0.4136100000000  0.5704990000000  0.4884870000000 1.0
C      1  0.4815090000000  0.3891850000000  0.4886260000000 1.0
C      1  0.3915160000000  0.5388660000000  0.5097900000000 1.0
C      1  0.5797580000000  0.5772930000000  0.5171340000000 1.0
C      1  0.5194340000000  0.3853090000000  0.5105590000000 1.0
C      1  0.5272430000000  0.6179240000000  0.4970620000000 1.0
C      1  0.3849640000000  0.4675960000000  0.4949530000000 1.0
C      1  0.5833890000000  0.4169830000000  0.4960730000000 1.0
C      1  0.4697740000000  0.6132790000000  0.5042210000000 1.0
C      1  0.6139920000000  0.4674250000000  0.5036980000000 1.0
C      1  0.4171930000000  0.4189980000000  0.5039100000000 1.0
C      1  0.5191120000000  0.5691660000000  0.5268620000000 1.0
C      1  0.4324650000000  0.4827910000000  0.5281270000000 1.0
C      1  0.5486650000000  0.4520060000000  0.5248950000000 1.0
C      1  0.4848290000000  0.5647670000000  0.4749100000000 1.0
C      1  0.5630030000000  0.4792810000000  0.4708900000000 1.0
C      1  0.4518350000000  0.4552180000000  0.4750740000000 1.0
C      1  0.4421090000000  0.4042010000000  0.5039110000000 1.0
C      1  0.6163930000000  0.4971070000000  0.5041810000000 1.0
C      1  0.4437850000000  0.6003410000000  0.5041210000000 1.0
C      1  0.5582440000000  0.4024110000000  0.4962660000000 1.0
C      1  0.3812860000000  0.4969020000000  0.4940080000000 1.0
C      1  0.5553660000000  0.6086770000000  0.4973800000000 1.0
C      1  0.4547460000000  0.4002940000000  0.4776410000000 1.0
C      1  0.6026010000000  0.5093050000000  0.4798590000000 1.0
C      1  0.4358300000000  0.5897230000000  0.4777350000000 1.0
C      1  0.5455870000000  0.3970090000000  0.5221900000000 1.0
C      1  0.3866670000000  0.5099500000000  0.5202240000000 1.0
C      1  0.5614610000000  0.5993100000000  0.5246210000000 1.0
C      1  0.4393550000000  0.5001510000000  0.4060490000000 1.0
C      1  0.5305980000000  0.4464880000000  0.4058680000000 1.0
C      1  0.5311910000000  0.5520640000000  0.4064640000000 1.0
C      1  0.5623280000000  0.4987190000000  0.5937770000000 1.0
C      1  0.4691590000000  0.4495600000000  0.5927710000000 1.0
C      1  0.4693010000000  0.5529990000000  0.5903340000000 1.0
C      1  0.4159360000000  0.4390480000000  0.5257910000000 1.0
C      1  0.5954120000000  0.4576710000000  0.5252250000000 1.0
C      1  0.4873280000000  0.6042620000000  0.5264380000000 1.0
C      1  0.5841590000000  0.4366970000000  0.4737630000000 1.0
C      1  0.4043210000000  0.4588480000000  0.4739620000000 1.0
C      1  0.5112980000000  0.6044600000000  0.4755100000000 1.0
C      1  0.5128570000000  0.4743190000000  0.4054640000000 1.0
C      1  0.5184600000000  0.5244860000000  0.4009640000000 1.0
C      1  0.4706590000000  0.5041780000000  0.4035570000000 1.0
C      1  0.4884020000000  0.4754410000000  0.5921800000000 1.0
C      1  0.4836500000000  0.5235260000000  0.5920420000000 1.0
C      1  0.5331190000000  0.5055890000000  0.6019800000000 1.0
C      1  0.4618720000000  0.4480980000000  0.5497130000000 1.0
C      1  0.5664370000000  0.4928700000000  0.5422240000000 1.0
C      1  0.4762740000000  0.5594170000000  0.5523110000000 1.0
C      1  0.5391600000000  0.4431360000000  0.4487510000000 1.0
C      1  0.4315480000000  0.4951370000000  0.4567590000000 1.0
C      1  0.5289010000000  0.5623280000000  0.4490360000000 1.0
C      1  0.4719810000000  0.4975470000000  0.6038910000000 1.0
C      1  0.5195110000000  0.4787110000000  0.6055610000000 1.0
C      1  0.5129770000000  0.5283440000000  0.5995660000000 1.0
C      1  0.5304380000000  0.4971090000000  0.3940810000000 1.0
C      1  0.4826980000000  0.4782500000000  0.3964740000000 1.0
C      1  0.4887850000000  0.5276000000000  0.3972650000000 1.0
C      1  0.5167080000000  0.5577990000000  0.5983170000000 1.0
C      1  0.4440930000000  0.4883420000000  0.6024330000000 1.0
C      1  0.5405450000000  0.4577280000000  0.6036750000000 1.0
C      1  0.4843760000000  0.5553090000000  0.4066920000000 1.0
C      1  0.5586100000000  0.4849170000000  0.3990810000000 1.0
C      1  0.4605900000000  0.4585600000000  0.3969480000000 1.0
C      1  0.5582590000000  0.5358200000000  0.4773270000000 1.0
C      1  0.4387710000000  0.5351690000000  0.4811100000000 1.0
C      1  0.5012530000000  0.4268750000000  0.4770160000000 1.0
C      1  0.4399210000000  0.5395430000000  0.5254290000000 1.0
C      1  0.5665310000000  0.5414550000000  0.5265920000000 1.0
C      1  0.4988000000000  0.4285510000000  0.5240080000000 1.0
C      1  0.4613960000000  0.5287580000000  0.4386310000000 1.0
C      1  0.4917180000000  0.4539030000000  0.4388200000000 1.0
C      1  0.5430580000000  0.5148210000000  0.4360800000000 1.0
C      1  0.5343880000000  0.5224790000000  0.5614480000000 1.0
C      1  0.5122920000000  0.4571010000000  0.5594850000000 1.0
C      1  0.4584730000000  0.5102850000000  0.5584330000000 1.0
C      1  0.5434880000000  0.4253330000000  0.5840070000000 1.0
C      1  0.5390220000000  0.5700910000000  0.5829120000000 1.0
C      1  0.4135250000000  0.5000230000000  0.5828170000000 1.0
C      1  0.4574320000000  0.4272460000000  0.4162710000000 1.0
C      1  0.4608700000000  0.5699990000000  0.4173560000000 1.0
C      1  0.5818420000000  0.4972920000000  0.4144060000000 1.0
C      1  0.5175170000000  0.4748350000000  0.4749630000000 1.0
C      1  0.5082680000000  0.5231780000000  0.4650520000000 1.0
C      1  0.4740620000000  0.4925590000000  0.4684660000000 1.0
C      1  0.4872760000000  0.4761880000000  0.5199860000000 1.0
C      1  0.4859070000000  0.5265470000000  0.5180590000000 1.0
C      1  0.5315920000000  0.5040200000000  0.5136800000000 1.0
C      1  0.5840780000000  0.5131640000000  0.5790400000000 1.0
C      1  0.4435350000000  0.5657800000000  0.5772160000000 1.0
C      1  0.4706290000000  0.4219100000000  0.5796220000000 1.0
C      1  0.4159940000000  0.5142800000000  0.4197800000000 1.0
C      1  0.5556070000000  0.5634620000000  0.4200020000000 1.0
C      1  0.5286620000000  0.4186470000000  0.4183960000000 1.0
C      1  0.4971620000000  0.4130160000000  0.5759080000000 1.0
C      1  0.5779930000000  0.5403720000000  0.5756110000000 1.0
C      1  0.4248920000000  0.5457170000000  0.5711700000000 1.0
C      1  0.5020710000000  0.4094560000000  0.4216740000000 1.0
C      1  0.4193150000000  0.5422980000000  0.4210720000000 1.0
C      1  0.5774740000000  0.5457060000000  0.4217590000000 1.0
C      1  0.5330570000000  0.5942760000000  0.5369810000000 1.0
C      1  0.4029770000000  0.4843660000000  0.5359440000000 1.0
C      1  0.5609040000000  0.4257530000000  0.5354770000000 1.0
C      1  0.4672790000000  0.5882430000000  0.4648070000000 1.0
C      1  0.5921950000000  0.4824210000000  0.4629720000000 1.0
C      1  0.4399580000000  0.4282680000000  0.4644560000000 1.0
C      1  0.4788860000000  0.4282130000000  0.5009630000000 1.0
C      1  0.5746320000000  0.5163530000000  0.4922220000000 1.0
C      1  0.4492280000000  0.5568400000000  0.5019230000000 1.0
C      1  0.5204400000000  0.4250560000000  0.5003320000000 1.0
C      1  0.4260240000000  0.5209200000000  0.5043600000000 1.0
C      1  0.5538070000000  0.5539920000000  0.4997350000000 1.0
C      1  0.5490850000000  0.5155430000000  0.5358660000000 1.0
C      1  0.4648660000000  0.5325880000000  0.5396380000000 1.0
C      1  0.4911000000000  0.4529910000000  0.5394090000000 1.0
C      1  0.4528010000000  0.5148790000000  0.4628230000000 1.0
C      1  0.5354390000000  0.5332190000000  0.4578260000000 1.0
C      1  0.5112940000000  0.4497420000000  0.4598230000000 1.0
C      1  0.5659650000000  0.4292230000000  0.5658850000000 1.0
C      1  0.5270340000000  0.5936180000000  0.5671180000000 1.0
C      1  0.4047980000000  0.4777640000000  0.5662510000000 1.0
C      1  0.4344400000000  0.4308950000000  0.4340020000000 1.0
C      1  0.4730900000000  0.5916990000000  0.4347760000000 1.0
C      1  0.5929530000000  0.4757240000000  0.4325940000000 1.0
C      1  0.4434200000000  0.4556700000000  0.5253200000000 1.0
C      1  0.5683220000000  0.4732300000000  0.5207650000000 1.0
C      1  0.4902010000000  0.5728510000000  0.5259580000000 1.0
C      1  0.5562920000000  0.4514350000000  0.4737560000000 1.0
C      1  0.4306420000000  0.4754690000000  0.4783950000000 1.0
C      1  0.5128920000000  0.5728350000000  0.4759200000000 1.0
C      1  0.5581510000000  0.4559870000000  0.4050050000000 1.0
C      1  0.5086620000000  0.5697950000000  0.4107480000000 1.0
C      1  0.4352600000000  0.4709970000000  0.4048490000000 1.0
C      1  0.4420240000000  0.4604170000000  0.5940540000000 1.0
C      1  0.4918090000000  0.5718760000000  0.5919560000000 1.0
C      1  0.5654040000000  0.4696260000000  0.5946180000000 1.0
C      1  0.4824190000000  0.4273380000000  0.4300300000000 1.0
C      1  0.5713520000000  0.5196950000000  0.4299710000000 1.0
C      1  0.4438040000000  0.5509050000000  0.4317060000000 1.0
C      1  0.5168610000000  0.4328320000000  0.5756980000000 1.0
C      1  0.4328970000000  0.5188220000000  0.5723480000000 1.0
C      1  0.5522350000000  0.5482570000000  0.5674980000000 1.0
C      1  0.4205050000000  0.4560660000000  0.4263470000000 1.0
C      1  0.5772420000000  0.4507040000000  0.4271890000000 1.0
C      1  0.5032250000000  0.5923360000000  0.4291370000000 1.0
C      1  0.5796410000000  0.4545920000000  0.5732030000000 1.0
C      1  0.4237590000000  0.4552900000000  0.5711580000000 1.0
C      1  0.4971340000000  0.5927950000000  0.5724680000000 1.0
C      1  0.5181430000000  0.3861280000000  0.4805240000000 1.0
C      1  0.5904300000000  0.5753160000000  0.4883710000000 1.0
C      1  0.3946200000000  0.5393530000000  0.4797530000000 1.0
C      1  0.4823450000000  0.3879680000000  0.5185800000000 1.0
C      1  0.4103070000000  0.5714410000000  0.5182850000000 1.0
C      1  0.5970920000000  0.5375040000000  0.5225840000000 1.0
C      1  0.5790460000000  0.4259570000000  0.4450580000000 1.0
C      1  0.5238640000000  0.6055430000000  0.4476480000000 1.0
C      1  0.3990110000000  0.4680610000000  0.4442200000000 1.0
C      1  0.4222420000000  0.4299020000000  0.5548040000000 1.0
C      1  0.4753460000000  0.6034570000000  0.5545170000000 1.0
C      1  0.6001580000000  0.4671410000000  0.5548850000000 1.0
C      1  0.4838600000000  0.4908980000000  0.5617140000000 1.0
C      1  0.5218930000000  0.4855780000000  0.5650190000000 1.0
C      1  0.5021760000000  0.5177180000000  0.5584290000000 1.0
C      1  0.5171160000000  0.4896910000000  0.4352400000000 1.0
C      1  0.4789970000000  0.4818510000000  0.4402030000000 1.0
C      1  0.4962550000000  0.5154660000000  0.4379340000000 1.0
C      1  0.5428450000000  0.3987300000000  0.4720550000000 1.0
C      1  0.5654250000000  0.5895140000000  0.4768010000000 1.0
C      1  0.3884350000000  0.5126750000000  0.4692980000000 1.0
C      1  0.4577380000000  0.4005970000000  0.5281790000000 1.0
C      1  0.4325190000000  0.5879290000000  0.5281700000000 1.0
C      1  0.6083510000000  0.5112500000000  0.5299420000000 1.0
C      1  0.5004380000000  0.4984160000000  0.4800230000000 1.0
C      1  0.5010460000000  0.5016450000000  0.5100130000000 1.0
END
