TITL C-3577083-591-735 -4.40082633574509e-06 125000 -983.589254932783 0 0 157 (C1) n - 1
REM
REM in /home/bkarasulu/work/CARBON/AIRSS/Generating-Clusters/EDIP-Nigel-Params/with-SteepDescent/Higher-Symm/SD-CG/HFTN-CG
REM
REM
REM
REM
REM
REM ./C.cell (12c818d87b63d06a65506943cc24bca4)
REM
REM compiler GCC version 9.2.1 20190827 (Red Hat 9.2.1-1)
REM options -cpp -mtune=generic -march=x86-64 -g -O0 -fpre-include=/usr/include/finclude/math-vector-fortran.h
REM seed -1800236108 1449821087 -2035054960 1033118742 1596521802 -891316130 170708944 216873997 -861850067 1246658477 -698957470 1275854797 1817549864 480881253 351209047 219864108 -2025437814 1894137256 163964315 1100764188 1612959101 -318972546 -1124675913 -2092354530 -1443350239 42515407 230123173 -62441207 -383087555 1463234596 -1328805318 -1921210107 1264918529
REM
CELL 1.54180   50.00000   50.00000   50.00000   90.00000   90.00000   90.00000
LATT -1
SFAC C  
C      1  0.5368140000000  0.5528580000000  0.4011130000000 1.0
C      1  0.5868960000000  0.5331370000000  0.4740150000000 1.0
C      1  0.5794600000000  0.5517880000000  0.5588690000000 1.0
C      1  0.5018700000000  0.5628010000000  0.6053610000000 1.0
C      1  0.4324700000000  0.5337980000000  0.5661660000000 1.0
C      1  0.3995280000000  0.5523380000000  0.4872200000000 1.0
C      1  0.4530630000000  0.5520590000000  0.4131170000000 1.0
C      1  0.4369320000000  0.5696380000000  0.4525940000000 1.0
C      1  0.4985680000000  0.5633160000000  0.4235480000000 1.0
C      1  0.5637860000000  0.5668750000000  0.4472450000000 1.0
C      1  0.5717600000000  0.5623570000000  0.5168060000000 1.0
C      1  0.5341930000000  0.5694640000000  0.5710430000000 1.0
C      1  0.4707020000000  0.5630050000000  0.5734550000000 1.0
C      1  0.4276900000000  0.5617090000000  0.5199240000000 1.0
C      1  0.5861420000000  0.5238170000000  0.4458130000000 1.0
C      1  0.5942310000000  0.5244740000000  0.5357340000000 1.0
C      1  0.5256660000000  0.5271790000000  0.5943470000000 1.0
C      1  0.4515470000000  0.5252510000000  0.5876620000000 1.0
C      1  0.3980260000000  0.5242260000000  0.5133270000000 1.0
C      1  0.4247770000000  0.5287960000000  0.4234350000000 1.0
C      1  0.5118460000000  0.5239190000000  0.3991380000000 1.0
C      1  0.4899990000000  0.4495480000000  0.5894200000000 1.0
C      1  0.4261880000000  0.4524910000000  0.5437220000000 1.0
C      1  0.4152500000000  0.4554750000000  0.4657540000000 1.0
C      1  0.4672880000000  0.4566740000000  0.3984770000000 1.0
C      1  0.5491400000000  0.4518260000000  0.4212970000000 1.0
C      1  0.5857530000000  0.4502220000000  0.4969720000000 1.0
C      1  0.5717260000000  0.4584480000000  0.5820810000000 1.0
C      1  0.5239320000000  0.5965740000000  0.4642780000000 1.0
C      1  0.5331110000000  0.5926630000000  0.4930530000000 1.0
C      1  0.5197870000000  0.5996130000000  0.5290120000000 1.0
C      1  0.4905260000000  0.6011070000000  0.5400860000000 1.0
C      1  0.4670450000000  0.5949960000000  0.5219830000000 1.0
C      1  0.4727950000000  0.5935140000000  0.4901440000000 1.0
C      1  0.4942210000000  0.5991420000000  0.4608980000000 1.0
C      1  0.4637890000000  0.4905600000000  0.5465570000000 1.0
C      1  0.4472750000000  0.4858680000000  0.5059850000000 1.0
C      1  0.4602460000000  0.4905300000000  0.4552940000000 1.0
C      1  0.5094000000000  0.4865350000000  0.4387580000000 1.0
C      1  0.5462350000000  0.4885800000000  0.4790210000000 1.0
C      1  0.5441140000000  0.4814540000000  0.5219020000000 1.0
C      1  0.5138910000000  0.4864020000000  0.5588770000000 1.0
C      1  0.4620330000000  0.4520850000000  0.5841510000000 1.0
C      1  0.4121230000000  0.4533190000000  0.5185220000000 1.0
C      1  0.4302980000000  0.4545770000000  0.4417500000000 1.0
C      1  0.4939810000000  0.4519930000000  0.4057680000000 1.0
C      1  0.5628670000000  0.4519240000000  0.4463760000000 1.0
C      1  0.5846500000000  0.4523830000000  0.5264680000000 1.0
C      1  0.5439390000000  0.4547070000000  0.5845620000000 1.0
C      1  0.5694900000000  0.4289150000000  0.4839620000000 1.0
C      1  0.5486560000000  0.4267300000000  0.5438880000000 1.0
C      1  0.5043250000000  0.4372220000000  0.5628970000000 1.0
C      1  0.4552810000000  0.4413590000000  0.5415300000000 1.0
C      1  0.4421160000000  0.4364580000000  0.4863360000000 1.0
C      1  0.4765970000000  0.4345810000000  0.4500150000000 1.0
C      1  0.5213220000000  0.4370260000000  0.4429400000000 1.0
C      1  0.5650860000000  0.5061410000000  0.5786920000000 1.0
C      1  0.4839760000000  0.4983080000000  0.6076030000000 1.0
C      1  0.4136620000000  0.5019900000000  0.5520820000000 1.0
C      1  0.4074680000000  0.5047870000000  0.4607260000000 1.0
C      1  0.4692660000000  0.5048980000000  0.3986190000000 1.0
C      1  0.5547200000000  0.5016110000000  0.4177260000000 1.0
C      1  0.5952400000000  0.5006750000000  0.4945680000000 1.0
C      1  0.4459170000000  0.5619840000000  0.5601080000000 1.0
C      1  0.4201280000000  0.5725350000000  0.4950420000000 1.0
C      1  0.4565190000000  0.5739260000000  0.4327630000000 1.0
C      1  0.5251140000000  0.5722900000000  0.4197670000000 1.0
C      1  0.5745480000000  0.5615230000000  0.4727630000000 1.0
C      1  0.5680070000000  0.5744920000000  0.5423860000000 1.0
C      1  0.5104320000000  0.5798450000000  0.5835680000000 1.0
C      1  0.4522870000000  0.4789900000000  0.5745420000000 1.0
C      1  0.4158300000000  0.4805810000000  0.5069920000000 1.0
C      1  0.4406260000000  0.4817810000000  0.4333520000000 1.0
C      1  0.5099100000000  0.4781650000000  0.4098270000000 1.0
C      1  0.5692870000000  0.4780020000000  0.4597010000000 1.0
C      1  0.5750250000000  0.4792970000000  0.5351420000000 1.0
C      1  0.5257630000000  0.4793610000000  0.5861030000000 1.0
C      1  0.4895740000000  0.3827940000000  0.4687560000000 1.0
C      1  0.5165700000000  0.3900450000000  0.4700350000000 1.0
C      1  0.5296580000000  0.3791440000000  0.4921260000000 1.0
C      1  0.5293380000000  0.3893860000000  0.5183140000000 1.0
C      1  0.5032060000000  0.3877170000000  0.5311030000000 1.0
C      1  0.4839910000000  0.3757090000000  0.5139320000000 1.0
C      1  0.4726190000000  0.3867670000000  0.4906620000000 1.0
C      1  0.4974010000000  0.5326670000000  0.6035170000000 1.0
C      1  0.4371110000000  0.5178890000000  0.5407350000000 1.0
C      1  0.4077870000000  0.5338080000000  0.4668910000000 1.0
C      1  0.4686890000000  0.5278320000000  0.4172950000000 1.0
C      1  0.5533880000000  0.5317550000000  0.4125280000000 1.0
C      1  0.5685510000000  0.5173060000000  0.4936360000000 1.0
C      1  0.5598090000000  0.5302350000000  0.5625270000000 1.0
C      1  0.4488870000000  0.4338410000000  0.4429600000000 1.0
C      1  0.4966360000000  0.4320490000000  0.4272910000000 1.0
C      1  0.5730260000000  0.4281460000000  0.4563330000000 1.0
C      1  0.5761060000000  0.4302050000000  0.5410330000000 1.0
C      1  0.5333670000000  0.4338120000000  0.5676170000000 1.0
C      1  0.4559090000000  0.4304340000000  0.5683660000000 1.0
C      1  0.4192530000000  0.4314980000000  0.5028720000000 1.0
C      1  0.5339030000000  0.5717750000000  0.4491440000000 1.0
C      1  0.5542030000000  0.5678640000000  0.4942360000000 1.0
C      1  0.5374110000000  0.5750690000000  0.5423030000000 1.0
C      1  0.4924010000000  0.5773170000000  0.5595300000000 1.0
C      1  0.4536240000000  0.5679090000000  0.5313520000000 1.0
C      1  0.4475480000000  0.5706780000000  0.4809780000000 1.0
C      1  0.4836160000000  0.5740910000000  0.4467110000000 1.0
C      1  0.4680050000000  0.4160410000000  0.4968100000000 1.0
C      1  0.4911230000000  0.4313310000000  0.4815310000000 1.0
C      1  0.5191620000000  0.4198090000000  0.4709760000000 1.0
C      1  0.5404370000000  0.4303070000000  0.4918730000000 1.0
C      1  0.5321500000000  0.4194830000000  0.5204790000000 1.0
C      1  0.4937960000000  0.4140360000000  0.5407240000000 1.0
C      1  0.4685080000000  0.4189830000000  0.5269140000000 1.0
C      1  0.5729370000000  0.5444860000000  0.4298880000000 1.0
C      1  0.5715430000000  0.5333950000000  0.5198800000000 1.0
C      1  0.5341680000000  0.5405380000000  0.5707010000000 1.0
C      1  0.4770390000000  0.5360820000000  0.5812690000000 1.0
C      1  0.4248740000000  0.5334470000000  0.5182460000000 1.0
C      1  0.4188020000000  0.5476560000000  0.4447600000000 1.0
C      1  0.4972320000000  0.5334340000000  0.4230820000000 1.0
C      1  0.5270760000000  0.4642670000000  0.4796860000000 1.0
C      1  0.5240280000000  0.4570380000000  0.5229650000000 1.0
C      1  0.5038890000000  0.4619240000000  0.5446700000000 1.0
C      1  0.4748580000000  0.4652540000000  0.5328730000000 1.0
C      1  0.4612470000000  0.4610830000000  0.4959810000000 1.0
C      1  0.4741150000000  0.4686650000000  0.4689420000000 1.0
C      1  0.5101410000000  0.4629350000000  0.4559310000000 1.0
C      1  0.5402920000000  0.4765090000000  0.4083000000000 1.0
C      1  0.5905890000000  0.4746570000000  0.4803150000000 1.0
C      1  0.5740770000000  0.4812160000000  0.5657590000000 1.0
C      1  0.5012790000000  0.4741770000000  0.6025080000000 1.0
C      1  0.4247030000000  0.4760400000000  0.5624760000000 1.0
C      1  0.4067900000000  0.4802880000000  0.4778890000000 1.0
C      1  0.4546850000000  0.4804380000000  0.4064120000000 1.0
C      1  0.5969170000000  0.4976950000000  0.5245930000000 1.0
C      1  0.5411850000000  0.5024310000000  0.5963230000000 1.0
C      1  0.4564180000000  0.4982800000000  0.5967850000000 1.0
C      1  0.3992960000000  0.4982120000000  0.5254550000000 1.0
C      1  0.4182670000000  0.5019090000000  0.4334780000000 1.0
C      1  0.4982230000000  0.4996880000000  0.3923210000000 1.0
C      1  0.5751580000000  0.4977610000000  0.4382090000000 1.0
C      1  0.5242570000000  0.5464340000000  0.5278430000000 1.0
C      1  0.4988610000000  0.5613220000000  0.5238460000000 1.0
C      1  0.4732570000000  0.5463470000000  0.5203380000000 1.0
C      1  0.4660700000000  0.5441110000000  0.4879840000000 1.0
C      1  0.4882280000000  0.5538830000000  0.4684740000000 1.0
C      1  0.5181150000000  0.5517000000000  0.4702810000000 1.0
C      1  0.5347230000000  0.5442470000000  0.4978940000000 1.0
C      1  0.4723730000000  0.5051570000000  0.5055410000000 1.0
C      1  0.4773210000000  0.5120400000000  0.4685770000000 1.0
C      1  0.5047580000000  0.5137700000000  0.4518280000000 1.0
C      1  0.5296330000000  0.5145360000000  0.4736470000000 1.0
C      1  0.5245990000000  0.5051680000000  0.5154270000000 1.0
C      1  0.5122440000000  0.5139250000000  0.5437120000000 1.0
C      1  0.4806710000000  0.5183710000000  0.5408150000000 1.0
C      1  0.5008330000000  0.4939460000000  0.4997110000000 1.0
C      1  0.5046370000000  0.4637470000000  0.5000600000000 1.0
C      1  0.5026030000000  0.5806140000000  0.4998780000000 1.0
END
