TITL C-3578196-9646-591 2.63623605960056e-06 125000 -1003.85944828156 0 0 157 (C1) n - 1
REM
REM in /home/bkarasulu/work/CARBON/AIRSS/Generating-Clusters/EDIP-Nigel-Params/with-SteepDescent/Higher-Symm/SD-CG/HFTN-CG
REM
REM
REM
REM
REM
REM ./C.cell (12c818d87b63d06a65506943cc24bca4)
REM
REM compiler GCC version 9.2.1 20190827 (Red Hat 9.2.1-1)
REM options -cpp -mtune=generic -march=x86-64 -g -O0 -fpre-include=/usr/include/finclude/math-vector-fortran.h
REM seed -2016218775 -1976154381 -1220894663 -2050650652 1066109650 -699418093 470784883 -1768492084 -1410705473 711276162 -1640462304 -136685131 -609806254 -710244174 -428518598 -109141827 2017215415 -2115642829 -1449837853 -159227687 1614526285 -19292044 586906760 2100068900 1952930451 2050013070 -705991928 1810131617 -514222356 403270820 1868990653 -472065031 -1244415627
REM
CELL 1.54180   50.00000   50.00000   50.00000   90.00000   90.00000   90.00000
LATT -1
SFAC C  
C      1  0.4020950000000  0.4815990000000  0.5205370000000 1.0
C      1  0.3988600000000  0.5308330000000  0.5077830000000 1.0
C      1  0.4016160000000  0.4941450000000  0.4727590000000 1.0
C      1  0.4157780000000  0.4613910000000  0.5370100000000 1.0
C      1  0.4155010000000  0.5538690000000  0.5178560000000 1.0
C      1  0.4153500000000  0.4895610000000  0.4471750000000 1.0
C      1  0.4182270000000  0.5369700000000  0.4607730000000 1.0
C      1  0.4202560000000  0.4505320000000  0.4897210000000 1.0
C      1  0.4199520000000  0.5169570000000  0.5490520000000 1.0
C      1  0.4939570000000  0.4327980000000  0.5239940000000 1.0
C      1  0.4869680000000  0.5497330000000  0.5435290000000 1.0
C      1  0.4899370000000  0.5165840000000  0.4259580000000 1.0
C      1  0.5233210000000  0.4082050000000  0.4751630000000 1.0
C      1  0.5217220000000  0.5222870000000  0.5958720000000 1.0
C      1  0.5232080000000  0.5727870000000  0.4306770000000 1.0
C      1  0.5503510000000  0.5304890000000  0.5048280000000 1.0
C      1  0.5514400000000  0.4867000000000  0.4684250000000 1.0
C      1  0.5505240000000  0.4798150000000  0.5259600000000 1.0
C      1  0.4713140000000  0.4887640000000  0.4294950000000 1.0
C      1  0.4765600000000  0.4496470000000  0.5480650000000 1.0
C      1  0.4779880000000  0.5651550000000  0.5171030000000 1.0
C      1  0.4296890000000  0.4993830000000  0.5713210000000 1.0
C      1  0.4305560000000  0.5636450000000  0.4658780000000 1.0
C      1  0.4307490000000  0.4392620000000  0.4643080000000 1.0
C      1  0.4578250000000  0.5096630000000  0.5822900000000 1.0
C      1  0.4587270000000  0.5658960000000  0.4509900000000 1.0
C      1  0.4602470000000  0.4276910000000  0.4692290000000 1.0
C      1  0.5266410000000  0.5214240000000  0.5493690000000 1.0
C      1  0.5281590000000  0.5323930000000  0.4531950000000 1.0
C      1  0.5385540000000  0.4394620000000  0.5031530000000 1.0
C      1  0.4573440000000  0.5926360000000  0.5334570000000 1.0
C      1  0.4563340000000  0.4815360000000  0.3955790000000 1.0
C      1  0.4581600000000  0.4226200000000  0.5676860000000 1.0
C      1  0.5833990000000  0.4507570000000  0.4897780000000 1.0
C      1  0.5809380000000  0.5140630000000  0.5471470000000 1.0
C      1  0.5805990000000  0.5320100000000  0.4639020000000 1.0
C      1  0.5028440000000  0.5502680000000  0.4679170000000 1.0
C      1  0.5014430000000  0.4561730000000  0.4709420000000 1.0
C      1  0.5022530000000  0.4998750000000  0.5587800000000 1.0
C      1  0.5643320000000  0.5624970000000  0.5520540000000 1.0
C      1  0.5633610000000  0.5125070000000  0.4201010000000 1.0
C      1  0.5675420000000  0.4194430000000  0.5301170000000 1.0
C      1  0.4323460000000  0.4709490000000  0.5614770000000 1.0
C      1  0.4336050000000  0.5674220000000  0.4960920000000 1.0
C      1  0.4318940000000  0.4619630000000  0.4443950000000 1.0
C      1  0.4288200000000  0.5435450000000  0.5432190000000 1.0
C      1  0.4272150000000  0.5168650000000  0.4417680000000 1.0
C      1  0.4258430000000  0.4415420000000  0.5164160000000 1.0
C      1  0.4939200000000  0.5018060000000  0.4653720000000 1.0
C      1  0.4950930000000  0.4748670000000  0.5165250000000 1.0
C      1  0.4787760000000  0.5148410000000  0.5130310000000 1.0
C      1  0.5489230000000  0.4181230000000  0.4865200000000 1.0
C      1  0.5437350000000  0.5254210000000  0.5751280000000 1.0
C      1  0.5453210000000  0.5530180000000  0.4385320000000 1.0
C      1  0.5301470000000  0.4372520000000  0.4372340000000 1.0
C      1  0.5302540000000  0.4754770000000  0.5882520000000 1.0
C      1  0.5298080000000  0.5870600000000  0.4763510000000 1.0
C      1  0.4810330000000  0.4212570000000  0.4463870000000 1.0
C      1  0.4791820000000  0.4916530000000  0.5991600000000 1.0
C      1  0.4795660000000  0.5893620000000  0.4568070000000 1.0
C      1  0.5419690000000  0.5097980000000  0.5262390000000 1.0
C      1  0.5412740000000  0.5158320000000  0.4767610000000 1.0
C      1  0.5436940000000  0.4685280000000  0.4982310000000 1.0
C      1  0.4012630000000  0.5094450000000  0.5286180000000 1.0
C      1  0.4065700000000  0.5212730000000  0.4815220000000 1.0
C      1  0.4045090000000  0.4740550000000  0.4928260000000 1.0
C      1  0.4789590000000  0.3929550000000  0.5370920000000 1.0
C      1  0.4774550000000  0.5858760000000  0.5756790000000 1.0
C      1  0.4770680000000  0.5236770000000  0.3847640000000 1.0
C      1  0.5254880000000  0.5114680000000  0.3927900000000 1.0
C      1  0.5274650000000  0.4000550000000  0.5447180000000 1.0
C      1  0.5226450000000  0.5820880000000  0.5606640000000 1.0
C      1  0.5540730000000  0.5721420000000  0.4806320000000 1.0
C      1  0.5540780000000  0.4488250000000  0.4480710000000 1.0
C      1  0.5544710000000  0.4793450000000  0.5734380000000 1.0
C      1  0.4404750000000  0.5171330000000  0.5096520000000 1.0
C      1  0.4447150000000  0.4996580000000  0.4784950000000 1.0
C      1  0.4445690000000  0.4807740000000  0.5103120000000 1.0
C      1  0.4588860000000  0.5519550000000  0.4234670000000 1.0
C      1  0.4612460000000  0.4115210000000  0.4950580000000 1.0
C      1  0.4582690000000  0.5408880000000  0.5845530000000 1.0
C      1  0.4850570000000  0.4182420000000  0.5772520000000 1.0
C      1  0.4831860000000  0.6057610000000  0.5318660000000 1.0
C      1  0.4843820000000  0.4747930000000  0.3902280000000 1.0
C      1  0.5850940000000  0.5467690000000  0.5095840000000 1.0
C      1  0.5871200000000  0.4840390000000  0.4538070000000 1.0
C      1  0.5851980000000  0.4668080000000  0.5369300000000 1.0
C      1  0.5677940000000  0.4348050000000  0.4698780000000 1.0
C      1  0.5657290000000  0.5056940000000  0.5717030000000 1.0
C      1  0.5661820000000  0.5575550000000  0.4590050000000 1.0
C      1  0.5082410000000  0.5776420000000  0.4567730000000 1.0
C      1  0.5090500000000  0.4286620000000  0.4572520000000 1.0
C      1  0.5078530000000  0.4966760000000  0.5881700000000 1.0
C      1  0.4715490000000  0.5032840000000  0.5556500000000 1.0
C      1  0.4714350000000  0.5455810000000  0.4695810000000 1.0
C      1  0.4719920000000  0.4548810000000  0.4764440000000 1.0
C      1  0.5250260000000  0.4353580000000  0.5293100000000 1.0
C      1  0.5180910000000  0.5491580000000  0.5403970000000 1.0
C      1  0.5205880000000  0.5118040000000  0.4317550000000 1.0
C      1  0.5323190000000  0.5407930000000  0.3952460000000 1.0
C      1  0.5329490000000  0.3867290000000  0.5178320000000 1.0
C      1  0.5297500000000  0.5687650000000  0.5863230000000 1.0
C      1  0.5052900000000  0.5512820000000  0.4983840000000 1.0
C      1  0.5025220000000  0.4766820000000  0.4494170000000 1.0
C      1  0.5048570000000  0.4728420000000  0.5452690000000 1.0
C      1  0.4561110000000  0.4753010000000  0.4576830000000 1.0
C      1  0.4569980000000  0.4763690000000  0.5445330000000 1.0
C      1  0.4579940000000  0.5502360000000  0.4984510000000 1.0
C      1  0.5329910000000  0.4810620000000  0.4421640000000 1.0
C      1  0.5332220000000  0.4622620000000  0.5460800000000 1.0
C      1  0.5333560000000  0.5574410000000  0.5094390000000 1.0
C      1  0.4975090000000  0.5992080000000  0.5580970000000 1.0
C      1  0.4974250000000  0.5018220000000  0.3846860000000 1.0
C      1  0.4990720000000  0.3996300000000  0.5576420000000 1.0
C      1  0.5043120000000  0.5232370000000  0.5068100000000 1.0
C      1  0.5139350000000  0.5050850000000  0.4865650000000 1.0
C      1  0.5145300000000  0.4757560000000  0.4947080000000 1.0
C      1  0.4403340000000  0.5575630000000  0.5659920000000 1.0
C      1  0.4463510000000  0.5245640000000  0.4219260000000 1.0
C      1  0.4474330000000  0.4232790000000  0.5189240000000 1.0
C      1  0.4684130000000  0.5257060000000  0.5370280000000 1.0
C      1  0.4675620000000  0.5176980000000  0.4598550000000 1.0
C      1  0.4699900000000  0.4594280000000  0.5064190000000 1.0
C      1  0.5228060000000  0.5996340000000  0.5004780000000 1.0
C      1  0.5226280000000  0.4499470000000  0.4126640000000 1.0
C      1  0.5240480000000  0.4480250000000  0.5869690000000 1.0
C      1  0.5799930000000  0.5100980000000  0.4443670000000 1.0
C      1  0.5796320000000  0.4452280000000  0.5190030000000 1.0
C      1  0.5787040000000  0.5417400000000  0.5368680000000 1.0
C      1  0.5084170000000  0.5495000000000  0.5943550000000 1.0
C      1  0.5111000000000  0.5589260000000  0.4065630000000 1.0
C      1  0.5112500000000  0.3923660000000  0.4973560000000 1.0
C      1  0.5456730000000  0.5835170000000  0.5427830000000 1.0
C      1  0.5478060000000  0.4940610000000  0.4024660000000 1.0
C      1  0.5516950000000  0.4137200000000  0.5559870000000 1.0
C      1  0.4945630000000  0.4561960000000  0.4110130000000 1.0
C      1  0.4957770000000  0.4434490000000  0.5871540000000 1.0
C      1  0.4947170000000  0.6037630000000  0.5045880000000 1.0
C      1  0.4782380000000  0.4366970000000  0.4230490000000 1.0
C      1  0.4788700000000  0.4635480000000  0.5975260000000 1.0
C      1  0.4783100000000  0.6023080000000  0.4816840000000 1.0
C      1  0.4835940000000  0.5559180000000  0.5763690000000 1.0
C      1  0.4845910000000  0.5427270000000  0.4084860000000 1.0
C      1  0.4871320000000  0.4051590000000  0.5108230000000 1.0
C      1  0.5924060000000  0.4773540000000  0.4811860000000 1.0
C      1  0.5918020000000  0.4934760000000  0.5290320000000 1.0
C      1  0.5912800000000  0.5266030000000  0.4905090000000 1.0
C      1  0.5585460000000  0.4001300000000  0.5086340000000 1.0
C      1  0.5539010000000  0.5531730000000  0.5779020000000 1.0
C      1  0.5553160000000  0.5399730000000  0.4140770000000 1.0
C      1  0.5428700000000  0.5983710000000  0.5196260000000 1.0
C      1  0.5427790000000  0.4666530000000  0.4028180000000 1.0
C      1  0.5443870000000  0.4323680000000  0.5756150000000 1.0
C      1  0.4516180000000  0.5849220000000  0.5609740000000 1.0
C      1  0.4523010000000  0.5106690000000  0.3961220000000 1.0
C      1  0.4537730000000  0.4080140000000  0.5432420000000 1.0
C      1  0.5918630000000  0.4991350000000  0.5003010000000 1.0
END
