TITL C-3578206-1180-603 -3.91388867372312e-07 125000 -341.396719918849 0 0 56 (C1) n - 1
REM
REM in /home/bkarasulu/work/CARBON/AIRSS/Generating-Clusters/EDIP-Nigel-Params/with-SteepDescent/Higher-Symm/SD-CG/HFTN-CG
REM
REM
REM
REM
REM
REM ./C.cell (12c818d87b63d06a65506943cc24bca4)
REM
REM compiler GCC version 9.2.1 20190827 (Red Hat 9.2.1-1)
REM options -cpp -mtune=generic -march=x86-64 -g -O0 -fpre-include=/usr/include/finclude/math-vector-fortran.h
REM seed 2062890327 -1241848869 -206304907 441754152 819121612 1430862248 1579201065 -700204449 1444252225 900611863 249482641 -2131105369 -903997647 401685876 -1019225944 494894703 1102007348 1464344969 341468327 -1489376555 1472491385 1326924762 -445230662 -1396844780 -80215132 -844237992 2096347256 -123452695 330402628 -99861580 513059624 -831602549 1717854117
REM
CELL 1.54180   50.00000   50.00000   50.00000   90.00000   90.00000   90.00000
LATT -1
SFAC C  
C      1  0.4661520000000  0.4628430000000  0.4514040000000 1.0
C      1  0.4665940000000  0.4422600000000  0.5178440000000 1.0
C      1  0.4678150000000  0.4987610000000  0.5579680000000 1.0
C      1  0.4611940000000  0.5639610000000  0.5140490000000 1.0
C      1  0.4659590000000  0.5323840000000  0.4503650000000 1.0
C      1  0.5360440000000  0.4626330000000  0.4512970000000 1.0
C      1  0.5357540000000  0.4420030000000  0.5176870000000 1.0
C      1  0.5339140000000  0.4992560000000  0.5572400000000 1.0
C      1  0.5390160000000  0.5624910000000  0.5144000000000 1.0
C      1  0.5365270000000  0.5322000000000  0.4501530000000 1.0
C      1  0.5248690000000  0.4559080000000  0.4937550000000 1.0
C      1  0.5251810000000  0.4808030000000  0.5365840000000 1.0
C      1  0.5237630000000  0.5537500000000  0.5374030000000 1.0
C      1  0.5249060000000  0.5364550000000  0.4771710000000 1.0
C      1  0.5249320000000  0.4898140000000  0.4565080000000 1.0
C      1  0.4773910000000  0.4560880000000  0.4938400000000 1.0
C      1  0.4777600000000  0.4807280000000  0.5370920000000 1.0
C      1  0.4754170000000  0.5460670000000  0.5445700000000 1.0
C      1  0.4778980000000  0.5367530000000  0.4772550000000 1.0
C      1  0.4774210000000  0.4899520000000  0.4566030000000 1.0
C      1  0.4389140000000  0.5240990000000  0.4541830000000 1.0
C      1  0.4389050000000  0.4636560000000  0.4599140000000 1.0
C      1  0.4392640000000  0.4501790000000  0.5197350000000 1.0
C      1  0.4409920000000  0.5042600000000  0.5504340000000 1.0
C      1  0.4383990000000  0.5484520000000  0.5094230000000 1.0
C      1  0.5634780000000  0.5236810000000  0.4541560000000 1.0
C      1  0.5633220000000  0.4632580000000  0.4597500000000 1.0
C      1  0.5632390000000  0.4493910000000  0.5194210000000 1.0
C      1  0.5609200000000  0.5034110000000  0.5503070000000 1.0
C      1  0.5624690000000  0.5473910000000  0.5100920000000 1.0
C      1  0.4308930000000  0.5007820000000  0.5240290000000 1.0
C      1  0.4308220000000  0.5220790000000  0.5041420000000 1.0
C      1  0.4293420000000  0.5104680000000  0.4773070000000 1.0
C      1  0.4291070000000  0.4811190000000  0.4802960000000 1.0
C      1  0.4299240000000  0.4750850000000  0.5093170000000 1.0
C      1  0.5714000000000  0.4999730000000  0.5240350000000 1.0
C      1  0.5713440000000  0.5214310000000  0.5043360000000 1.0
C      1  0.5728310000000  0.5099680000000  0.4773620000000 1.0
C      1  0.5733750000000  0.4805830000000  0.4801280000000 1.0
C      1  0.5725660000000  0.4743630000000  0.5091310000000 1.0
C      1  0.4824220000000  0.4518430000000  0.5409740000000 1.0
C      1  0.4857730000000  0.5233910000000  0.5608540000000 1.0
C      1  0.4831270000000  0.5621540000000  0.4928750000000 1.0
C      1  0.4821080000000  0.5114090000000  0.4367990000000 1.0
C      1  0.4820630000000  0.4436150000000  0.4674810000000 1.0
C      1  0.5202960000000  0.4519630000000  0.5408960000000 1.0
C      1  0.5159890000000  0.5223140000000  0.5579610000000 1.0
C      1  0.5216100000000  0.5622320000000  0.4908290000000 1.0
C      1  0.5202250000000  0.5112710000000  0.4367060000000 1.0
C      1  0.5200440000000  0.4435050000000  0.4674050000000 1.0
C      1  0.5013320000000  0.5201010000000  0.4837350000000 1.0
C      1  0.5011950000000  0.4728800000000  0.4978270000000 1.0
C      1  0.5012100000000  0.4913860000000  0.4736990000000 1.0
C      1  0.5013330000000  0.4903310000000  0.5228220000000 1.0
C      1  0.4982290000000  0.5454420000000  0.5246020000000 1.0
C      1  0.5013780000000  0.5183270000000  0.5126600000000 1.0
END
