TITL C-3577088-510-604 -1.14660223590527e-06 125000 -189.428638439174 0 0 33 (C1) n - 1
REM
REM in /home/bkarasulu/work/CARBON/AIRSS/Generating-Clusters/EDIP-Nigel-Params/with-SteepDescent/Higher-Symm/SD-CG/HFTN-CG
REM
REM
REM
REM
REM
REM ./C.cell (12c818d87b63d06a65506943cc24bca4)
REM
REM compiler GCC version 9.2.1 20190827 (Red Hat 9.2.1-1)
REM options -cpp -mtune=generic -march=x86-64 -g -O0 -fpre-include=/usr/include/finclude/math-vector-fortran.h
REM seed 1745843002 -61002236 -700263428 -2136403007 1935955305 -499373911 1600360066 -1881771620 -962405598 -278447367 778587781 -824203360 -1941492959 -1486600244 919368791 -1882339966 230272909 -1183803451 492092777 -729308360 800779151 2006207428 -283890989 -191396127 1770619154 940544822 1332417666 1166860423 -499743249 -741903161 800623167 -1553471512 137848441
REM
CELL 1.54180   50.00000   50.00000   50.00000   90.00000   90.00000   90.00000
LATT -1
SFAC C  
C      1  0.5038030000000  0.4639070000000  0.5606500000000 1.0
C      1  0.5085930000000  0.4401020000000  0.4807460000000 1.0
C      1  0.4830370000000  0.4980260000000  0.4306600000000 1.0
C      1  0.5195070000000  0.5460930000000  0.4835600000000 1.0
C      1  0.4902490000000  0.5499150000000  0.5554330000000 1.0
C      1  0.4513160000000  0.4872840000000  0.4812620000000 1.0
C      1  0.4504740000000  0.5167070000000  0.4858590000000 1.0
C      1  0.4557530000000  0.5185490000000  0.5156160000000 1.0
C      1  0.4499180000000  0.4910900000000  0.5274950000000 1.0
C      1  0.4435110000000  0.4712150000000  0.5052720000000 1.0
C      1  0.4666550000000  0.4500810000000  0.5071030000000 1.0
C      1  0.4815220000000  0.4834210000000  0.4794070000000 1.0
C      1  0.4750190000000  0.5280630000000  0.4704980000000 1.0
C      1  0.4865780000000  0.5222100000000  0.5144360000000 1.0
C      1  0.4791980000000  0.4799970000000  0.5286770000000 1.0
C      1  0.4876320000000  0.4531680000000  0.5390070000000 1.0
C      1  0.4829630000000  0.4527750000000  0.4817600000000 1.0
C      1  0.4895230000000  0.5041870000000  0.4580470000000 1.0
C      1  0.4921430000000  0.5412150000000  0.4914150000000 1.0
C      1  0.4993500000000  0.5264270000000  0.5417090000000 1.0
C      1  0.5226290000000  0.4840410000000  0.5575740000000 1.0
C      1  0.5119640000000  0.4131570000000  0.4726030000000 1.0
C      1  0.4974990000000  0.5087800000000  0.4087750000000 1.0
C      1  0.5279030000000  0.5698950000000  0.4706340000000 1.0
C      1  0.5072480000000  0.5667480000000  0.5706540000000 1.0
C      1  0.5354830000000  0.5658350000000  0.4961780000000 1.0
C      1  0.4974680000000  0.5761130000000  0.5473400000000 1.0
C      1  0.5020720000000  0.5025660000000  0.5582520000000 1.0
C      1  0.5209970000000  0.4326790000000  0.4563580000000 1.0
C      1  0.5002410000000  0.4825410000000  0.4142890000000 1.0
C      1  0.5229460000000  0.4890800000000  0.5072630000000 1.0
C      1  0.4948490000000  0.4934740000000  0.5061300000000 1.0
C      1  0.5478300000000  0.4859350000000  0.5018550000000 1.0
END
