TITL C-3578203-1966-597 8.26709637453963e-07 125000 -879.671336150291 0 0 139 (C1) n - 1
REM
REM in /home/bkarasulu/work/CARBON/AIRSS/Generating-Clusters/EDIP-Nigel-Params/with-SteepDescent/Higher-Symm/SD-CG/HFTN-CG
REM
REM
REM
REM
REM
REM ./C.cell (12c818d87b63d06a65506943cc24bca4)
REM
REM compiler GCC version 9.2.1 20190827 (Red Hat 9.2.1-1)
REM options -cpp -mtune=generic -march=x86-64 -g -O0 -fpre-include=/usr/include/finclude/math-vector-fortran.h
REM seed -636904307 -1256478512 657503246 -348688498 1357049584 1698836648 -2095060362 -182369798 -840695163 -1574756087 2059799195 -2008497035 -754541094 -1020193064 1465295653 -635411503 1309264768 -255527736 -702741100 -231606749 676801614 515217547 105231052 1569913202 -1463283148 -1032269485 -489659494 -1753553139 -335581026 -56292635 -1864246465 777076089 879812448
REM
CELL 1.54180   50.00000   50.00000   50.00000   90.00000   90.00000   90.00000
LATT -1
SFAC C  
C      1  0.5958290000000  0.5188600000000  0.4768030000000 1.0
C      1  0.5066030000000  0.5207350000000  0.4049400000000 1.0
C      1  0.4138620000000  0.5169370000000  0.4707590000000 1.0
C      1  0.4389620000000  0.5191550000000  0.5756820000000 1.0
C      1  0.5521250000000  0.5199060000000  0.5801700000000 1.0
C      1  0.5860240000000  0.4465960000000  0.4750040000000 1.0
C      1  0.5022870000000  0.4487180000000  0.4134570000000 1.0
C      1  0.4137680000000  0.4457700000000  0.4717780000000 1.0
C      1  0.4463970000000  0.4467190000000  0.5706080000000 1.0
C      1  0.5522940000000  0.4463190000000  0.5743330000000 1.0
C      1  0.4802380000000  0.4413020000000  0.4303610000000 1.0
C      1  0.4226010000000  0.4359540000000  0.4978660000000 1.0
C      1  0.4746390000000  0.4425040000000  0.5672250000000 1.0
C      1  0.5606010000000  0.4363130000000  0.5482850000000 1.0
C      1  0.5621980000000  0.4403530000000  0.4602110000000 1.0
C      1  0.4555950000000  0.4656380000000  0.4971530000000 1.0
C      1  0.4887870000000  0.4646340000000  0.5265390000000 1.0
C      1  0.5332350000000  0.4660360000000  0.5296430000000 1.0
C      1  0.5307350000000  0.4661860000000  0.4852940000000 1.0
C      1  0.4897120000000  0.4657140000000  0.4694080000000 1.0
C      1  0.4493570000000  0.5067740000000  0.5134050000000 1.0
C      1  0.4979930000000  0.5061370000000  0.5502630000000 1.0
C      1  0.5503100000000  0.5085350000000  0.5167170000000 1.0
C      1  0.5266750000000  0.5125390000000  0.4665990000000 1.0
C      1  0.4798130000000  0.5131150000000  0.4689330000000 1.0
C      1  0.4357050000000  0.4712050000000  0.5835320000000 1.0
C      1  0.5588790000000  0.4722350000000  0.5863780000000 1.0
C      1  0.6012460000000  0.4714370000000  0.4719340000000 1.0
C      1  0.5040470000000  0.4730320000000  0.3972890000000 1.0
C      1  0.4002620000000  0.4711160000000  0.4652460000000 1.0
C      1  0.5348600000000  0.5539900000000  0.4358410000000 1.0
C      1  0.4554560000000  0.5574740000000  0.4525960000000 1.0
C      1  0.4404750000000  0.5507320000000  0.5278590000000 1.0
C      1  0.5151110000000  0.5495030000000  0.5740470000000 1.0
C      1  0.5795010000000  0.5474580000000  0.5060390000000 1.0
C      1  0.5431590000000  0.5702340000000  0.5437570000000 1.0
C      1  0.5663280000000  0.5723440000000  0.4701710000000 1.0
C      1  0.4919630000000  0.5743200000000  0.4253790000000 1.0
C      1  0.4269190000000  0.5696610000000  0.4862140000000 1.0
C      1  0.4676220000000  0.5717470000000  0.5590510000000 1.0
C      1  0.5169480000000  0.5313830000000  0.4464200000000 1.0
C      1  0.4620450000000  0.5369380000000  0.4758380000000 1.0
C      1  0.4606560000000  0.5281410000000  0.5278760000000 1.0
C      1  0.5133190000000  0.5289110000000  0.5414020000000 1.0
C      1  0.5540020000000  0.5321060000000  0.4995170000000 1.0
C      1  0.5192250000000  0.5638710000000  0.4766280000000 1.0
C      1  0.4919850000000  0.5756350000000  0.4793020000000 1.0
C      1  0.4759480000000  0.5552300000000  0.4959730000000 1.0
C      1  0.4908100000000  0.5970450000000  0.5224270000000 1.0
C      1  0.5300600000000  0.5524220000000  0.5012320000000 1.0
C      1  0.4156660000000  0.5078830000000  0.5585600000000 1.0
C      1  0.5280950000000  0.5080390000000  0.5961760000000 1.0
C      1  0.6033450000000  0.5071070000000  0.5044220000000 1.0
C      1  0.5357770000000  0.5094010000000  0.4051530000000 1.0
C      1  0.4229190000000  0.5087150000000  0.4423810000000 1.0
C      1  0.4933040000000  0.4513630000000  0.5875500000000 1.0
C      1  0.5840620000000  0.4501500000000  0.5356310000000 1.0
C      1  0.5579280000000  0.4528910000000  0.4340620000000 1.0
C      1  0.4540300000000  0.4535990000000  0.4267710000000 1.0
C      1  0.4121060000000  0.4500710000000  0.5223250000000 1.0
C      1  0.4624400000000  0.4795270000000  0.4709600000000 1.0
C      1  0.4561320000000  0.4784490000000  0.5232740000000 1.0
C      1  0.5096020000000  0.4773850000000  0.5463520000000 1.0
C      1  0.5502010000000  0.4785630000000  0.5087160000000 1.0
C      1  0.5233500000000  0.4819290000000  0.4582220000000 1.0
C      1  0.5587930000000  0.5443070000000  0.5509700000000 1.0
C      1  0.5739420000000  0.5450960000000  0.4583960000000 1.0
C      1  0.4814880000000  0.5488950000000  0.4137290000000 1.0
C      1  0.4086150000000  0.5478380000000  0.4931020000000 1.0
C      1  0.4668340000000  0.5462300000000  0.5750320000000 1.0
C      1  0.4327650000000  0.4630740000000  0.5401900000000 1.0
C      1  0.5175050000000  0.4623750000000  0.5750060000000 1.0
C      1  0.5786040000000  0.4625370000000  0.5086740000000 1.0
C      1  0.5314210000000  0.4658260000000  0.4309070000000 1.0
C      1  0.4412460000000  0.4636180000000  0.4517050000000 1.0
C      1  0.5382650000000  0.5758000000000  0.4585890000000 1.0
C      1  0.4782840000000  0.5772350000000  0.4520740000000 1.0
C      1  0.4497680000000  0.5698270000000  0.5061360000000 1.0
C      1  0.4915410000000  0.5791240000000  0.5437440000000 1.0
C      1  0.5425740000000  0.5765940000000  0.5150030000000 1.0
C      1  0.4888490000000  0.4970670000000  0.4041600000000 1.0
C      1  0.4012500000000  0.4939240000000  0.4836360000000 1.0
C      1  0.4523520000000  0.4951780000000  0.5868610000000 1.0
C      1  0.5667700000000  0.4958770000000  0.5711490000000 1.0
C      1  0.5899340000000  0.4955110000000  0.4596150000000 1.0
C      1  0.5261310000000  0.3978130000000  0.5016120000000 1.0
C      1  0.5093780000000  0.3984410000000  0.4764270000000 1.0
C      1  0.4800620000000  0.3975240000000  0.4841240000000 1.0
C      1  0.4786810000000  0.3973930000000  0.5142830000000 1.0
C      1  0.5070940000000  0.3975510000000  0.5250570000000 1.0
C      1  0.4597970000000  0.4969530000000  0.4076010000000 1.0
C      1  0.3946680000000  0.4931560000000  0.5120490000000 1.0
C      1  0.4771840000000  0.4942580000000  0.6021850000000 1.0
C      1  0.5906930000000  0.4946880000000  0.5548230000000 1.0
C      1  0.5799280000000  0.4951010000000  0.4320850000000 1.0
C      1  0.5325000000000  0.4791380000000  0.5971640000000 1.0
C      1  0.6045800000000  0.4781820000000  0.5004500000000 1.0
C      1  0.5321140000000  0.4804740000000  0.4029840000000 1.0
C      1  0.4169090000000  0.4801270000000  0.4421240000000 1.0
C      1  0.4166360000000  0.4788520000000  0.5623320000000 1.0
C      1  0.5207490000000  0.5774790000000  0.4240500000000 1.0
C      1  0.4316220000000  0.5720250000000  0.4589160000000 1.0
C      1  0.4436650000000  0.5744180000000  0.5445290000000 1.0
C      1  0.5163620000000  0.5702780000000  0.5554950000000 1.0
C      1  0.5697230000000  0.5751300000000  0.5006210000000 1.0
C      1  0.5429390000000  0.4225050000000  0.5029920000000 1.0
C      1  0.5147430000000  0.4238740000000  0.4623360000000 1.0
C      1  0.4663030000000  0.4220640000000  0.4740380000000 1.0
C      1  0.4647260000000  0.4221520000000  0.5229730000000 1.0
C      1  0.5114250000000  0.4224100000000  0.5406620000000 1.0
C      1  0.5988940000000  0.4680320000000  0.5514340000000 1.0
C      1  0.5782300000000  0.4686160000000  0.4228410000000 1.0
C      1  0.4498470000000  0.4708420000000  0.4051950000000 1.0
C      1  0.3894780000000  0.4666790000000  0.5201100000000 1.0
C      1  0.4841800000000  0.4677490000000  0.6083540000000 1.0
C      1  0.4385510000000  0.5238820000000  0.4894160000000 1.0
C      1  0.4694340000000  0.5157500000000  0.5521920000000 1.0
C      1  0.5413840000000  0.5189020000000  0.5430650000000 1.0
C      1  0.5569780000000  0.5214840000000  0.4730940000000 1.0
C      1  0.4899370000000  0.5218750000000  0.4400850000000 1.0
C      1  0.4986860000000  0.5131500000000  0.5941320000000 1.0
C      1  0.5919180000000  0.5132170000000  0.5315580000000 1.0
C      1  0.5590090000000  0.5147000000000  0.4235790000000 1.0
C      1  0.4479660000000  0.5152040000000  0.4278070000000 1.0
C      1  0.4086480000000  0.5131640000000  0.5298870000000 1.0
C      1  0.4848560000000  0.4371670000000  0.5395520000000 1.0
C      1  0.5366600000000  0.4360560000000  0.5299200000000 1.0
C      1  0.5379330000000  0.4375270000000  0.4772860000000 1.0
C      1  0.4875930000000  0.4374520000000  0.4587290000000 1.0
C      1  0.4528670000000  0.4355470000000  0.4980540000000 1.0
C      1  0.4128860000000  0.5409220000000  0.5213030000000 1.0
C      1  0.4924220000000  0.5406780000000  0.5883950000000 1.0
C      1  0.5842730000000  0.5413670000000  0.5348500000000 1.0
C      1  0.5623790000000  0.5424970000000  0.4310510000000 1.0
C      1  0.4550020000000  0.5432010000000  0.4262520000000 1.0
C      1  0.5043570000000  0.5143870000000  0.4885800000000 1.0
C      1  0.5022150000000  0.4634460000000  0.4979270000000 1.0
C      1  0.5051900000000  0.5367230000000  0.5105280000000 1.0
C      1  0.4919230000000  0.5994880000000  0.4955430000000 1.0
END
