TITL C-3578195-8548-63 7.34695453863253e-05 125000 -667.587774498544 0 0 108 (C1) n - 1
REM
REM in /home/bkarasulu/work/CARBON/AIRSS/Generating-Clusters/EDIP-Nigel-Params/with-SteepDescent/Higher-Symm/SD-CG/HFTN-CG
REM
REM
REM
REM
REM
REM ./C.cell (12c818d87b63d06a65506943cc24bca4)
REM
REM compiler GCC version 9.2.1 20190827 (Red Hat 9.2.1-1)
REM options -cpp -mtune=generic -march=x86-64 -g -O0 -fpre-include=/usr/include/finclude/math-vector-fortran.h
REM seed 68855280 -1886915399 1923459592 -289222355 -130944401 1705606999 2110055956 -1669976203 2103354081 1893111921 1097826886 -1465595500 -1847269414 228402341 1502130043 -698477420 1046280645 -45548031 858282202 1637009801 -831400708 -213227123 -31156489 -927059746 1035124706 631245978 -1435781866 1354194597 950512226 1931318878 -996071871 -654710155 -390977160
REM
CELL 1.54180   50.00000   50.00000   50.00000   90.00000   90.00000   90.00000
LATT -1
SFAC C  
C      1  0.5169290000000  0.5698520000000  0.5745110000000 1.0
C      1  0.4645510000000  0.5613730000000  0.5763160000000 1.0
C      1  0.4369680000000  0.5351790000000  0.5781340000000 1.0
C      1  0.4279940000000  0.4825510000000  0.5758530000000 1.0
C      1  0.4620400000000  0.4395640000000  0.5744380000000 1.0
C      1  0.4991440000000  0.4311220000000  0.5768150000000 1.0
C      1  0.5477510000000  0.4500450000000  0.5651670000000 1.0
C      1  0.5693640000000  0.4943080000000  0.5675000000000 1.0
C      1  0.5574670000000  0.5411120000000  0.5695370000000 1.0
C      1  0.5223400000000  0.3998710000000  0.5250420000000 1.0
C      1  0.5783030000000  0.4395690000000  0.5258570000000 1.0
C      1  0.6003620000000  0.5067630000000  0.5291600000000 1.0
C      1  0.5726860000000  0.5703690000000  0.5322080000000 1.0
C      1  0.5083180000000  0.5995120000000  0.5340130000000 1.0
C      1  0.4424240000000  0.5818820000000  0.5350620000000 1.0
C      1  0.3989050000000  0.5271500000000  0.5282730000000 1.0
C      1  0.4095470000000  0.4595820000000  0.5363210000000 1.0
C      1  0.4554690000000  0.4046950000000  0.5414700000000 1.0
C      1  0.4872610000000  0.4323980000000  0.4449990000000 1.0
C      1  0.5321450000000  0.4416300000000  0.4591000000000 1.0
C      1  0.5764130000000  0.4797480000000  0.4507050000000 1.0
C      1  0.5597200000000  0.5252530000000  0.4442040000000 1.0
C      1  0.5381120000000  0.5688410000000  0.4479430000000 1.0
C      1  0.4912760000000  0.5625630000000  0.4512600000000 1.0
C      1  0.4442790000000  0.5506450000000  0.4509040000000 1.0
C      1  0.4422890000000  0.5028480000000  0.4546610000000 1.0
C      1  0.4428200000000  0.4555280000000  0.4504790000000 1.0
C      1  0.5416970000000  0.4968940000000  0.5716790000000 1.0
C      1  0.5342610000000  0.5254750000000  0.5722250000000 1.0
C      1  0.5106000000000  0.5425650000000  0.5754940000000 1.0
C      1  0.4817440000000  0.5375710000000  0.5757220000000 1.0
C      1  0.4600640000000  0.5173480000000  0.5754100000000 1.0
C      1  0.4549310000000  0.4888690000000  0.5780330000000 1.0
C      1  0.4729080000000  0.4666770000000  0.5730620000000 1.0
C      1  0.5017640000000  0.4604340000000  0.5754520000000 1.0
C      1  0.5290010000000  0.4704330000000  0.5695970000000 1.0
C      1  0.5086890000000  0.4245410000000  0.4651810000000 1.0
C      1  0.5742980000000  0.4604480000000  0.4703470000000 1.0
C      1  0.5791630000000  0.5072330000000  0.4571150000000 1.0
C      1  0.5566190000000  0.5509020000000  0.4588860000000 1.0
C      1  0.5155450000000  0.5743180000000  0.4636540000000 1.0
C      1  0.4645560000000  0.5658980000000  0.4634030000000 1.0
C      1  0.4328460000000  0.5288110000000  0.4646640000000 1.0
C      1  0.4322420000000  0.4771970000000  0.4648600000000 1.0
C      1  0.4628880000000  0.4387340000000  0.4605320000000 1.0
C      1  0.4986270000000  0.4298370000000  0.4935870000000 1.0
C      1  0.5499450000000  0.4500760000000  0.4822910000000 1.0
C      1  0.5736820000000  0.4980440000000  0.4870530000000 1.0
C      1  0.5516920000000  0.5482560000000  0.4887200000000 1.0
C      1  0.5223600000000  0.5674520000000  0.4928050000000 1.0
C      1  0.4632090000000  0.5591660000000  0.4925040000000 1.0
C      1  0.4375730000000  0.5348620000000  0.4941050000000 1.0
C      1  0.4339510000000  0.4730350000000  0.4952870000000 1.0
C      1  0.4691220000000  0.4428970000000  0.4894260000000 1.0
C      1  0.5937730000000  0.4860950000000  0.5064730000000 1.0
C      1  0.5765420000000  0.5500870000000  0.5078460000000 1.0
C      1  0.5297860000000  0.5891790000000  0.5127660000000 1.0
C      1  0.4645480000000  0.5826370000000  0.5126780000000 1.0
C      1  0.4160950000000  0.5460490000000  0.5133640000000 1.0
C      1  0.4097620000000  0.4806300000000  0.5120350000000 1.0
C      1  0.4415910000000  0.4438280000000  0.5043100000000 1.0
C      1  0.4965980000000  0.4057410000000  0.5123020000000 1.0
C      1  0.5575410000000  0.4290220000000  0.5032210000000 1.0
C      1  0.5306500000000  0.5196800000000  0.4002060000000 1.0
C      1  0.5082730000000  0.5388200000000  0.3973160000000 1.0
C      1  0.4804000000000  0.5285620000000  0.3918740000000 1.0
C      1  0.4778670000000  0.5035090000000  0.3793970000000 1.0
C      1  0.4734020000000  0.4781770000000  0.3897440000000 1.0
C      1  0.4897470000000  0.4574590000000  0.3801720000000 1.0
C      1  0.5088360000000  0.4538300000000  0.4006170000000 1.0
C      1  0.5311880000000  0.4739520000000  0.3999740000000 1.0
C      1  0.5294520000000  0.4969220000000  0.3832500000000 1.0
C      1  0.5328850000000  0.4721680000000  0.4939150000000 1.0
C      1  0.5454660000000  0.4982520000000  0.4974530000000 1.0
C      1  0.5333780000000  0.5244190000000  0.4947340000000 1.0
C      1  0.5102130000000  0.5405570000000  0.5035380000000 1.0
C      1  0.4822360000000  0.5355720000000  0.4981380000000 1.0
C      1  0.4605510000000  0.5167670000000  0.5054080000000 1.0
C      1  0.4594910000000  0.4875500000000  0.5036790000000 1.0
C      1  0.4812180000000  0.4705820000000  0.4945220000000 1.0
C      1  0.5075460000000  0.4622110000000  0.5045740000000 1.0
C      1  0.5444360000000  0.5747760000000  0.5346130000000 1.0
C      1  0.4861250000000  0.5811230000000  0.5341440000000 1.0
C      1  0.4320530000000  0.5551290000000  0.5355990000000 1.0
C      1  0.4129060000000  0.5029650000000  0.5322580000000 1.0
C      1  0.4361510000000  0.4474390000000  0.5335300000000 1.0
C      1  0.4817150000000  0.4129170000000  0.5359830000000 1.0
C      1  0.5375340000000  0.4235850000000  0.5250420000000 1.0
C      1  0.5791910000000  0.4684690000000  0.5267690000000 1.0
C      1  0.5798910000000  0.5273520000000  0.5285400000000 1.0
C      1  0.5787060000000  0.5466560000000  0.5517390000000 1.0
C      1  0.5288440000000  0.5882840000000  0.5568090000000 1.0
C      1  0.4656020000000  0.5834780000000  0.5567900000000 1.0
C      1  0.4185250000000  0.5431360000000  0.5576620000000 1.0
C      1  0.4083610000000  0.4839490000000  0.5559110000000 1.0
C      1  0.4441540000000  0.4277140000000  0.5538830000000 1.0
C      1  0.5023210000000  0.4119550000000  0.5558110000000 1.0
C      1  0.5567800000000  0.4301360000000  0.5472910000000 1.0
C      1  0.5895850000000  0.4848010000000  0.5502380000000 1.0
C      1  0.5388220000000  0.4810950000000  0.4278630000000 1.0
C      1  0.5352780000000  0.5115160000000  0.4293970000000 1.0
C      1  0.5107110000000  0.5178000000000  0.4437760000000 1.0
C      1  0.4949300000000  0.5390240000000  0.4320260000000 1.0
C      1  0.4671400000000  0.5291980000000  0.4195210000000 1.0
C      1  0.4557890000000  0.5029000000000  0.4286760000000 1.0
C      1  0.4684720000000  0.4788580000000  0.4180920000000 1.0
C      1  0.4971930000000  0.4564350000000  0.4286330000000 1.0
C      1  0.5208940000000  0.4651250000000  0.4448740000000 1.0
END
