TITL C-3578201-9217-542 -5.96748734732758e-07 125000 -224.187135026948 0 0 37 (C1) n - 1
REM
REM in /home/bkarasulu/work/CARBON/AIRSS/Generating-Clusters/EDIP-Nigel-Params/with-SteepDescent/Higher-Symm/SD-CG/HFTN-CG
REM
REM
REM
REM
REM
REM ./C.cell (12c818d87b63d06a65506943cc24bca4)
REM
REM compiler GCC version 9.2.1 20190827 (Red Hat 9.2.1-1)
REM options -cpp -mtune=generic -march=x86-64 -g -O0 -fpre-include=/usr/include/finclude/math-vector-fortran.h
REM seed -2055390666 919381950 479105918 1774382159 -986022422 2040590592 1764721784 1180728591 -1934993170 1701071062 -2129325010 -2028902643 1126156280 -1691443561 993199802 210550980 -2144009335 -36928118 1158280254 -1873933740 943000822 178884348 -2100931719 632018141 -189554004 -1366197759 -2018439777 -1282018303 -2059600868 1441244452 -2120095587 -211446182 1688457057
REM
CELL 1.54180   50.00000   50.00000   50.00000   90.00000   90.00000   90.00000
LATT -1
SFAC C  
C      1  0.4945180000000  0.4412070000000  0.5296480000000 1.0
C      1  0.4269860000000  0.5010350000000  0.5346130000000 1.0
C      1  0.4699260000000  0.5192710000000  0.5001520000000 1.0
C      1  0.4704910000000  0.5244600000000  0.5302080000000 1.0
C      1  0.4784040000000  0.4864850000000  0.4597810000000 1.0
C      1  0.5283230000000  0.5443880000000  0.4543950000000 1.0
C      1  0.4442040000000  0.5204990000000  0.5409540000000 1.0
C      1  0.4485920000000  0.4720890000000  0.4985960000000 1.0
C      1  0.4833690000000  0.4345150000000  0.5050310000000 1.0
C      1  0.5187660000000  0.4814030000000  0.5207810000000 1.0
C      1  0.5042400000000  0.5571820000000  0.5210170000000 1.0
C      1  0.5444980000000  0.4477760000000  0.4983270000000 1.0
C      1  0.4973550000000  0.4753070000000  0.4989530000000 1.0
C      1  0.5014910000000  0.5134310000000  0.4330380000000 1.0
C      1  0.4859330000000  0.4806640000000  0.5539560000000 1.0
C      1  0.5228710000000  0.5340250000000  0.5187020000000 1.0
C      1  0.5258880000000  0.5614430000000  0.4764740000000 1.0
C      1  0.5288200000000  0.4289230000000  0.4876730000000 1.0
C      1  0.5491960000000  0.5636620000000  0.4927090000000 1.0
C      1  0.5050010000000  0.4641380000000  0.5412760000000 1.0
C      1  0.5033000000000  0.4402920000000  0.4834890000000 1.0
C      1  0.5454270000000  0.4737860000000  0.5081360000000 1.0
C      1  0.4796520000000  0.5515980000000  0.5341780000000 1.0
C      1  0.4704480000000  0.4905970000000  0.4900890000000 1.0
C      1  0.5624170000000  0.5174590000000  0.4967700000000 1.0
C      1  0.4904230000000  0.5070730000000  0.5449380000000 1.0
C      1  0.4302160000000  0.4814260000000  0.5168640000000 1.0
C      1  0.4809670000000  0.5399670000000  0.4845510000000 1.0
C      1  0.5267910000000  0.4978560000000  0.4695010000000 1.0
C      1  0.4582820000000  0.4461400000000  0.5010410000000 1.0
C      1  0.5166930000000  0.5092260000000  0.5327380000000 1.0
C      1  0.5504060000000  0.4940480000000  0.4869330000000 1.0
C      1  0.5242360000000  0.5176650000000  0.4482870000000 1.0
C      1  0.4996550000000  0.5603630000000  0.4915200000000 1.0
C      1  0.4767200000000  0.5049620000000  0.4389840000000 1.0
C      1  0.5490730000000  0.5395840000000  0.5073340000000 1.0
C      1  0.5064210000000  0.4760530000000  0.4683630000000 1.0
END
