TITL C-3578194-7807-187 1.8155142496772e-06 125000 -361.06718308995 0 0 60 (C1) n - 1
REM
REM in /home/bkarasulu/work/CARBON/AIRSS/Generating-Clusters/EDIP-Nigel-Params/with-SteepDescent/Higher-Symm/SD-CG/HFTN-CG
REM
REM
REM
REM
REM
REM ./C.cell (12c818d87b63d06a65506943cc24bca4)
REM
REM compiler GCC version 9.2.1 20190827 (Red Hat 9.2.1-1)
REM options -cpp -mtune=generic -march=x86-64 -g -O0 -fpre-include=/usr/include/finclude/math-vector-fortran.h
REM seed 555115603 -2124304923 -146726532 -631195122 1575651752 -465017480 1844054368 -510026424 1791632510 -902362399 -492848067 -1792580884 -51636825 1166478909 -2119753993 -75202145 -2076256244 -439819684 180726777 -2086446296 -2035674665 9793598 -1921075744 -510319967 2121635497 -292264798 -1209136240 -85352629 -803206428 1160551934 -1522514749 -408682503 92057694
REM
CELL 1.54180   50.00000   50.00000   50.00000   90.00000   90.00000   90.00000
LATT -1
SFAC C  
C      1  0.5446510000000  0.5328700000000  0.5186580000000 1.0
C      1  0.5439480000000  0.4944700000000  0.5501250000000 1.0
C      1  0.5426610000000  0.4600910000000  0.5150000000000 1.0
C      1  0.5554360000000  0.4804310000000  0.4725430000000 1.0
C      1  0.5462850000000  0.5231860000000  0.4534500000000 1.0
C      1  0.5469000000000  0.5342240000000  0.4800910000000 1.0
C      1  0.5450250000000  0.4941380000000  0.4508780000000 1.0
C      1  0.5436860000000  0.4596760000000  0.4863800000000 1.0
C      1  0.5550300000000  0.4801530000000  0.5292380000000 1.0
C      1  0.5440290000000  0.5232700000000  0.5457000000000 1.0
C      1  0.4993250000000  0.4488450000000  0.5658130000000 1.0
C      1  0.4899670000000  0.4189250000000  0.4660060000000 1.0
C      1  0.4841720000000  0.5052090000000  0.4078110000000 1.0
C      1  0.4904150000000  0.5860010000000  0.4767940000000 1.0
C      1  0.4822140000000  0.5502840000000  0.5735100000000 1.0
C      1  0.4971260000000  0.4497730000000  0.4348000000000 1.0
C      1  0.4908930000000  0.4174840000000  0.5325820000000 1.0
C      1  0.4842030000000  0.5045090000000  0.5937040000000 1.0
C      1  0.4918820000000  0.5880440000000  0.5204010000000 1.0
C      1  0.4854980000000  0.5522070000000  0.4238920000000 1.0
C      1  0.4626590000000  0.4770170000000  0.5374180000000 1.0
C      1  0.4682450000000  0.4615730000000  0.4871850000000 1.0
C      1  0.4763750000000  0.5100820000000  0.4599460000000 1.0
C      1  0.4577090000000  0.5503060000000  0.4916270000000 1.0
C      1  0.4622920000000  0.5211560000000  0.5246760000000 1.0
C      1  0.4676450000000  0.4843210000000  0.4695160000000 1.0
C      1  0.4661720000000  0.4584700000000  0.5159690000000 1.0
C      1  0.4727680000000  0.5030530000000  0.5424260000000 1.0
C      1  0.4460290000000  0.5401080000000  0.5146660000000 1.0
C      1  0.4720000000000  0.5313220000000  0.4772100000000 1.0
C      1  0.5142960000000  0.4939730000000  0.4447200000000 1.0
C      1  0.5309250000000  0.5580020000000  0.4848620000000 1.0
C      1  0.5210840000000  0.5311600000000  0.5604310000000 1.0
C      1  0.4996070000000  0.4677160000000  0.5432340000000 1.0
C      1  0.5156560000000  0.4516700000000  0.4807430000000 1.0
C      1  0.5132240000000  0.4934800000000  0.5565790000000 1.0
C      1  0.5292250000000  0.5567640000000  0.5138410000000 1.0
C      1  0.5239760000000  0.5308980000000  0.4375240000000 1.0
C      1  0.5006950000000  0.4678500000000  0.4580950000000 1.0
C      1  0.5141930000000  0.4528140000000  0.5192210000000 1.0
C      1  0.5071160000000  0.5630460000000  0.4685670000000 1.0
C      1  0.5044500000000  0.5533470000000  0.5557930000000 1.0
C      1  0.5050220000000  0.4600690000000  0.5906750000000 1.0
C      1  0.5114760000000  0.4138770000000  0.4844640000000 1.0
C      1  0.5072270000000  0.4885690000000  0.4157450000000 1.0
C      1  0.5059920000000  0.5647990000000  0.5293200000000 1.0
C      1  0.5083390000000  0.5541420000000  0.4409670000000 1.0
C      1  0.5045070000000  0.4610550000000  0.4104720000000 1.0
C      1  0.5120830000000  0.4152500000000  0.5132750000000 1.0
C      1  0.5072150000000  0.4877860000000  0.5856240000000 1.0
C      1  0.4966730000000  0.4221700000000  0.4390200000000 1.0
C      1  0.4981070000000  0.4217580000000  0.5593910000000 1.0
C      1  0.4890050000000  0.5338390000000  0.4021430000000 1.0
C      1  0.5035060000000  0.6013100000000  0.4977620000000 1.0
C      1  0.4883030000000  0.5338410000000  0.5963850000000 1.0
C      1  0.4696430000000  0.5182550000000  0.4322600000000 1.0
C      1  0.4671070000000  0.5773720000000  0.4927940000000 1.0
C      1  0.4679090000000  0.5148770000000  0.5691000000000 1.0
C      1  0.4688350000000  0.4321120000000  0.5241520000000 1.0
C      1  0.4709010000000  0.4369970000000  0.4748250000000 1.0
END
