TITL C-3577081-279-461 -1.36730362013604e-06 125000 -1101.97706715523 0 0 178 (C1) n - 1
REM
REM in /home/bkarasulu/work/CARBON/AIRSS/Generating-Clusters/EDIP-Nigel-Params/with-SteepDescent/Higher-Symm/SD-CG/HFTN-CG
REM
REM
REM
REM
REM
REM ./C.cell (12c818d87b63d06a65506943cc24bca4)
REM
REM compiler GCC version 9.2.1 20190827 (Red Hat 9.2.1-1)
REM options -cpp -mtune=generic -march=x86-64 -g -O0 -fpre-include=/usr/include/finclude/math-vector-fortran.h
REM seed 193725301 -1943334653 953689373 -1985515072 1638618934 1267955075 -1327005558 855670039 1836067785 264286119 -1556481898 -1533439007 148233785 729939061 -1330468587 1188616485 -462235579 -262459542 -1038602041 673683715 2128480186 -2133735659 1167137667 118162870 -33487275 -906124110 -419357251 -1862053970 -172221899 -885002961 1390296594 -1516013366 -1155428128
REM
CELL 1.54180   50.00000   50.00000   50.00000   90.00000   90.00000   90.00000
LATT -1
SFAC C  
C      1  0.5480000000000  0.5796790000000  0.4520290000000 1.0
C      1  0.5423020000000  0.4165880000000  0.4590330000000 1.0
C      1  0.4072870000000  0.5024480000000  0.4557790000000 1.0
C      1  0.5428750000000  0.4368610000000  0.5454900000000 1.0
C      1  0.5459130000000  0.5852210000000  0.5442190000000 1.0
C      1  0.4095680000000  0.4949200000000  0.5395530000000 1.0
C      1  0.5429860000000  0.5577560000000  0.4841490000000 1.0
C      1  0.5267910000000  0.4325140000000  0.4862820000000 1.0
C      1  0.4334940000000  0.5070000000000  0.4833410000000 1.0
C      1  0.5321650000000  0.4459110000000  0.5170510000000 1.0
C      1  0.5298260000000  0.5656100000000  0.5136520000000 1.0
C      1  0.4312240000000  0.4923900000000  0.5121580000000 1.0
C      1  0.4950860000000  0.5330230000000  0.5283680000000 1.0
C      1  0.5253760000000  0.4923450000000  0.5297200000000 1.0
C      1  0.4755540000000  0.4889900000000  0.5145780000000 1.0
C      1  0.4996750000000  0.4738490000000  0.4807730000000 1.0
C      1  0.5335290000000  0.5064490000000  0.4717970000000 1.0
C      1  0.4764470000000  0.5278150000000  0.4680590000000 1.0
C      1  0.5368440000000  0.5002960000000  0.3994160000000 1.0
C      1  0.5182750000000  0.4862130000000  0.3819340000000 1.0
C      1  0.4783190000000  0.5229430000000  0.4092010000000 1.0
C      1  0.5174670000000  0.4759170000000  0.6142030000000 1.0
C      1  0.4798610000000  0.5468130000000  0.6136220000000 1.0
C      1  0.4893360000000  0.4653960000000  0.6089920000000 1.0
C      1  0.5184700000000  0.5955810000000  0.5439170000000 1.0
C      1  0.5813950000000  0.4386050000000  0.5501630000000 1.0
C      1  0.4077640000000  0.4659620000000  0.5474350000000 1.0
C      1  0.5174260000000  0.4004110000000  0.4573410000000 1.0
C      1  0.5772930000000  0.5670020000000  0.4512540000000 1.0
C      1  0.4094180000000  0.5311660000000  0.4559880000000 1.0
C      1  0.5027830000000  0.4533570000000  0.4138440000000 1.0
C      1  0.4504010000000  0.5083560000000  0.4388750000000 1.0
C      1  0.5293970000000  0.5296420000000  0.4313020000000 1.0
C      1  0.5055610000000  0.5190570000000  0.5908820000000 1.0
C      1  0.4737760000000  0.4907620000000  0.5717510000000 1.0
C      1  0.5230920000000  0.4775050000000  0.5707270000000 1.0
C      1  0.4867250000000  0.6094840000000  0.4781890000000 1.0
C      1  0.5978050000000  0.4557880000000  0.4819060000000 1.0
C      1  0.4123070000000  0.4299100000000  0.4817780000000 1.0
C      1  0.4814370000000  0.3876160000000  0.5211770000000 1.0
C      1  0.6007900000000  0.5444280000000  0.5200090000000 1.0
C      1  0.4127720000000  0.5647550000000  0.5220120000000 1.0
C      1  0.4723680000000  0.4281170000000  0.4883640000000 1.0
C      1  0.4506230000000  0.5618680000000  0.4884840000000 1.0
C      1  0.5806850000000  0.5115240000000  0.4873540000000 1.0
C      1  0.4710460000000  0.5738620000000  0.5112030000000 1.0
C      1  0.4531250000000  0.4403610000000  0.5131390000000 1.0
C      1  0.5750160000000  0.4889950000000  0.5109780000000 1.0
C      1  0.4594360000000  0.5734540000000  0.4574940000000 1.0
C      1  0.5829360000000  0.4979790000000  0.4594700000000 1.0
C      1  0.4584710000000  0.4302820000000  0.4606210000000 1.0
C      1  0.4635920000000  0.4294590000000  0.5418030000000 1.0
C      1  0.5775320000000  0.5035060000000  0.5384940000000 1.0
C      1  0.4591210000000  0.5690740000000  0.5403160000000 1.0
C      1  0.5020400000000  0.5783810000000  0.5611880000000 1.0
C      1  0.5728000000000  0.4617630000000  0.5670390000000 1.0
C      1  0.4330040000000  0.4630790000000  0.5622490000000 1.0
C      1  0.5007650000000  0.4137840000000  0.4374980000000 1.0
C      1  0.5785290000000  0.5401530000000  0.4322280000000 1.0
C      1  0.4280180000000  0.5508710000000  0.4275870000000 1.0
C      1  0.4979850000000  0.4441730000000  0.4819110000000 1.0
C      1  0.4556950000000  0.5302580000000  0.4893790000000 1.0
C      1  0.5550180000000  0.5263420000000  0.4839010000000 1.0
C      1  0.4979910000000  0.5571700000000  0.5099870000000 1.0
C      1  0.4528770000000  0.4713190000000  0.5136290000000 1.0
C      1  0.5425720000000  0.4753100000000  0.5104670000000 1.0
C      1  0.5315770000000  0.5385610000000  0.4038460000000 1.0
C      1  0.5213930000000  0.4597530000000  0.3926180000000 1.0
C      1  0.4508950000000  0.5149590000000  0.4013500000000 1.0
C      1  0.5328940000000  0.4551530000000  0.6012170000000 1.0
C      1  0.5063310000000  0.5434630000000  0.6055680000000 1.0
C      1  0.4624940000000  0.4915420000000  0.5993440000000 1.0
C      1  0.4690170000000  0.5183670000000  0.5165940000000 1.0
C      1  0.5174080000000  0.5170350000000  0.5170050000000 1.0
C      1  0.4985840000000  0.4789100000000  0.5288520000000 1.0
C      1  0.4818390000000  0.4952090000000  0.4670010000000 1.0
C      1  0.5299770000000  0.4769310000000  0.4820180000000 1.0
C      1  0.5006070000000  0.5414870000000  0.4832610000000 1.0
C      1  0.5093830000000  0.6042870000000  0.5168070000000 1.0
C      1  0.5796130000000  0.4413590000000  0.5211510000000 1.0
C      1  0.4031880000000  0.4509440000000  0.5215230000000 1.0
C      1  0.5076800000000  0.3928730000000  0.4842460000000 1.0
C      1  0.5864630000000  0.5622300000000  0.4802620000000 1.0
C      1  0.4055570000000  0.5410760000000  0.4840770000000 1.0
C      1  0.5945360000000  0.4618400000000  0.4348240000000 1.0
C      1  0.4230300000000  0.4353140000000  0.4342670000000 1.0
C      1  0.4805490000000  0.6013860000000  0.4299570000000 1.0
C      1  0.5940700000000  0.5347480000000  0.5674690000000 1.0
C      1  0.4229090000000  0.5618230000000  0.5675730000000 1.0
C      1  0.4798690000000  0.3971900000000  0.5685650000000 1.0
C      1  0.4450940000000  0.4366480000000  0.5638500000000 1.0
C      1  0.4736150000000  0.5830410000000  0.5616130000000 1.0
C      1  0.5873250000000  0.4876520000000  0.5638330000000 1.0
C      1  0.4422790000000  0.5748680000000  0.4316720000000 1.0
C      1  0.4717910000000  0.4155850000000  0.4386740000000 1.0
C      1  0.5929270000000  0.5153880000000  0.4366050000000 1.0
C      1  0.4934330000000  0.4409640000000  0.5510530000000 1.0
C      1  0.4620800000000  0.5385770000000  0.5557520000000 1.0
C      1  0.5494790000000  0.5159010000000  0.5469680000000 1.0
C      1  0.4848720000000  0.5579790000000  0.4457260000000 1.0
C      1  0.4584590000000  0.4600740000000  0.4485940000000 1.0
C      1  0.5526500000000  0.4850880000000  0.4449980000000 1.0
C      1  0.4939770000000  0.4667070000000  0.5707180000000 1.0
C      1  0.4873420000000  0.5186730000000  0.5668190000000 1.0
C      1  0.5281400000000  0.4997690000000  0.5921310000000 1.0
C      1  0.4916210000000  0.5005910000000  0.4245370000000 1.0
C      1  0.4805780000000  0.4716160000000  0.4220050000000 1.0
C      1  0.5238980000000  0.5012610000000  0.4290280000000 1.0
C      1  0.4463060000000  0.5179570000000  0.5372040000000 1.0
C      1  0.5387510000000  0.5471630000000  0.5393980000000 1.0
C      1  0.5033820000000  0.4509520000000  0.5252790000000 1.0
C      1  0.4535580000000  0.4880710000000  0.4624400000000 1.0
C      1  0.5418670000000  0.4571360000000  0.4600340000000 1.0
C      1  0.5173190000000  0.5580080000000  0.4618750000000 1.0
C      1  0.5091050000000  0.3969720000000  0.5591850000000 1.0
C      1  0.4123620000000  0.5347740000000  0.5595260000000 1.0
C      1  0.5780580000000  0.5576570000000  0.5565420000000 1.0
C      1  0.5077740000000  0.5954710000000  0.4410060000000 1.0
C      1  0.4143180000000  0.4596450000000  0.4470210000000 1.0
C      1  0.5773590000000  0.4382960000000  0.4428410000000 1.0
C      1  0.4906340000000  0.4356820000000  0.6015440000000 1.0
C      1  0.4562580000000  0.5411110000000  0.5993570000000 1.0
C      1  0.5502230000000  0.5189750000000  0.5780410000000 1.0
C      1  0.4857620000000  0.5542680000000  0.4149030000000 1.0
C      1  0.4548870000000  0.4652230000000  0.4060610000000 1.0
C      1  0.5599640000000  0.4803070000000  0.4021450000000 1.0
C      1  0.6009510000000  0.5230300000000  0.5403040000000 1.0
C      1  0.4644170000000  0.3991440000000  0.5425120000000 1.0
C      1  0.4297610000000  0.5772120000000  0.5424870000000 1.0
C      1  0.6027100000000  0.4751990000000  0.4604290000000 1.0
C      1  0.4666440000000  0.6027970000000  0.4574520000000 1.0
C      1  0.4296840000000  0.4197540000000  0.4597230000000 1.0
C      1  0.5491440000000  0.4529560000000  0.4016060000000 1.0
C      1  0.4356040000000  0.4887040000000  0.4094510000000 1.0
C      1  0.5149230000000  0.5624180000000  0.4058180000000 1.0
C      1  0.5377010000000  0.5487830000000  0.5834530000000 1.0
C      1  0.4438690000000  0.5141970000000  0.5955040000000 1.0
C      1  0.5181430000000  0.4320700000000  0.5923960000000 1.0
C      1  0.5721800000000  0.4227650000000  0.4993030000000 1.0
C      1  0.3964500000000  0.4696800000000  0.4995840000000 1.0
C      1  0.5286110000000  0.6047640000000  0.4943500000000 1.0
C      1  0.5765760000000  0.5788830000000  0.5025820000000 1.0
C      1  0.3997540000000  0.5230050000000  0.5068810000000 1.0
C      1  0.5266420000000  0.3937050000000  0.5066850000000 1.0
C      1  0.4480590000000  0.5635350000000  0.5829390000000 1.0
C      1  0.5800410000000  0.5121550000000  0.5826000000000 1.0
C      1  0.4713310000000  0.4204330000000  0.5855850000000 1.0
C      1  0.4478000000000  0.4374910000000  0.4176960000000 1.0
C      1  0.5844840000000  0.4845510000000  0.4175990000000 1.0
C      1  0.4658270000000  0.5798230000000  0.4128180000000 1.0
C      1  0.5281010000000  0.5814670000000  0.4260850000000 1.0
C      1  0.5529920000000  0.4329750000000  0.4251240000000 1.0
C      1  0.4138370000000  0.4849100000000  0.4333090000000 1.0
C      1  0.5177490000000  0.4251490000000  0.5629020000000 1.0
C      1  0.5562050000000  0.5713950000000  0.5709110000000 1.0
C      1  0.4228010000000  0.5099120000000  0.5731050000000 1.0
C      1  0.4810610000000  0.6024700000000  0.5069920000000 1.0
C      1  0.5929600000000  0.4649790000000  0.5096110000000 1.0
C      1  0.4233710000000  0.4308030000000  0.5103260000000 1.0
C      1  0.4794580000000  0.3980250000000  0.4927970000000 1.0
C      1  0.5980280000000  0.5365630000000  0.4913170000000 1.0
C      1  0.4207510000000  0.5651880000000  0.4932770000000 1.0
C      1  0.5784120000000  0.4362270000000  0.4733440000000 1.0
C      1  0.4023120000000  0.4563530000000  0.4736360000000 1.0
C      1  0.5133710000000  0.6014950000000  0.4692970000000 1.0
C      1  0.5823080000000  0.5653370000000  0.5281270000000 1.0
C      1  0.4072360000000  0.5377770000000  0.5306450000000 1.0
C      1  0.5092950000000  0.3897280000000  0.5302520000000 1.0
C      1  0.4376700000000  0.5337300000000  0.4476560000000 1.0
C      1  0.5525900000000  0.5369190000000  0.4470210000000 1.0
C      1  0.5162020000000  0.4387540000000  0.4345850000000 1.0
C      1  0.4495950000000  0.4885570000000  0.5540010000000 1.0
C      1  0.5460640000000  0.4643760000000  0.5566910000000 1.0
C      1  0.5136700000000  0.5501050000000  0.5612330000000 1.0
C      1  0.5530540000000  0.4025930000000  0.5029530000000 1.0
C      1  0.5554120000000  0.5970650000000  0.4986650000000 1.0
C      1  0.3877610000000  0.4965590000000  0.5077680000000 1.0
C      1  0.5126080000000  0.5168370000000  0.4898890000000 1.0
END
