TITL C-3578194-7807-719 5.53991681927919e-07 125000 -285.469303947771 0 0 47 (Cs) n - 1
REM
REM in /home/bkarasulu/work/CARBON/AIRSS/Generating-Clusters/EDIP-Nigel-Params/with-SteepDescent/Higher-Symm/SD-CG/HFTN-CG
REM
REM
REM
REM
REM
REM ./C.cell (12c818d87b63d06a65506943cc24bca4)
REM
REM compiler GCC version 9.2.1 20190827 (Red Hat 9.2.1-1)
REM options -cpp -mtune=generic -march=x86-64 -g -O0 -fpre-include=/usr/include/finclude/math-vector-fortran.h
REM seed -131159548 1445906097 508465875 1251533689 -1761220254 -2079311854 1017349014 -1752541756 -183491285 1445533662 -517563770 -1846980295 1863989978 1812385751 -2062158645 1511619627 170877700 -1495811565 1192458825 1443691818 -1489081366 -1025433331 -1249318699 1072645752 -948108707 1673390575 257580135 -1364402098 -911913053 -517672415 -404416517 853597471 -206096261
REM
CELL 1.54180   50.00000   50.00000   50.00000   90.00000   90.00000   90.00000
LATT -1
SFAC C  
C      1  0.5286850000000  0.4924190000000  0.5465010000000 1.0
C      1  0.5297470000000  0.5046720000000  0.4568960000000 1.0
C      1  0.4676780000000  0.4924270000000  0.5464980000000 1.0
C      1  0.4666280000000  0.5046800000000  0.4568930000000 1.0
C      1  0.4694090000000  0.4472620000000  0.5280460000000 1.0
C      1  0.4694560000000  0.5507880000000  0.4718870000000 1.0
C      1  0.5269430000000  0.4472540000000  0.5280490000000 1.0
C      1  0.5269290000000  0.5507800000000  0.4718900000000 1.0
C      1  0.4359820000000  0.4780400000000  0.5137890000000 1.0
C      1  0.4353390000000  0.5221070000000  0.4876520000000 1.0
C      1  0.5603800000000  0.4780240000000  0.5137950000000 1.0
C      1  0.5610370000000  0.5220900000000  0.4876580000000 1.0
C      1  0.5439730000000  0.5295990000000  0.4644780000000 1.0
C      1  0.5433200000000  0.4686120000000  0.5363510000000 1.0
C      1  0.4524070000000  0.5296110000000  0.4644740000000 1.0
C      1  0.4530370000000  0.4686240000000  0.5363470000000 1.0
C      1  0.5230760000000  0.5506130000000  0.5205110000000 1.0
C      1  0.5234090000000  0.4535860000000  0.4799170000000 1.0
C      1  0.4733040000000  0.5506190000000  0.5205080000000 1.0
C      1  0.4729500000000  0.4535920000000  0.4799150000000 1.0
C      1  0.4455540000000  0.5493070000000  0.5264120000000 1.0
C      1  0.4451080000000  0.4515890000000  0.4733270000000 1.0
C      1  0.5508250000000  0.5492930000000  0.5264170000000 1.0
C      1  0.5512520000000  0.4515750000000  0.4733320000000 1.0
C      1  0.4291730000000  0.4580040000000  0.4953170000000 1.0
C      1  0.4293540000000  0.5438100000000  0.5043520000000 1.0
C      1  0.5671860000000  0.4579870000000  0.4953240000000 1.0
C      1  0.5670260000000  0.5437920000000  0.5043590000000 1.0
C      1  0.4729600000000  0.4913530000000  0.4832340000000 1.0
C      1  0.4695620000000  0.5124480000000  0.5229920000000 1.0
C      1  0.5234090000000  0.4913470000000  0.4832370000000 1.0
C      1  0.5268080000000  0.5124410000000  0.5229950000000 1.0
C      1  0.5125380000000  0.5573080000000  0.4948800000000 1.0
C      1  0.5125890000000  0.4432360000000  0.5044250000000 1.0
C      1  0.4838460000000  0.5573110000000  0.4948790000000 1.0
C      1  0.4837650000000  0.4432390000000  0.5044230000000 1.0
C      1  0.4395240000000  0.4647310000000  0.4493650000000 1.0
C      1  0.4409820000000  0.5342830000000  0.5490690000000 1.0
C      1  0.5568410000000  0.4647160000000  0.4493710000000 1.0
C      1  0.5553910000000  0.5342690000000  0.5490750000000 1.0
C      1  0.4515410000000  0.5115930000000  0.5594710000000 1.0
C      1  0.4514900000000  0.4873950000000  0.4409080000000 1.0
C      1  0.5448250000000  0.5115810000000  0.5594750000000 1.0
C      1  0.5448810000000  0.4873830000000  0.4409130000000 1.0
C      1  0.4512460000000  0.5008680000000  0.5017270000000 1.0
C      1  0.5451230000000  0.5008560000000  0.5017320000000 1.0
C      1  0.4981850000000  0.5012120000000  0.4966140000000 1.0
END
