TITL C-3578195-8548-137 1.66930080621778e-07 125000 -851.360442476993 0 0 140 (C1) n - 1
REM
REM in /home/bkarasulu/work/CARBON/AIRSS/Generating-Clusters/EDIP-Nigel-Params/with-SteepDescent/Higher-Symm/SD-CG/HFTN-CG
REM
REM
REM
REM
REM
REM ./C.cell (12c818d87b63d06a65506943cc24bca4)
REM
REM compiler GCC version 9.2.1 20190827 (Red Hat 9.2.1-1)
REM options -cpp -mtune=generic -march=x86-64 -g -O0 -fpre-include=/usr/include/finclude/math-vector-fortran.h
REM seed -407075069 644287665 -658632172 1764654131 -889907503 450234685 1381539345 -136118122 -298488295 -1470515166 -176983643 -147022705 -591891077 -1058184099 1940605597 122651000 520965269 1736470095 -604972427 -1226779172 1571038501 -1263773923 1230720758 -1615257223 1174075797 425234226 -1983649800 -784288306 1083383853 -269686444 -1649054504 -265442393 -1779947954
REM
CELL 1.54180   50.00000   50.00000   50.00000   90.00000   90.00000   90.00000
LATT -1
SFAC C  
C      1  0.4831510000000  0.6115010000000  0.5657680000000 1.0
C      1  0.4836440000000  0.6132800000000  0.5179280000000 1.0
C      1  0.4389000000000  0.6059910000000  0.5025660000000 1.0
C      1  0.4334710000000  0.6182010000000  0.4558630000000 1.0
C      1  0.4536810000000  0.5890490000000  0.4233520000000 1.0
C      1  0.4946580000000  0.5818170000000  0.4006780000000 1.0
C      1  0.5215150000000  0.6217930000000  0.4042920000000 1.0
C      1  0.5340340000000  0.6120730000000  0.4498720000000 1.0
C      1  0.5583880000000  0.6101790000000  0.4915150000000 1.0
C      1  0.5411090000000  0.6107930000000  0.5366580000000 1.0
C      1  0.5268200000000  0.6265650000000  0.5800430000000 1.0
C      1  0.4226060000000  0.5036500000000  0.4734550000000 1.0
C      1  0.4493290000000  0.5068380000000  0.4372580000000 1.0
C      1  0.4986700000000  0.4975670000000  0.4251260000000 1.0
C      1  0.5408840000000  0.4979860000000  0.4330290000000 1.0
C      1  0.5717710000000  0.4938630000000  0.4715240000000 1.0
C      1  0.5857940000000  0.4929210000000  0.5120880000000 1.0
C      1  0.5644840000000  0.4855070000000  0.5602750000000 1.0
C      1  0.5247950000000  0.4840960000000  0.5809180000000 1.0
C      1  0.4801500000000  0.4931830000000  0.5835800000000 1.0
C      1  0.4404270000000  0.4957750000000  0.5598110000000 1.0
C      1  0.4187930000000  0.5001680000000  0.5196190000000 1.0
C      1  0.4232640000000  0.4923220000000  0.4443590000000 1.0
C      1  0.4626140000000  0.4990120000000  0.4109930000000 1.0
C      1  0.5252140000000  0.4945240000000  0.3969770000000 1.0
C      1  0.5707220000000  0.4970420000000  0.4330240000000 1.0
C      1  0.6089260000000  0.4873440000000  0.4810460000000 1.0
C      1  0.6022400000000  0.4893930000000  0.5370440000000 1.0
C      1  0.5621780000000  0.4870070000000  0.5988970000000 1.0
C      1  0.5013630000000  0.4776170000000  0.5988460000000 1.0
C      1  0.4520510000000  0.4812600000000  0.5838740000000 1.0
C      1  0.4156250000000  0.4835160000000  0.5457700000000 1.0
C      1  0.4047200000000  0.4903450000000  0.4941610000000 1.0
C      1  0.4183440000000  0.4174370000000  0.5041790000000 1.0
C      1  0.4207680000000  0.4203900000000  0.4727100000000 1.0
C      1  0.4611060000000  0.4253520000000  0.4271460000000 1.0
C      1  0.4891290000000  0.4271360000000  0.4186490000000 1.0
C      1  0.5473150000000  0.4270470000000  0.4362350000000 1.0
C      1  0.5670880000000  0.4251320000000  0.4577780000000 1.0
C      1  0.5663410000000  0.4311930000000  0.5193970000000 1.0
C      1  0.5599490000000  0.4345100000000  0.5471150000000 1.0
C      1  0.5345190000000  0.4274220000000  0.5585670000000 1.0
C      1  0.4746810000000  0.4116110000000  0.5704970000000 1.0
C      1  0.4493270000000  0.4123270000000  0.5551330000000 1.0
C      1  0.5392400000000  0.6116640000000  0.4230630000000 1.0
C      1  0.5339580000000  0.6120240000000  0.4775240000000 1.0
C      1  0.5366040000000  0.6114100000000  0.5093760000000 1.0
C      1  0.5392250000000  0.6077900000000  0.5637690000000 1.0
C      1  0.5055860000000  0.6087000000000  0.5812500000000 1.0
C      1  0.4699060000000  0.6183710000000  0.5424710000000 1.0
C      1  0.4586100000000  0.5992150000000  0.5210400000000 1.0
C      1  0.4249430000000  0.6056350000000  0.4789760000000 1.0
C      1  0.4372230000000  0.5929970000000  0.4450490000000 1.0
C      1  0.4722100000000  0.5715950000000  0.4127780000000 1.0
C      1  0.5178340000000  0.5955780000000  0.3960110000000 1.0
C      1  0.5778010000000  0.5187930000000  0.4542040000000 1.0
C      1  0.5999910000000  0.5154940000000  0.4971750000000 1.0
C      1  0.5860010000000  0.5060820000000  0.5546740000000 1.0
C      1  0.5417000000000  0.5068850000000  0.5918920000000 1.0
C      1  0.4805750000000  0.5226400000000  0.5920860000000 1.0
C      1  0.4366980000000  0.5256850000000  0.5672620000000 1.0
C      1  0.4131400000000  0.5304590000000  0.5234570000000 1.0
C      1  0.4179650000000  0.5344720000000  0.4737630000000 1.0
C      1  0.4464480000000  0.5368150000000  0.4342990000000 1.0
C      1  0.4851190000000  0.5223230000000  0.4118730000000 1.0
C      1  0.5344050000000  0.5208950000000  0.4143830000000 1.0
C      1  0.5545360000000  0.4582200000000  0.5917450000000 1.0
C      1  0.5026130000000  0.4482340000000  0.5943930000000 1.0
C      1  0.4530730000000  0.4520700000000  0.5800900000000 1.0
C      1  0.4179320000000  0.4540760000000  0.5416320000000 1.0
C      1  0.4045170000000  0.4611710000000  0.4912220000000 1.0
C      1  0.4266630000000  0.4629010000000  0.4429330000000 1.0
C      1  0.4689410000000  0.4690700000000  0.4115470000000 1.0
C      1  0.5238950000000  0.4660470000000  0.4087590000000 1.0
C      1  0.5719720000000  0.4669320000000  0.4369500000000 1.0
C      1  0.5954850000000  0.4599890000000  0.4850290000000 1.0
C      1  0.5983840000000  0.4602410000000  0.5389340000000 1.0
C      1  0.5341630000000  0.5418640000000  0.5530810000000 1.0
C      1  0.5063840000000  0.5491080000000  0.5605610000000 1.0
C      1  0.4774440000000  0.5490060000000  0.5518110000000 1.0
C      1  0.4555530000000  0.5563790000000  0.5323720000000 1.0
C      1  0.4517600000000  0.5529260000000  0.5026830000000 1.0
C      1  0.4641090000000  0.5564010000000  0.4751810000000 1.0
C      1  0.4871350000000  0.5517680000000  0.4556590000000 1.0
C      1  0.5168970000000  0.5510110000000  0.4551000000000 1.0
C      1  0.5399830000000  0.5487700000000  0.4751060000000 1.0
C      1  0.5566190000000  0.5459770000000  0.5011550000000 1.0
C      1  0.5544660000000  0.5433770000000  0.5312510000000 1.0
C      1  0.5496080000000  0.4134300000000  0.5043110000000 1.0
C      1  0.5280870000000  0.3999540000000  0.5179900000000 1.0
C      1  0.5180300000000  0.4090750000000  0.5434580000000 1.0
C      1  0.4917990000000  0.3996550000000  0.5504510000000 1.0
C      1  0.4589620000000  0.3999610000000  0.5306620000000 1.0
C      1  0.4462620000000  0.4051250000000  0.5053220000000 1.0
C      1  0.4487930000000  0.4088270000000  0.4734320000000 1.0
C      1  0.4643490000000  0.4064300000000  0.4491620000000 1.0
C      1  0.5005840000000  0.4077400000000  0.4371000000000 1.0
C      1  0.5267230000000  0.4100890000000  0.4476090000000 1.0
C      1  0.5520720000000  0.4085390000000  0.4763040000000 1.0
C      1  0.4505360000000  0.4529210000000  0.4278650000000 1.0
C      1  0.4958560000000  0.4554850000000  0.4128010000000 1.0
C      1  0.5468340000000  0.4546910000000  0.4257220000000 1.0
C      1  0.5784940000000  0.4517340000000  0.4618990000000 1.0
C      1  0.5889250000000  0.4488360000000  0.5125570000000 1.0
C      1  0.5767130000000  0.4556000000000  0.5599210000000 1.0
C      1  0.5303220000000  0.4408260000000  0.5844110000000 1.0
C      1  0.4791510000000  0.4389280000000  0.5797390000000 1.0
C      1  0.4384890000000  0.4401260000000  0.5577260000000 1.0
C      1  0.4126560000000  0.4447360000000  0.5141130000000 1.0
C      1  0.4162690000000  0.4489800000000  0.4669970000000 1.0
C      1  0.4625170000000  0.4937640000000  0.5388310000000 1.0
C      1  0.4484540000000  0.4976470000000  0.5132360000000 1.0
C      1  0.4507610000000  0.4979870000000  0.4839200000000 1.0
C      1  0.4684110000000  0.5015940000000  0.4608450000000 1.0
C      1  0.4968010000000  0.4953110000000  0.4551440000000 1.0
C      1  0.5260650000000  0.4978190000000  0.4600120000000 1.0
C      1  0.5436740000000  0.4919120000000  0.4835740000000 1.0
C      1  0.5544430000000  0.4931500000000  0.5119340000000 1.0
C      1  0.5431700000000  0.4871270000000  0.5386060000000 1.0
C      1  0.5169120000000  0.4878040000000  0.5518480000000 1.0
C      1  0.4878080000000  0.4922790000000  0.5541230000000 1.0
C      1  0.5049400000000  0.5371190000000  0.5865440000000 1.0
C      1  0.4621660000000  0.5390300000000  0.5753480000000 1.0
C      1  0.4300580000000  0.5439200000000  0.5444050000000 1.0
C      1  0.4228810000000  0.5466380000000  0.5002820000000 1.0
C      1  0.4388040000000  0.5509050000000  0.4588590000000 1.0
C      1  0.4742880000000  0.5461980000000  0.4281670000000 1.0
C      1  0.5249290000000  0.5431870000000  0.4291620000000 1.0
C      1  0.5608360000000  0.5413550000000  0.4570850000000 1.0
C      1  0.5830440000000  0.5381470000000  0.4938780000000 1.0
C      1  0.5771240000000  0.5304480000000  0.5425870000000 1.0
C      1  0.5456810000000  0.5304760000000  0.5765200000000 1.0
C      1  0.5059740000000  0.5561750000000  0.5025520000000 1.0
C      1  0.5007480000000  0.5043500000000  0.5094310000000 1.0
C      1  0.4983470000000  0.4779050000000  0.5043490000000 1.0
C      1  0.4921620000000  0.4541330000000  0.4940570000000 1.0
C      1  0.4917290000000  0.4290360000000  0.4854190000000 1.0
C      1  0.5106760000000  0.3848120000000  0.5020420000000 1.0
C      1  0.4955580000000  0.4024580000000  0.4879890000000 1.0
C      1  0.5023270000000  0.5308430000000  0.5052420000000 1.0
END
