TITL C-3577079-311-348 -2.46588012115929e-06 125000 -326.26553722666 0 0 55 (C1) n - 1
REM
REM in /home/bkarasulu/work/CARBON/AIRSS/Generating-Clusters/EDIP-Nigel-Params/with-SteepDescent/Higher-Symm/SD-CG/HFTN-CG
REM
REM
REM
REM
REM
REM ./C.cell (12c818d87b63d06a65506943cc24bca4)
REM
REM compiler GCC version 9.2.1 20190827 (Red Hat 9.2.1-1)
REM options -cpp -mtune=generic -march=x86-64 -g -O0 -fpre-include=/usr/include/finclude/math-vector-fortran.h
REM seed -1791983605 -1597404142 -746535101 -1821786397 -1339979703 874837040 1020088542 356158583 180122499 61219964 1020311066 1224828385 965686818 764502370 -508849462 1827784092 -30960069 -705721464 -993804765 321704534 -1697459232 152175670 927894289 1282999185 197060448 -1668238648 1768415911 1777135727 23494291 1753418402 1007562625 728681868 1975927174
REM
CELL 1.54180   50.00000   50.00000   50.00000   90.00000   90.00000   90.00000
LATT -1
SFAC C  
C      1  0.5083400000000  0.4489010000000  0.4684010000000 1.0
C      1  0.4925220000000  0.5524960000000  0.4641150000000 1.0
C      1  0.4947790000000  0.4486860000000  0.5381940000000 1.0
C      1  0.5027730000000  0.5483600000000  0.5389540000000 1.0
C      1  0.4445270000000  0.5040440000000  0.4599600000000 1.0
C      1  0.5477990000000  0.4905230000000  0.4652780000000 1.0
C      1  0.4420050000000  0.4979590000000  0.5395600000000 1.0
C      1  0.5609530000000  0.5069560000000  0.5394600000000 1.0
C      1  0.5212510000000  0.4269620000000  0.5200290000000 1.0
C      1  0.4741690000000  0.5660480000000  0.5178360000000 1.0
C      1  0.4865850000000  0.4368140000000  0.4823680000000 1.0
C      1  0.5203780000000  0.5665560000000  0.4877520000000 1.0
C      1  0.4393050000000  0.5261720000000  0.5223570000000 1.0
C      1  0.5732520000000  0.4877100000000  0.5233450000000 1.0
C      1  0.4331150000000  0.4828440000000  0.4758300000000 1.0
C      1  0.5571370000000  0.5168500000000  0.4742800000000 1.0
C      1  0.4621970000000  0.5007970000000  0.5611730000000 1.0
C      1  0.5468440000000  0.4965720000000  0.5615840000000 1.0
C      1  0.5254430000000  0.4914810000000  0.4463360000000 1.0
C      1  0.4684350000000  0.4964140000000  0.4427430000000 1.0
C      1  0.5037350000000  0.4723150000000  0.5557170000000 1.0
C      1  0.4969600000000  0.5270120000000  0.5595130000000 1.0
C      1  0.4994980000000  0.5314590000000  0.4433260000000 1.0
C      1  0.5041470000000  0.4705220000000  0.4489220000000 1.0
C      1  0.5460250000000  0.5250720000000  0.5227390000000 1.0
C      1  0.4491670000000  0.4731560000000  0.5230780000000 1.0
C      1  0.4463000000000  0.5313490000000  0.4738680000000 1.0
C      1  0.5519500000000  0.4666380000000  0.4818300000000 1.0
C      1  0.5328410000000  0.5497880000000  0.5316760000000 1.0
C      1  0.4666100000000  0.4496770000000  0.5273500000000 1.0
C      1  0.5356080000000  0.4428110000000  0.4774000000000 1.0
C      1  0.4628430000000  0.5552730000000  0.4708170000000 1.0
C      1  0.5396600000000  0.5660380000000  0.5078470000000 1.0
C      1  0.4643570000000  0.4384690000000  0.4999260000000 1.0
C      1  0.4556630000000  0.5682020000000  0.4964610000000 1.0
C      1  0.5370450000000  0.4225420000000  0.4973890000000 1.0
C      1  0.5581430000000  0.5337960000000  0.4978670000000 1.0
C      1  0.4384750000000  0.4657030000000  0.4970890000000 1.0
C      1  0.5672800000000  0.4670490000000  0.5060260000000 1.0
C      1  0.4310900000000  0.5385550000000  0.4974200000000 1.0
C      1  0.4679540000000  0.4975450000000  0.4918980000000 1.0
C      1  0.5207300000000  0.5163390000000  0.4877440000000 1.0
C      1  0.5320580000000  0.4751280000000  0.5201520000000 1.0
C      1  0.4676570000000  0.5161250000000  0.5165800000000 1.0
C      1  0.4963090000000  0.4854510000000  0.4894410000000 1.0
C      1  0.5051320000000  0.5422420000000  0.4898380000000 1.0
C      1  0.4870940000000  0.5412870000000  0.5142060000000 1.0
C      1  0.5105660000000  0.4533590000000  0.5121490000000 1.0
C      1  0.5326950000000  0.4746900000000  0.5504580000000 1.0
C      1  0.5222260000000  0.5171800000000  0.4344520000000 1.0
C      1  0.4696840000000  0.5275690000000  0.5714810000000 1.0
C      1  0.4786410000000  0.4713760000000  0.4365380000000 1.0
C      1  0.4902240000000  0.4976550000000  0.5481800000000 1.0
C      1  0.4876530000000  0.5097570000000  0.4602910000000 1.0
C      1  0.5139280000000  0.4973270000000  0.5107300000000 1.0
END
