TITL C-3578200-9634-679 -1.57299790621307e-06 125000 -266.830046020411 0 0 44 (C4) n - 1
REM
REM in /home/bkarasulu/work/CARBON/AIRSS/Generating-Clusters/EDIP-Nigel-Params/with-SteepDescent/Higher-Symm/SD-CG/HFTN-CG
REM
REM
REM
REM
REM
REM ./C.cell (12c818d87b63d06a65506943cc24bca4)
REM
REM compiler GCC version 9.2.1 20190827 (Red Hat 9.2.1-1)
REM options -cpp -mtune=generic -march=x86-64 -g -O0 -fpre-include=/usr/include/finclude/math-vector-fortran.h
REM seed -1784249586 902883850 714486375 425457470 1979873163 691540762 1155735263 -1640829633 1762534336 -1004996114 1972929838 -654269443 -787170753 -1568721915 619471314 -198191228 283092231 1333777223 87503865 -1205896838 1289557514 -1208925212 313158469 -2144922983 1661043547 1001326456 239363105 224644291 -1191102687 -1905384203 435481107 1357438492 208567798
REM
CELL 1.54180   50.00000   50.00000   50.00000   90.00000   90.00000   90.00000
LATT -1
SFAC C  
C      1  0.5036040000000  0.5394330000000  0.5337770000000 1.0
C      1  0.4662110000000  0.5394230000000  0.5036020000000 1.0
C      1  0.4963860000000  0.5394200000000  0.4662090000000 1.0
C      1  0.5337790000000  0.5394300000000  0.4963840000000 1.0
C      1  0.4962950000000  0.4597830000000  0.5337430000000 1.0
C      1  0.5337410000000  0.4597830000000  0.5037170000000 1.0
C      1  0.5037150000000  0.4597730000000  0.4662710000000 1.0
C      1  0.4662680000000  0.4597730000000  0.4962970000000 1.0
C      1  0.5089170000000  0.5346760000000  0.5623350000000 1.0
C      1  0.4376550000000  0.5346580000000  0.5089150000000 1.0
C      1  0.4910750000000  0.5346520000000  0.4376530000000 1.0
C      1  0.5623370000000  0.5346700000000  0.4910730000000 1.0
C      1  0.4911810000000  0.4644980000000  0.5622800000000 1.0
C      1  0.5622780000000  0.4644970000000  0.5088290000000 1.0
C      1  0.5088270000000  0.4644780000000  0.4377330000000 1.0
C      1  0.4377310000000  0.4644790000000  0.4911830000000 1.0
C      1  0.5209330000000  0.5253210000000  0.4745670000000 1.0
C      1  0.5254250000000  0.5253300000000  0.5209320000000 1.0
C      1  0.4790610000000  0.5253250000000  0.5254240000000 1.0
C      1  0.4745680000000  0.5253160000000  0.4790590000000 1.0
C      1  0.4792110000000  0.4737940000000  0.4744870000000 1.0
C      1  0.4744850000000  0.4738010000000  0.5207970000000 1.0
C      1  0.5207950000000  0.4738080000000  0.5255220000000 1.0
C      1  0.5255210000000  0.4738000000000  0.4792120000000 1.0
C      1  0.5025850000000  0.5677450000000  0.5218170000000 1.0
C      1  0.4781630000000  0.5677390000000  0.5025810000000 1.0
C      1  0.4973990000000  0.5677370000000  0.4781590000000 1.0
C      1  0.5218210000000  0.5677430000000  0.4973950000000 1.0
C      1  0.4973890000000  0.4314460000000  0.5218380000000 1.0
C      1  0.5218340000000  0.4314450000000  0.5026310000000 1.0
C      1  0.5026270000000  0.4314390000000  0.4781860000000 1.0
C      1  0.4781820000000  0.4314390000000  0.4973930000000 1.0
C      1  0.5613000000000  0.5062930000000  0.4861040000000 1.0
C      1  0.5138940000000  0.5063000000000  0.5613000000000 1.0
C      1  0.4386980000000  0.5062820000000  0.5138940000000 1.0
C      1  0.4861040000000  0.5062750000000  0.4386980000000 1.0
C      1  0.4382710000000  0.4928490000000  0.4873580000000 1.0
C      1  0.4873580000000  0.4928680000000  0.5617310000000 1.0
C      1  0.5617310000000  0.4928680000000  0.5126440000000 1.0
C      1  0.5126440000000  0.4928490000000  0.4382710000000 1.0
C      1  0.5352300000000  0.4996590000000  0.4666870000000 1.0
C      1  0.4647700000000  0.4996620000000  0.5333130000000 1.0
C      1  0.5333130000000  0.4996710000000  0.5352300000000 1.0
C      1  0.4666870000000  0.4996510000000  0.4647700000000 1.0
END
