TITL C-3577086-586-62 -3.02862623533444e-06 125000 -487.03376099808 0 0 84 (C3) n - 1
REM
REM in /home/bkarasulu/work/CARBON/AIRSS/Generating-Clusters/EDIP-Nigel-Params/with-SteepDescent/Higher-Symm/SD-CG/HFTN-CG
REM
REM
REM
REM
REM
REM ./C.cell (12c818d87b63d06a65506943cc24bca4)
REM
REM compiler GCC version 9.2.1 20190827 (Red Hat 9.2.1-1)
REM options -cpp -mtune=generic -march=x86-64 -g -O0 -fpre-include=/usr/include/finclude/math-vector-fortran.h
REM seed -808026707 -1006015109 -46408557 1786742055 -48662069 -43468043 -1758859047 -131698821 1210451740 1122401001 1168776361 761189231 -612435218 1752291543 -1780152021 -209650716 192360871 -1711951602 570408710 -679786509 1828651793 -1646393585 -1736330215 1024757592 -586472418 -2007015525 -320630630 -1536282186 -1822705325 565594576 1382538362 1795992903 1392231918
REM
CELL 1.54180   50.00000   50.00000   50.00000   90.00000   90.00000   90.00000
LATT -1
SFAC C  
C      1  0.5005240000000  0.4797190000000  0.4517180000000 1.0
C      1  0.5005230000000  0.4683270000000  0.5417050000000 1.0
C      1  0.5005320000000  0.5519540000000  0.5065770000000 1.0
C      1  0.5003570000000  0.5155910000000  0.4174000000000 1.0
C      1  0.5003470000000  0.4206710000000  0.5277980000000 1.0
C      1  0.5003610000000  0.5637390000000  0.5548020000000 1.0
C      1  0.5739180000000  0.5356160000000  0.5250620000000 1.0
C      1  0.5739150000000  0.5038850000000  0.4566180000000 1.0
C      1  0.5739100000000  0.4604760000000  0.5183200000000 1.0
C      1  0.5113700000000  0.4675770000000  0.5126840000000 1.0
C      1  0.5113760000000  0.5271940000000  0.5217360000000 1.0
C      1  0.5113740000000  0.5052250000000  0.4655800000000 1.0
C      1  0.5638160000000  0.4875550000000  0.4795470000000 1.0
C      1  0.5638160000000  0.4885000000000  0.5209990000000 1.0
C      1  0.5638200000000  0.5239260000000  0.4994550000000 1.0
C      1  0.5089280000000  0.4133840000000  0.4911370000000 1.0
C      1  0.5089400000000  0.5356310000000  0.5794420000000 1.0
C      1  0.5089420000000  0.5509820000000  0.4294210000000 1.0
C      1  0.5800310000000  0.4629560000000  0.4892460000000 1.0
C      1  0.5800360000000  0.5091960000000  0.5374510000000 1.0
C      1  0.5800380000000  0.5278230000000  0.4733040000000 1.0
C      1  0.4344160000000  0.5422470000000  0.4526810000000 1.0
C      1  0.4344060000000  0.4379070000000  0.4870780000000 1.0
C      1  0.4344140000000  0.5198660000000  0.5602410000000 1.0
C      1  0.4180000000000  0.4889890000000  0.5246840000000 1.0
C      1  0.4180040000000  0.5268960000000  0.4972010000000 1.0
C      1  0.4179990000000  0.4841410000000  0.4781140000000 1.0
C      1  0.5249930000000  0.5671940000000  0.5012740000000 1.0
C      1  0.5249830000000  0.4675030000000  0.4411690000000 1.0
C      1  0.5249820000000  0.4652960000000  0.5575560000000 1.0
C      1  0.4802530000000  0.4998610000000  0.5647030000000 1.0
C      1  0.4802590000000  0.5561070000000  0.4677700000000 1.0
C      1  0.4802480000000  0.4440380000000  0.4675260000000 1.0
C      1  0.5430340000000  0.4515280000000  0.5387400000000 1.0
C      1  0.5430450000000  0.5577790000000  0.5226040000000 1.0
C      1  0.5430380000000  0.4906800000000  0.4386560000000 1.0
C      1  0.5306090000000  0.5670770000000  0.4714990000000 1.0
C      1  0.5305960000000  0.4417740000000  0.4561570000000 1.0
C      1  0.5306010000000  0.4911390000000  0.5723440000000 1.0
C      1  0.4903650000000  0.5166000000000  0.4851020000000 1.0
C      1  0.4903610000000  0.4788000000000  0.4930740000000 1.0
C      1  0.4903640000000  0.5046030000000  0.5218240000000 1.0
C      1  0.5303630000000  0.5619040000000  0.5494480000000 1.0
C      1  0.5303580000000  0.5118660000000  0.4216630000000 1.0
C      1  0.5303490000000  0.4262200000000  0.5288900000000 1.0
C      1  0.4625230000000  0.4340990000000  0.4902570000000 1.0
C      1  0.4625320000000  0.5245190000000  0.5619460000000 1.0
C      1  0.4625340000000  0.5413940000000  0.4477960000000 1.0
C      1  0.4703960000000  0.4722890000000  0.5660190000000 1.0
C      1  0.4704060000000  0.5710340000000  0.4909910000000 1.0
C      1  0.4703940000000  0.4566860000000  0.4429900000000 1.0
C      1  0.4597950000000  0.5186910000000  0.4791220000000 1.0
C      1  0.4597900000000  0.4725800000000  0.4942550000000 1.0
C      1  0.4597940000000  0.5087410000000  0.5266220000000 1.0
C      1  0.4361410000000  0.4580670000000  0.5383480000000 1.0
C      1  0.4361510000000  0.5541870000000  0.5171470000000 1.0
C      1  0.4361450000000  0.4877660000000  0.4445050000000 1.0
C      1  0.5347820000000  0.5387890000000  0.4320190000000 1.0
C      1  0.5347700000000  0.4217270000000  0.5003960000000 1.0
C      1  0.5347820000000  0.5394740000000  0.5675860000000 1.0
C      1  0.4614720000000  0.4829750000000  0.4322180000000 1.0
C      1  0.4614680000000  0.4498180000000  0.5486390000000 1.0
C      1  0.4614800000000  0.5672190000000  0.5191430000000 1.0
C      1  0.5045300000000  0.4280690000000  0.4661130000000 1.0
C      1  0.5045370000000  0.5066170000000  0.5792370000000 1.0
C      1  0.5045440000000  0.5653120000000  0.4546500000000 1.0
C      1  0.5656950000000  0.4439120000000  0.4730800000000 1.0
C      1  0.5657010000000  0.5047200000000  0.5620290000000 1.0
C      1  0.5657060000000  0.5513480000000  0.4648920000000 1.0
C      1  0.4468480000000  0.5276450000000  0.5055040000000 1.0
C      1  0.4468440000000  0.4909520000000  0.4733110000000 1.0
C      1  0.4468430000000  0.4814190000000  0.5211850000000 1.0
C      1  0.4789390000000  0.5084040000000  0.4363060000000 1.0
C      1  0.4789320000000  0.4406400000000  0.5245710000000 1.0
C      1  0.4789430000000  0.5509620000000  0.5391230000000 1.0
C      1  0.5393650000000  0.4472470000000  0.4853610000000 1.0
C      1  0.5393720000000  0.5136930000000  0.5530020000000 1.0
C      1  0.5393740000000  0.5390490000000  0.4616370000000 1.0
C      1  0.5326600000000  0.4905970000000  0.5220960000000 1.0
C      1  0.5326640000000  0.5238320000000  0.4970920000000 1.0
C      1  0.5326600000000  0.4855610000000  0.4808120000000 1.0
C      1  0.4158610000000  0.5344240000000  0.4706030000000 1.0
C      1  0.4158530000000  0.4573430000000  0.4848930000000 1.0
C      1  0.4158580000000  0.5082590000000  0.5445030000000 1.0
END
