TITL C-3577089-586-377 -2.09292618895345e-06 125000 -1032.65661648208 0 0 166 (C1) n - 1
REM
REM in /home/bkarasulu/work/CARBON/AIRSS/Generating-Clusters/EDIP-Nigel-Params/with-SteepDescent/Higher-Symm/SD-CG/HFTN-CG
REM
REM
REM
REM
REM
REM ./C.cell (12c818d87b63d06a65506943cc24bca4)
REM
REM compiler GCC version 9.2.1 20190827 (Red Hat 9.2.1-1)
REM options -cpp -mtune=generic -march=x86-64 -g -O0 -fpre-include=/usr/include/finclude/math-vector-fortran.h
REM seed 1905225773 1090588029 1081604586 882687010 -249608804 -1457288835 -1354071020 1893344464 -881487395 -1403644292 1423243565 1062280196 -1188534157 -1101909215 1771336526 -674785811 -1246850457 -929091291 1186365554 1879825890 -687632630 1036391980 556501444 -672083416 -2144017743 1831274562 193803151 -7861758 -1041236253 -626807776 -1514083985 -852396391 -1838179975
REM
CELL 1.54180   50.00000   50.00000   50.00000   90.00000   90.00000   90.00000
LATT -1
SFAC C  
C      1  0.5637450000000  0.4645540000000  0.5766100000000 1.0
C      1  0.5639190000000  0.4640570000000  0.4233000000000 1.0
C      1  0.4548550000000  0.5396360000000  0.4843980000000 1.0
C      1  0.4559150000000  0.5382940000000  0.5154690000000 1.0
C      1  0.4368780000000  0.5128380000000  0.4081670000000 1.0
C      1  0.4363960000000  0.5126020000000  0.5922650000000 1.0
C      1  0.5035050000000  0.3962970000000  0.5150100000000 1.0
C      1  0.5034880000000  0.3963060000000  0.4851620000000 1.0
C      1  0.5011050000000  0.5185770000000  0.5805700000000 1.0
C      1  0.5015950000000  0.5176750000000  0.4190630000000 1.0
C      1  0.4963140000000  0.5036780000000  0.4711170000000 1.0
C      1  0.4971910000000  0.5032630000000  0.5277570000000 1.0
C      1  0.5339020000000  0.5724450000000  0.5292700000000 1.0
C      1  0.5347790000000  0.5720850000000  0.4700800000000 1.0
C      1  0.4617430000000  0.4223660000000  0.4394770000000 1.0
C      1  0.4617760000000  0.4224870000000  0.5606150000000 1.0
C      1  0.3986310000000  0.4897610000000  0.4842320000000 1.0
C      1  0.3988140000000  0.4898590000000  0.5155360000000 1.0
C      1  0.4066440000000  0.4678860000000  0.4638860000000 1.0
C      1  0.4067430000000  0.4679640000000  0.5358070000000 1.0
C      1  0.5394960000000  0.5455730000000  0.5149360000000 1.0
C      1  0.5396540000000  0.5453600000000  0.4844650000000 1.0
C      1  0.5696450000000  0.5325780000000  0.5569140000000 1.0
C      1  0.5697310000000  0.5322480000000  0.4426490000000 1.0
C      1  0.4636240000000  0.5093480000000  0.4828480000000 1.0
C      1  0.4641510000000  0.5090570000000  0.5148390000000 1.0
C      1  0.6111090000000  0.5187350000000  0.5243620000000 1.0
C      1  0.6113060000000  0.5186040000000  0.4754660000000 1.0
C      1  0.5658430000000  0.4388720000000  0.5288750000000 1.0
C      1  0.5658700000000  0.4386550000000  0.4711940000000 1.0
C      1  0.5021340000000  0.4543540000000  0.5308770000000 1.0
C      1  0.5021770000000  0.4543410000000  0.4691160000000 1.0
C      1  0.5027880000000  0.5328700000000  0.4843900000000 1.0
C      1  0.5030680000000  0.5325080000000  0.5154780000000 1.0
C      1  0.4791540000000  0.5448150000000  0.3910790000000 1.0
C      1  0.4789390000000  0.5445650000000  0.6093560000000 1.0
C      1  0.4831130000000  0.5516150000000  0.4459240000000 1.0
C      1  0.4826270000000  0.5500740000000  0.5548660000000 1.0
C      1  0.4390270000000  0.5725250000000  0.5376970000000 1.0
C      1  0.4384000000000  0.5737130000000  0.4620920000000 1.0
C      1  0.4803680000000  0.5504080000000  0.5252910000000 1.0
C      1  0.4804710000000  0.5514770000000  0.4751460000000 1.0
C      1  0.5917320000000  0.5375630000000  0.5145250000000 1.0
C      1  0.5918300000000  0.5374640000000  0.4850720000000 1.0
C      1  0.5440020000000  0.4590800000000  0.4011850000000 1.0
C      1  0.5437810000000  0.4596620000000  0.5986820000000 1.0
C      1  0.4381170000000  0.4909070000000  0.4834720000000 1.0
C      1  0.4382970000000  0.4911790000000  0.5165460000000 1.0
C      1  0.5356170000000  0.6213120000000  0.5165570000000 1.0
C      1  0.5333620000000  0.6204240000000  0.4860360000000 1.0
C      1  0.4406790000000  0.5580770000000  0.5646590000000 1.0
C      1  0.4411210000000  0.5582970000000  0.4358940000000 1.0
C      1  0.4817180000000  0.5779440000000  0.5151750000000 1.0
C      1  0.4818220000000  0.5787220000000  0.4854090000000 1.0
C      1  0.4582760000000  0.4200190000000  0.5306590000000 1.0
C      1  0.4583310000000  0.4199640000000  0.4694700000000 1.0
C      1  0.5619690000000  0.5087400000000  0.4256720000000 1.0
C      1  0.5617570000000  0.5092290000000  0.5740200000000 1.0
C      1  0.5279180000000  0.4351200000000  0.5920110000000 1.0
C      1  0.5279760000000  0.4346820000000  0.4079990000000 1.0
C      1  0.5538330000000  0.5232050000000  0.4005130000000 1.0
C      1  0.5538510000000  0.5239360000000  0.5990970000000 1.0
C      1  0.4618880000000  0.5212620000000  0.3918590000000 1.0
C      1  0.4614760000000  0.5211500000000  0.6085950000000 1.0
C      1  0.6054070000000  0.4686510000000  0.4722060000000 1.0
C      1  0.6052880000000  0.4688870000000  0.5277470000000 1.0
C      1  0.4796140000000  0.4654360000000  0.5140400000000 1.0
C      1  0.4797460000000  0.4656270000000  0.4858240000000 1.0
C      1  0.5515770000000  0.5951020000000  0.5168290000000 1.0
C      1  0.5518000000000  0.5952020000000  0.4852780000000 1.0
C      1  0.5614430000000  0.4416440000000  0.5575620000000 1.0
C      1  0.5614980000000  0.4412860000000  0.4424820000000 1.0
C      1  0.4778650000000  0.6055340000000  0.4498190000000 1.0
C      1  0.4782910000000  0.6051060000000  0.5504980000000 1.0
C      1  0.4631240000000  0.4726210000000  0.5571220000000 1.0
C      1  0.4632080000000  0.4723880000000  0.4428390000000 1.0
C      1  0.4395290000000  0.4406600000000  0.5182030000000 1.0
C      1  0.4395740000000  0.4405660000000  0.4818580000000 1.0
C      1  0.4345960000000  0.4817150000000  0.5821980000000 1.0
C      1  0.4348670000000  0.4818540000000  0.4177680000000 1.0
C      1  0.4821340000000  0.5857060000000  0.4290450000000 1.0
C      1  0.4823050000000  0.5845350000000  0.5708150000000 1.0
C      1  0.5296270000000  0.5605400000000  0.5579930000000 1.0
C      1  0.5293900000000  0.5598530000000  0.4416570000000 1.0
C      1  0.4874650000000  0.4127820000000  0.4279960000000 1.0
C      1  0.4875260000000  0.4129610000000  0.5721020000000 1.0
C      1  0.5057740000000  0.4776700000000  0.3774290000000 1.0
C      1  0.5056350000000  0.4780830000000  0.6225570000000 1.0
C      1  0.5270990000000  0.4026550000000  0.4451550000000 1.0
C      1  0.5271950000000  0.4028110000000  0.5550480000000 1.0
C      1  0.4217640000000  0.5615750000000  0.4854740000000 1.0
C      1  0.4197790000000  0.5641220000000  0.5160260000000 1.0
C      1  0.4759370000000  0.4501850000000  0.4024860000000 1.0
C      1  0.4759330000000  0.4503570000000  0.5975250000000 1.0
C      1  0.5395300000000  0.4972350000000  0.5588590000000 1.0
C      1  0.5398360000000  0.4968870000000  0.4409770000000 1.0
C      1  0.5035180000000  0.6143100000000  0.4621600000000 1.0
C      1  0.5045470000000  0.6127260000000  0.5372270000000 1.0
C      1  0.5864700000000  0.4529540000000  0.4855730000000 1.0
C      1  0.5864440000000  0.4530640000000  0.5144240000000 1.0
C      1  0.5255320000000  0.4812990000000  0.3970810000000 1.0
C      1  0.5252190000000  0.4818380000000  0.6027440000000 1.0
C      1  0.4596510000000  0.5938070000000  0.4711090000000 1.0
C      1  0.4597200000000  0.5934770000000  0.5292170000000 1.0
C      1  0.4945630000000  0.4750290000000  0.5546710000000 1.0
C      1  0.4947050000000  0.4744980000000  0.4450270000000 1.0
C      1  0.5301950000000  0.4021510000000  0.5266660000000 1.0
C      1  0.5301700000000  0.4020740000000  0.4735220000000 1.0
C      1  0.4533500000000  0.4668930000000  0.5273940000000 1.0
C      1  0.4534050000000  0.4666980000000  0.4726140000000 1.0
C      1  0.4203940000000  0.4842080000000  0.4434150000000 1.0
C      1  0.4202500000000  0.4841540000000  0.5564690000000 1.0
C      1  0.4041320000000  0.5167610000000  0.4722150000000 1.0
C      1  0.4042130000000  0.5169590000000  0.5276590000000 1.0
C      1  0.5080930000000  0.5879720000000  0.5223980000000 1.0
C      1  0.5086870000000  0.5901630000000  0.4782620000000 1.0
C      1  0.4189870000000  0.5116960000000  0.5505230000000 1.0
C      1  0.4191170000000  0.5117510000000  0.4494950000000 1.0
C      1  0.4552350000000  0.4491700000000  0.4239760000000 1.0
C      1  0.4552990000000  0.4492920000000  0.5760110000000 1.0
C      1  0.5223930000000  0.4932240000000  0.4847380000000 1.0
C      1  0.5226160000000  0.4927390000000  0.5138270000000 1.0
C      1  0.5958810000000  0.4948000000000  0.4738410000000 1.0
C      1  0.5956230000000  0.4949790000000  0.5261110000000 1.0
C      1  0.5035660000000  0.3909220000000  0.5651000000000 1.0
C      1  0.5034660000000  0.3907600000000  0.4351370000000 1.0
C      1  0.4622360000000  0.5677290000000  0.4167050000000 1.0
C      1  0.4620690000000  0.5672970000000  0.5835920000000 1.0
C      1  0.5337260000000  0.5426840000000  0.3947460000000 1.0
C      1  0.5336480000000  0.5433420000000  0.6046370000000 1.0
C      1  0.4305170000000  0.5308180000000  0.4312010000000 1.0
C      1  0.4300510000000  0.5305910000000  0.5692660000000 1.0
C      1  0.4132260000000  0.4413840000000  0.4704210000000 1.0
C      1  0.4131090000000  0.4413730000000  0.5294890000000 1.0
C      1  0.5533000000000  0.5522960000000  0.4262280000000 1.0
C      1  0.5536040000000  0.5529000000000  0.5732950000000 1.0
C      1  0.5079610000000  0.5388500000000  0.4406760000000 1.0
C      1  0.5086150000000  0.5391870000000  0.5590340000000 1.0
C      1  0.5156230000000  0.4915940000000  0.5750950000000 1.0
C      1  0.5161150000000  0.4909560000000  0.4247380000000 1.0
C      1  0.4977200000000  0.4313270000000  0.5920700000000 1.0
C      1  0.4977190000000  0.4311250000000  0.4080450000000 1.0
C      1  0.5408300000000  0.4239290000000  0.4314590000000 1.0
C      1  0.5407980000000  0.4242780000000  0.5686150000000 1.0
C      1  0.4732400000000  0.4994390000000  0.5901490000000 1.0
C      1  0.4736960000000  0.4994260000000  0.4101310000000 1.0
C      1  0.5291250000000  0.4612550000000  0.4815890000000 1.0
C      1  0.5290500000000  0.4612450000000  0.5183340000000 1.0
C      1  0.5813700000000  0.4869750000000  0.4213520000000 1.0
C      1  0.5811630000000  0.4875030000000  0.5784650000000 1.0
C      1  0.5649620000000  0.5297440000000  0.5267520000000 1.0
C      1  0.5651190000000  0.5295050000000  0.4728420000000 1.0
C      1  0.5509550000000  0.4789970000000  0.4628180000000 1.0
C      1  0.5506750000000  0.4791740000000  0.5370490000000 1.0
C      1  0.5064670000000  0.5327460000000  0.3938400000000 1.0
C      1  0.5064340000000  0.5332030000000  0.6059270000000 1.0
C      1  0.5673770000000  0.4986220000000  0.4820630000000 1.0
C      1  0.5671120000000  0.4987450000000  0.5176870000000 1.0
C      1  0.4008960000000  0.5437780000000  0.4779490000000 1.0
C      1  0.4012110000000  0.5441720000000  0.5224740000000 1.0
C      1  0.5480500000000  0.4215990000000  0.5141760000000 1.0
C      1  0.5479980000000  0.4215710000000  0.4859610000000 1.0
C      1  0.4854960000000  0.4219930000000  0.5167520000000 1.0
C      1  0.4855020000000  0.4220910000000  0.4834400000000 1.0
C      1  0.4818310000000  0.4764840000000  0.3919550000000 1.0
C      1  0.4816250000000  0.4766100000000  0.6082010000000 1.0
END
