TITL C-3577077-324-591 -0.000135405973706696 125000 -118.247141815986 0 0 21 (Cs) n - 1
REM
REM in /home/bkarasulu/work/CARBON/AIRSS/Generating-Clusters/EDIP-Nigel-Params/with-SteepDescent/Higher-Symm/SD-CG/HFTN-CG
REM
REM
REM
REM
REM
REM ./C.cell (12c818d87b63d06a65506943cc24bca4)
REM
REM compiler GCC version 9.2.1 20190827 (Red Hat 9.2.1-1)
REM options -cpp -mtune=generic -march=x86-64 -g -O0 -fpre-include=/usr/include/finclude/math-vector-fortran.h
REM seed -409482439 -120352566 -1642654363 1268659958 921680142 615438281 -1414297573 -1778392712 1958061548 613026665 -1814566972 -6301253 1277624586 57475923 145754387 -1090354796 -570500768 1829224037 2089995614 -1617455318 41694120 911297428 776617105 -1491332313 -427434907 537692748 -1094625443 -808825426 -1886955559 812307532 824457105 269282669 1136687499
REM
CELL 1.54180   50.00000   50.00000   50.00000   90.00000   90.00000   90.00000
LATT -1
SFAC C  
C      1  0.4841360000000  0.5736440000000  0.5061140000000 1.0
C      1  0.4841530000000  0.4626400000000  0.4388320000000 1.0
C      1  0.4841090000000  0.4537180000000  0.5471900000000 1.0
C      1  0.5125260000000  0.5736450000000  0.5061190000000 1.0
C      1  0.5125380000000  0.4626410000000  0.4388370000000 1.0
C      1  0.5125430000000  0.4537190000000  0.5471950000000 1.0
C      1  0.4688930000000  0.4855200000000  0.4423630000000 1.0
C      1  0.4691800000000  0.4546740000000  0.5238000000000 1.0
C      1  0.4688310000000  0.5628210000000  0.5265510000000 1.0
C      1  0.5277960000000  0.4855210000000  0.4423730000000 1.0
C      1  0.5274800000000  0.4546750000000  0.5238100000000 1.0
C      1  0.5278240000000  0.5628230000000  0.5265610000000 1.0
C      1  0.4739620000000  0.5380250000000  0.5152550000000 1.0
C      1  0.4739450000000  0.4829230000000  0.4695010000000 1.0
C      1  0.4741130000000  0.4819840000000  0.5240030000000 1.0
C      1  0.5226990000000  0.5380260000000  0.5152630000000 1.0
C      1  0.5227340000000  0.4829240000000  0.4695100000000 1.0
C      1  0.5225460000000  0.4819850000000  0.5240110000000 1.0
C      1  0.4983300000000  0.5234820000000  0.5182990000000 1.0
C      1  0.4983370000000  0.4902690000000  0.4823840000000 1.0
C      1  0.4983320000000  0.4943430000000  0.5120280000000 1.0
END
