TITL C-3578203-1966-628 -4.27105436875037e-07 125000 -371.44219838116 0 0 62 (C2h) n - 1
REM
REM in /home/bkarasulu/work/CARBON/AIRSS/Generating-Clusters/EDIP-Nigel-Params/with-SteepDescent/Higher-Symm/SD-CG/HFTN-CG
REM
REM
REM
REM
REM
REM ./C.cell (12c818d87b63d06a65506943cc24bca4)
REM
REM compiler GCC version 9.2.1 20190827 (Red Hat 9.2.1-1)
REM options -cpp -mtune=generic -march=x86-64 -g -O0 -fpre-include=/usr/include/finclude/math-vector-fortran.h
REM seed 1434616840 -561508943 2124924624 -178591685 164944347 1262846047 -1318304773 1256091795 -1199043004 -474218359 1975026369 82604863 -2108139667 1633993890 1913674965 -1748501999 -1575308588 756382104 333908061 1318196870 1070806196 -1222846176 -940949063 1304154416 -1764890819 251745795 1106631396 -2068921522 -603539136 1341510629 -1816820827 1419795162 -1287861854
REM
CELL 1.54180   50.00000   50.00000   50.00000   90.00000   90.00000   90.00000
LATT -1
SFAC C  
C      1  0.5299410000000  0.4754720000000  0.5413110000000 1.0
C      1  0.4703010000000  0.4747480000000  0.4589450000000 1.0
C      1  0.5296990000000  0.5244110000000  0.5410550000000 1.0
C      1  0.4700590000000  0.5236860000000  0.4586890000000 1.0
C      1  0.4791710000000  0.4727210000000  0.5264130000000 1.0
C      1  0.5210940000000  0.4726520000000  0.4738680000000 1.0
C      1  0.4789060000000  0.5265060000000  0.5261320000000 1.0
C      1  0.5208290000000  0.5264370000000  0.4735870000000 1.0
C      1  0.4305960000000  0.4749520000000  0.5341370000000 1.0
C      1  0.5696450000000  0.4752820000000  0.4661190000000 1.0
C      1  0.4303550000000  0.5238770000000  0.5338810000000 1.0
C      1  0.5694040000000  0.5242060000000  0.4658630000000 1.0
C      1  0.5797500000000  0.4763460000000  0.5397790000000 1.0
C      1  0.4204850000000  0.4751470000000  0.4604700000000 1.0
C      1  0.5795150000000  0.5240120000000  0.5395300000000 1.0
C      1  0.4202500000000  0.5228120000000  0.4602210000000 1.0
C      1  0.5472640000000  0.5326570000000  0.4854610000000 1.0
C      1  0.4524120000000  0.5323390000000  0.5141950000000 1.0
C      1  0.5475880000000  0.4668190000000  0.4858050000000 1.0
C      1  0.4527360000000  0.4665020000000  0.5145390000000 1.0
C      1  0.4455500000000  0.5285050000000  0.4764210000000 1.0
C      1  0.5541610000000  0.5292850000000  0.5232730000000 1.0
C      1  0.4458390000000  0.4698730000000  0.4767270000000 1.0
C      1  0.5544500000000  0.4706530000000  0.5235790000000 1.0
C      1  0.5554630000000  0.4839740000000  0.4410380000000 1.0
C      1  0.4446900000000  0.4840460000000  0.5591250000000 1.0
C      1  0.5553100000000  0.5151120000000  0.4408750000000 1.0
C      1  0.4445370000000  0.5151840000000  0.5589620000000 1.0
C      1  0.4296220000000  0.4833440000000  0.4328940000000 1.0
C      1  0.5705310000000  0.4847410000000  0.5672680000000 1.0
C      1  0.4294690000000  0.5144170000000  0.4327320000000 1.0
C      1  0.5703780000000  0.5158140000000  0.5671060000000 1.0
C      1  0.5446350000000  0.4394970000000  0.5202360000000 1.0
C      1  0.4559600000000  0.4388520000000  0.4803950000000 1.0
C      1  0.5440400000000  0.5603060000000  0.5196050000000 1.0
C      1  0.4553650000000  0.5596610000000  0.4797640000000 1.0
C      1  0.4597200000000  0.4368770000000  0.5094730000000 1.0
C      1  0.5408960000000  0.4371810000000  0.4911810000000 1.0
C      1  0.4591040000000  0.5619770000000  0.5088190000000 1.0
C      1  0.5402800000000  0.5622810000000  0.4905270000000 1.0
C      1  0.4934380000000  0.4475090000000  0.5239430000000 1.0
C      1  0.5070760000000  0.4473290000000  0.4766030000000 1.0
C      1  0.4929240000000  0.5518300000000  0.5233970000000 1.0
C      1  0.5065620000000  0.5516490000000  0.4760570000000 1.0
C      1  0.5194290000000  0.4474750000000  0.5369220000000 1.0
C      1  0.4810870000000  0.4469030000000  0.4636260000000 1.0
C      1  0.5189130000000  0.5522550000000  0.5363740000000 1.0
C      1  0.4805710000000  0.5516830000000  0.4630780000000 1.0
C      1  0.5245620000000  0.5150430000000  0.4464950000000 1.0
C      1  0.4752840000000  0.5153590000000  0.5533420000000 1.0
C      1  0.5247160000000  0.4837990000000  0.4466580000000 1.0
C      1  0.4754380000000  0.4841150000000  0.5535050000000 1.0
C      1  0.4608030000000  0.5145980000000  0.4319970000000 1.0
C      1  0.5390430000000  0.5156940000000  0.5678410000000 1.0
C      1  0.4609570000000  0.4834640000000  0.4321590000000 1.0
C      1  0.5391970000000  0.4845600000000  0.5680030000000 1.0
C      1  0.4152440000000  0.4992930000000  0.5252310000000 1.0
C      1  0.4060720000000  0.4989670000000  0.4715360000000 1.0
C      1  0.5939280000000  0.5001910000000  0.5284640000000 1.0
C      1  0.5847560000000  0.4998650000000  0.4747690000000 1.0
C      1  0.5949140000000  0.5000500000000  0.5006980000000 1.0
C      1  0.4050860000000  0.4991080000000  0.4993020000000 1.0
END
