TITL C-3578197-9521-110 2.18173278566995e-07 125000 -606.642674436914 0 0 98 (C1) n - 1
REM
REM in /home/bkarasulu/work/CARBON/AIRSS/Generating-Clusters/EDIP-Nigel-Params/with-SteepDescent/Higher-Symm/SD-CG/HFTN-CG
REM
REM
REM
REM
REM
REM ./C.cell (12c818d87b63d06a65506943cc24bca4)
REM
REM compiler GCC version 9.2.1 20190827 (Red Hat 9.2.1-1)
REM options -cpp -mtune=generic -march=x86-64 -g -O0 -fpre-include=/usr/include/finclude/math-vector-fortran.h
REM seed -1162695948 1694748050 557272718 1262602179 1155271821 -1532375837 -91059831 585500628 -836973762 -1529690671 -158301678 2119802502 -2140109238 1761867326 -1782521975 -1765982425 1160347890 -73522792 531411472 658660488 -2086051471 -382279679 -1264331727 -1700598214 -427866185 729300958 -139877990 -1991538200 108581835 -1584133017 273882923 -1759712674 -2054594631
REM
CELL 1.54180   50.00000   50.00000   50.00000   90.00000   90.00000   90.00000
LATT -1
SFAC C  
C      1  0.5586100000000  0.4143000000000  0.4963890000000 1.0
C      1  0.4691930000000  0.4117930000000  0.4548840000000 1.0
C      1  0.4760310000000  0.4133320000000  0.5484030000000 1.0
C      1  0.4427080000000  0.5156560000000  0.4442070000000 1.0
C      1  0.4791110000000  0.5154260000000  0.5776040000000 1.0
C      1  0.5764410000000  0.5150410000000  0.4791930000000 1.0
C      1  0.5492060000000  0.4959970000000  0.4497150000000 1.0
C      1  0.4302900000000  0.4971740000000  0.4826940000000 1.0
C      1  0.5183280000000  0.4964730000000  0.5688370000000 1.0
C      1  0.4785960000000  0.5709540000000  0.5497410000000 1.0
C      1  0.5530920000000  0.5703610000000  0.4939700000000 1.0
C      1  0.4676120000000  0.5709650000000  0.4573200000000 1.0
C      1  0.4648950000000  0.5454500000000  0.5373170000000 1.0
C      1  0.5488460000000  0.5448650000000  0.5119270000000 1.0
C      1  0.4849660000000  0.5452180000000  0.4518980000000 1.0
C      1  0.5374450000000  0.4486540000000  0.5567650000000 1.0
C      1  0.5296700000000  0.4472110000000  0.4396650000000 1.0
C      1  0.4308160000000  0.4492580000000  0.5031820000000 1.0
C      1  0.4512260000000  0.5385380000000  0.4851880000000 1.0
C      1  0.5105250000000  0.5380830000000  0.5497840000000 1.0
C      1  0.5367700000000  0.5377100000000  0.4661700000000 1.0
C      1  0.5122560000000  0.4953250000000  0.5390250000000 1.0
C      1  0.5265560000000  0.4948130000000  0.4700480000000 1.0
C      1  0.4590560000000  0.4957640000000  0.4923780000000 1.0
C      1  0.4716720000000  0.5792550000000  0.5026910000000 1.0
C      1  0.5159180000000  0.5789470000000  0.5235590000000 1.0
C      1  0.5118750000000  0.5788990000000  0.4747830000000 1.0
C      1  0.4521460000000  0.5047570000000  0.5777170000000 1.0
C      1  0.5897840000000  0.5043250000000  0.5025400000000 1.0
C      1  0.4562180000000  0.5045260000000  0.4210310000000 1.0
C      1  0.4628550000000  0.4218320000000  0.5256160000000 1.0
C      1  0.5440630000000  0.4202650000000  0.5193390000000 1.0
C      1  0.4966030000000  0.4165750000000  0.4555740000000 1.0
C      1  0.4355480000000  0.5124900000000  0.5338180000000 1.0
C      1  0.5601490000000  0.5116610000000  0.5389450000000 1.0
C      1  0.5025350000000  0.5118040000000  0.4287170000000 1.0
C      1  0.4849430000000  0.5218630000000  0.5486290000000 1.0
C      1  0.5484800000000  0.5213740000000  0.4888110000000 1.0
C      1  0.4649140000000  0.5219970000000  0.4637400000000 1.0
C      1  0.4177850000000  0.5223800000000  0.4904160000000 1.0
C      1  0.5315600000000  0.5214770000000  0.5760200000000 1.0
C      1  0.5489330000000  0.5211480000000  0.4348480000000 1.0
C      1  0.4814730000000  0.4766650000000  0.4564640000000 1.0
C      1  0.4699360000000  0.4767520000000  0.5382700000000 1.0
C      1  0.5465860000000  0.4761220000000  0.5069520000000 1.0
C      1  0.5291030000000  0.5778140000000  0.4484090000000 1.0
C      1  0.4402250000000  0.5786730000000  0.5009770000000 1.0
C      1  0.5301300000000  0.5780140000000  0.5516560000000 1.0
C      1  0.4720320000000  0.4690870000000  0.4835620000000 1.0
C      1  0.4979760000000  0.4685610000000  0.5319070000000 1.0
C      1  0.5270350000000  0.4676540000000  0.4858910000000 1.0
C      1  0.5045610000000  0.5642790000000  0.5640540000000 1.0
C      1  0.5524210000000  0.5637450000000  0.4643100000000 1.0
C      1  0.4421310000000  0.5647380000000  0.4726860000000 1.0
C      1  0.5008280000000  0.4983160000000  0.4548020000000 1.0
C      1  0.4587040000000  0.4985270000000  0.5223280000000 1.0
C      1  0.5384760000000  0.4979660000000  0.5245270000000 1.0
C      1  0.4789950000000  0.5195850000000  0.4164560000000 1.0
C      1  0.4369050000000  0.5200870000000  0.5603760000000 1.0
C      1  0.5824860000000  0.5194080000000  0.5245820000000 1.0
C      1  0.4726220000000  0.5479250000000  0.5062900000000 1.0
C      1  0.5181630000000  0.5475910000000  0.5207650000000 1.0
C      1  0.5079500000000  0.5475770000000  0.4740990000000 1.0
C      1  0.4877230000000  0.4419570000000  0.4159140000000 1.0
C      1  0.4292870000000  0.4436500000000  0.5521690000000 1.0
C      1  0.5818940000000  0.4442220000000  0.5360980000000 1.0
C      1  0.5905400000000  0.4568050000000  0.5138850000000 1.0
C      1  0.4647040000000  0.4559030000000  0.4163850000000 1.0
C      1  0.4420890000000  0.4567450000000  0.5719490000000 1.0
C      1  0.5531110000000  0.5315800000000  0.5590440000000 1.0
C      1  0.5235900000000  0.5315250000000  0.4245890000000 1.0
C      1  0.4219000000000  0.5325200000000  0.5175370000000 1.0
C      1  0.5404950000000  0.4193440000000  0.4752490000000 1.0
C      1  0.4594380000000  0.4217790000000  0.4791130000000 1.0
C      1  0.5029800000000  0.4203220000000  0.5442910000000 1.0
C      1  0.5292390000000  0.5874150000000  0.4981700000000 1.0
C      1  0.4833550000000  0.5877220000000  0.4759860000000 1.0
C      1  0.4870650000000  0.5877540000000  0.5268510000000 1.0
C      1  0.5524520000000  0.5587340000000  0.5474300000000 1.0
C      1  0.5140840000000  0.5587480000000  0.4311060000000 1.0
C      1  0.4325490000000  0.5596080000000  0.5225860000000 1.0
C      1  0.5129130000000  0.4110750000000  0.4790250000000 1.0
C      1  0.4792630000000  0.4246060000000  0.5013070000000 1.0
C      1  0.5147560000000  0.4203340000000  0.5166480000000 1.0
C      1  0.4941450000000  0.4915810000000  0.5841070000000 1.0
C      1  0.5745530000000  0.4911390000000  0.4629270000000 1.0
C      1  0.4293190000000  0.4920130000000  0.4541570000000 1.0
C      1  0.4376930000000  0.4357370000000  0.5268300000000 1.0
C      1  0.5560140000000  0.4350920000000  0.5407970000000 1.0
C      1  0.5066690000000  0.4325930000000  0.4339780000000 1.0
C      1  0.5756770000000  0.4761260000000  0.4984210000000 1.0
C      1  0.4595120000000  0.4765540000000  0.4358190000000 1.0
C      1  0.4627130000000  0.4765040000000  0.5675560000000 1.0
C      1  0.5399840000000  0.4472320000000  0.4659330000000 1.0
C      1  0.4485590000000  0.4489400000000  0.4811160000000 1.0
C      1  0.5096380000000  0.4476240000000  0.5517160000000 1.0
C      1  0.4994950000000  0.5381340000000  0.5004010000000 1.0
C      1  0.4982640000000  0.4581620000000  0.5011700000000 1.0
END
