TITL C-3578205-846-474 -2.90222954974441e-06 125000 -533.671036809838 0 0 88 (C1) n - 1
REM
REM in /home/bkarasulu/work/CARBON/AIRSS/Generating-Clusters/EDIP-Nigel-Params/with-SteepDescent/Higher-Symm/SD-CG/HFTN-CG
REM
REM
REM
REM
REM
REM ./C.cell (12c818d87b63d06a65506943cc24bca4)
REM
REM compiler GCC version 9.2.1 20190827 (Red Hat 9.2.1-1)
REM options -cpp -mtune=generic -march=x86-64 -g -O0 -fpre-include=/usr/include/finclude/math-vector-fortran.h
REM seed -403675548 -1583917833 1483395626 -424126437 1157448348 648201707 -1489838766 -1306285406 -1667526414 -637346098 -1248860487 -1288984744 -1978601055 -1577188668 -1667106336 -1805289877 1393830534 -1258939110 1589494988 -1367082884 -803564164 -2049012868 1985674394 -2145809391 2046324493 1695856570 -1233847490 -173511222 -144538723 -2005635862 983506940 1356231922 311535349
REM
CELL 1.54180   50.00000   50.00000   50.00000   90.00000   90.00000   90.00000
LATT -1
SFAC C  
C      1  0.4896560000000  0.4500720000000  0.5591100000000 1.0
C      1  0.4469690000000  0.4796290000000  0.5472600000000 1.0
C      1  0.4532410000000  0.5272690000000  0.5406420000000 1.0
C      1  0.4885170000000  0.5536320000000  0.5483000000000 1.0
C      1  0.5358100000000  0.5430130000000  0.5578310000000 1.0
C      1  0.5584190000000  0.5006490000000  0.5530000000000 1.0
C      1  0.5349450000000  0.4555020000000  0.5402240000000 1.0
C      1  0.4694820000000  0.4738620000000  0.4394520000000 1.0
C      1  0.4875130000000  0.5222830000000  0.4393430000000 1.0
C      1  0.5070280000000  0.5449900000000  0.4339460000000 1.0
C      1  0.5352660000000  0.5369640000000  0.4332550000000 1.0
C      1  0.5413460000000  0.5075980000000  0.4336310000000 1.0
C      1  0.5192650000000  0.4869000000000  0.4351420000000 1.0
C      1  0.4771740000000  0.4452690000000  0.4423660000000 1.0
C      1  0.5366780000000  0.4335750000000  0.5232260000000 1.0
C      1  0.4689080000000  0.4322270000000  0.5533550000000 1.0
C      1  0.4217240000000  0.4881190000000  0.5387470000000 1.0
C      1  0.4469190000000  0.5535700000000  0.5328110000000 1.0
C      1  0.4984000000000  0.5793210000000  0.5423790000000 1.0
C      1  0.5600330000000  0.5439110000000  0.5433870000000 1.0
C      1  0.5773470000000  0.4802280000000  0.5488080000000 1.0
C      1  0.4589740000000  0.4918220000000  0.5725140000000 1.0
C      1  0.4621730000000  0.5219380000000  0.5690410000000 1.0
C      1  0.4899730000000  0.5351200000000  0.5748400000000 1.0
C      1  0.5273960000000  0.5263670000000  0.5833830000000 1.0
C      1  0.5413850000000  0.4987950000000  0.5777630000000 1.0
C      1  0.5243100000000  0.4745880000000  0.5708060000000 1.0
C      1  0.4872670000000  0.4677870000000  0.5828900000000 1.0
C      1  0.5020300000000  0.4452280000000  0.4589110000000 1.0
C      1  0.4458540000000  0.4461360000000  0.4789360000000 1.0
C      1  0.4432940000000  0.5073750000000  0.4633590000000 1.0
C      1  0.4753590000000  0.5404200000000  0.4790370000000 1.0
C      1  0.5069260000000  0.5448360000000  0.4781040000000 1.0
C      1  0.5448310000000  0.5079790000000  0.4770460000000 1.0
C      1  0.5449730000000  0.4769360000000  0.4837180000000 1.0
C      1  0.5925550000000  0.4827420000000  0.4843260000000 1.0
C      1  0.5444740000000  0.4287060000000  0.4739750000000 1.0
C      1  0.4677290000000  0.4164600000000  0.5051320000000 1.0
C      1  0.4051330000000  0.4735530000000  0.4761280000000 1.0
C      1  0.4220970000000  0.5412200000000  0.4935470000000 1.0
C      1  0.5109350000000  0.5873430000000  0.4909980000000 1.0
C      1  0.5750710000000  0.5473710000000  0.4893720000000 1.0
C      1  0.4262060000000  0.4619790000000  0.4620100000000 1.0
C      1  0.4182400000000  0.5186100000000  0.4773890000000 1.0
C      1  0.4906250000000  0.5819490000000  0.4706420000000 1.0
C      1  0.5559780000000  0.5618510000000  0.4731530000000 1.0
C      1  0.5873150000000  0.5045110000000  0.4659680000000 1.0
C      1  0.5465250000000  0.4554310000000  0.4622270000000 1.0
C      1  0.4778360000000  0.4110710000000  0.4774410000000 1.0
C      1  0.5075360000000  0.4170720000000  0.4698760000000 1.0
C      1  0.4373200000000  0.4218830000000  0.5066430000000 1.0
C      1  0.4029760000000  0.4972540000000  0.4905100000000 1.0
C      1  0.4620090000000  0.5646540000000  0.4896190000000 1.0
C      1  0.5361690000000  0.5769150000000  0.4855610000000 1.0
C      1  0.5921260000000  0.5303420000000  0.4756050000000 1.0
C      1  0.5704490000000  0.4727060000000  0.5000990000000 1.0
C      1  0.5853290000000  0.4832140000000  0.5225100000000 1.0
C      1  0.5320330000000  0.4214580000000  0.4987220000000 1.0
C      1  0.4532660000000  0.4224640000000  0.5323160000000 1.0
C      1  0.4061610000000  0.4955600000000  0.5182160000000 1.0
C      1  0.4393890000000  0.5592120000000  0.5062210000000 1.0
C      1  0.5035580000000  0.5895750000000  0.5179290000000 1.0
C      1  0.5726680000000  0.5440440000000  0.5182890000000 1.0
C      1  0.4991250000000  0.5333670000000  0.5290040000000 1.0
C      1  0.5183880000000  0.5197020000000  0.5456710000000 1.0
C      1  0.5371310000000  0.5032220000000  0.5309360000000 1.0
C      1  0.5204160000000  0.4769890000000  0.5266290000000 1.0
C      1  0.4935370000000  0.4723890000000  0.5393170000000 1.0
C      1  0.4688060000000  0.4813410000000  0.5265260000000 1.0
C      1  0.4750210000000  0.5135960000000  0.5245870000000 1.0
C      1  0.4955260000000  0.4579900000000  0.4856880000000 1.0
C      1  0.4664470000000  0.4661620000000  0.4931260000000 1.0
C      1  0.4584110000000  0.4946390000000  0.4855220000000 1.0
C      1  0.4765860000000  0.5137640000000  0.4951070000000 1.0
C      1  0.5182180000000  0.5420280000000  0.5061040000000 1.0
C      1  0.5427320000000  0.5229920000000  0.5061970000000 1.0
C      1  0.5163460000000  0.4762760000000  0.4965160000000 1.0
C      1  0.5008750000000  0.5703400000000  0.4462110000000 1.0
C      1  0.5530140000000  0.5546490000000  0.4461930000000 1.0
C      1  0.5668760000000  0.5003180000000  0.4456950000000 1.0
C      1  0.5244710000000  0.4592250000000  0.4438280000000 1.0
C      1  0.4602090000000  0.4279340000000  0.4597560000000 1.0
C      1  0.4414120000000  0.4823230000000  0.4460710000000 1.0
C      1  0.4622630000000  0.5298860000000  0.4535310000000 1.0
C      1  0.5024630000000  0.5015350000000  0.4881360000000 1.0
C      1  0.5151340000000  0.5168870000000  0.4668980000000 1.0
C      1  0.4908960000000  0.4935780000000  0.4318020000000 1.0
C      1  0.4973990000000  0.4968090000000  0.5757940000000 1.0
END
