TITL C-3577083-591-193 -2.3233942514747e-06 125000 -969.770106375579 0 0 153 (C1) n - 1
REM
REM in /home/bkarasulu/work/CARBON/AIRSS/Generating-Clusters/EDIP-Nigel-Params/with-SteepDescent/Higher-Symm/SD-CG/HFTN-CG
REM
REM
REM
REM
REM
REM ./C.cell (12c818d87b63d06a65506943cc24bca4)
REM
REM compiler GCC version 9.2.1 20190827 (Red Hat 9.2.1-1)
REM options -cpp -mtune=generic -march=x86-64 -g -O0 -fpre-include=/usr/include/finclude/math-vector-fortran.h
REM seed -586552914 -724217117 -1354271866 -1679567710 1729346877 252066825 637183730 2121526147 1711271313 -1867990375 893690672 -386521751 -228747743 1383406036 -1961260057 -1339846319 970579517 -693083579 862418405 730567066 359252229 254238108 1893163462 1161738962 -1336489973 187832674 11396898 2089191782 366507908 195115046 914466219 1378678449 557480721
REM
CELL 1.54180   50.00000   50.00000   50.00000   90.00000   90.00000   90.00000
LATT -1
SFAC C  
C      1  0.4777020000000  0.5865890000000  0.5671290000000 1.0
C      1  0.4152330000000  0.5070000000000  0.5573330000000 1.0
C      1  0.4691490000000  0.4205740000000  0.5543530000000 1.0
C      1  0.5675860000000  0.4446970000000  0.5580770000000 1.0
C      1  0.5703980000000  0.5466290000000  0.5578940000000 1.0
C      1  0.5424550000000  0.5669420000000  0.4486800000000 1.0
C      1  0.4441440000000  0.5628070000000  0.4439820000000 1.0
C      1  0.4137030000000  0.4707900000000  0.4403690000000 1.0
C      1  0.5002520000000  0.4227860000000  0.4430750000000 1.0
C      1  0.5749200000000  0.4769690000000  0.4464210000000 1.0
C      1  0.4126490000000  0.4235890000000  0.4954480000000 1.0
C      1  0.5460520000000  0.3891710000000  0.4936270000000 1.0
C      1  0.6164620000000  0.5143400000000  0.4957390000000 1.0
C      1  0.5071570000000  0.6055660000000  0.5013300000000 1.0
C      1  0.4030760000000  0.5666740000000  0.5014720000000 1.0
C      1  0.4902680000000  0.4651380000000  0.4974820000000 1.0
C      1  0.5329120000000  0.4787540000000  0.5022370000000 1.0
C      1  0.5255760000000  0.5226400000000  0.4987650000000 1.0
C      1  0.4855960000000  0.5420030000000  0.5018050000000 1.0
C      1  0.4639670000000  0.5037190000000  0.4965310000000 1.0
C      1  0.5641240000000  0.5005000000000  0.5756170000000 1.0
C      1  0.5196350000000  0.5622260000000  0.5805190000000 1.0
C      1  0.4480400000000  0.5378620000000  0.5782310000000 1.0
C      1  0.4482490000000  0.4614260000000  0.5745850000000 1.0
C      1  0.5210090000000  0.4372680000000  0.5749260000000 1.0
C      1  0.5485530000000  0.5132810000000  0.4790610000000 1.0
C      1  0.4984600000000  0.5520170000000  0.4750540000000 1.0
C      1  0.4486940000000  0.5258230000000  0.4832210000000 1.0
C      1  0.4704970000000  0.4596520000000  0.4745560000000 1.0
C      1  0.5314250000000  0.4564640000000  0.4821320000000 1.0
C      1  0.5497460000000  0.4411170000000  0.4385070000000 1.0
C      1  0.5781880000000  0.5403850000000  0.4329600000000 1.0
C      1  0.4823600000000  0.5622830000000  0.4162670000000 1.0
C      1  0.4251730000000  0.5143850000000  0.4285750000000 1.0
C      1  0.4553490000000  0.4304860000000  0.4280380000000 1.0
C      1  0.4897140000000  0.4653650000000  0.4457720000000 1.0
C      1  0.5238670000000  0.4658470000000  0.4519880000000 1.0
C      1  0.5311850000000  0.4974790000000  0.4509540000000 1.0
C      1  0.4989700000000  0.5344000000000  0.4510950000000 1.0
C      1  0.4825700000000  0.4943110000000  0.4417390000000 1.0
C      1  0.5257100000000  0.5505610000000  0.4862730000000 1.0
C      1  0.4587180000000  0.5485170000000  0.4966870000000 1.0
C      1  0.4508810000000  0.4799790000000  0.4844140000000 1.0
C      1  0.5088230000000  0.4430010000000  0.4936650000000 1.0
C      1  0.5576090000000  0.4921850000000  0.4973340000000 1.0
C      1  0.5453290000000  0.4094600000000  0.4742040000000 1.0
C      1  0.5971500000000  0.5161470000000  0.4754800000000 1.0
C      1  0.5062590000000  0.5997060000000  0.4717350000000 1.0
C      1  0.4084530000000  0.5531610000000  0.4775290000000 1.0
C      1  0.4271480000000  0.4312600000000  0.4729000000000 1.0
C      1  0.5159610000000  0.5335670000000  0.5475860000000 1.0
C      1  0.4780380000000  0.5272420000000  0.5480130000000 1.0
C      1  0.4703460000000  0.4854300000000  0.5453430000000 1.0
C      1  0.5032800000000  0.4641760000000  0.5452930000000 1.0
C      1  0.5307890000000  0.4948540000000  0.5478980000000 1.0
C      1  0.4580490000000  0.4306800000000  0.4758610000000 1.0
C      1  0.5563250000000  0.4375490000000  0.4821580000000 1.0
C      1  0.5724300000000  0.5347830000000  0.4794490000000 1.0
C      1  0.4844610000000  0.5784290000000  0.4669570000000 1.0
C      1  0.4187220000000  0.5239050000000  0.4807080000000 1.0
C      1  0.5849870000000  0.4918600000000  0.5581180000000 1.0
C      1  0.5354130000000  0.5802290000000  0.5645010000000 1.0
C      1  0.4370230000000  0.5593460000000  0.5629020000000 1.0
C      1  0.4263310000000  0.4586800000000  0.5564050000000 1.0
C      1  0.5183390000000  0.4145140000000  0.5573260000000 1.0
C      1  0.4108690000000  0.5032140000000  0.4527110000000 1.0
C      1  0.4708670000000  0.4194390000000  0.4501450000000 1.0
C      1  0.5707370000000  0.4492360000000  0.4568540000000 1.0
C      1  0.5693640000000  0.5544880000000  0.4557750000000 1.0
C      1  0.4701180000000  0.5763030000000  0.4397370000000 1.0
C      1  0.5475830000000  0.4567060000000  0.4158960000000 1.0
C      1  0.5542910000000  0.5334260000000  0.4199320000000 1.0
C      1  0.4610370000000  0.5434130000000  0.4077860000000 1.0
C      1  0.4408800000000  0.4937570000000  0.4139450000000 1.0
C      1  0.4742900000000  0.4362800000000  0.4066710000000 1.0
C      1  0.5058330000000  0.5231600000000  0.3981870000000 1.0
C      1  0.4815100000000  0.5083120000000  0.3909540000000 1.0
C      1  0.4855230000000  0.4796940000000  0.3863610000000 1.0
C      1  0.5139870000000  0.4764260000000  0.3897010000000 1.0
C      1  0.5252900000000  0.5024400000000  0.3981030000000 1.0
C      1  0.4923500000000  0.4048670000000  0.5541710000000 1.0
C      1  0.5878860000000  0.4640850000000  0.5566700000000 1.0
C      1  0.5619760000000  0.5732980000000  0.5596310000000 1.0
C      1  0.4499370000000  0.5838620000000  0.5655310000000 1.0
C      1  0.4082330000000  0.4799320000000  0.5551680000000 1.0
C      1  0.5720120000000  0.4384510000000  0.5084550000000 1.0
C      1  0.5732980000000  0.5494750000000  0.5073770000000 1.0
C      1  0.4817320000000  0.6011910000000  0.5179590000000 1.0
C      1  0.4086680000000  0.5120890000000  0.5074200000000 1.0
C      1  0.4636250000000  0.4168150000000  0.5037980000000 1.0
C      1  0.5309440000000  0.4690570000000  0.5302880000000 1.0
C      1  0.5374440000000  0.5206470000000  0.5287150000000 1.0
C      1  0.4933540000000  0.5491450000000  0.5303100000000 1.0
C      1  0.4590500000000  0.5087180000000  0.5280160000000 1.0
C      1  0.4784360000000  0.4605110000000  0.5255820000000 1.0
C      1  0.5813210000000  0.4771740000000  0.4893860000000 1.0
C      1  0.5381020000000  0.5761610000000  0.4913290000000 1.0
C      1  0.4575050000000  0.5753570000000  0.4844480000000 1.0
C      1  0.4219760000000  0.4792330000000  0.4810400000000 1.0
C      1  0.5036730000000  0.4159690000000  0.4862160000000 1.0
C      1  0.5540470000000  0.4376190000000  0.5324800000000 1.0
C      1  0.5686760000000  0.5315500000000  0.5317140000000 1.0
C      1  0.4925900000000  0.5864750000000  0.5415410000000 1.0
C      1  0.4230320000000  0.5218440000000  0.5324380000000 1.0
C      1  0.4601770000000  0.4341490000000  0.5288690000000 1.0
C      1  0.4763120000000  0.4929370000000  0.5992120000000 1.0
C      1  0.4981600000000  0.4741830000000  0.5981790000000 1.0
C      1  0.5225970000000  0.4891810000000  0.5986480000000 1.0
C      1  0.5160220000000  0.5170670000000  0.5997590000000 1.0
C      1  0.4875570000000  0.5194060000000  0.6001840000000 1.0
C      1  0.5926570000000  0.4588240000000  0.5090000000000 1.0
C      1  0.5600040000000  0.5756070000000  0.5097530000000 1.0
C      1  0.4549600000000  0.5931880000000  0.5076030000000 1.0
C      1  0.4066290000000  0.4830040000000  0.5056500000000 1.0
C      1  0.4877040000000  0.4003710000000  0.5047240000000 1.0
C      1  0.5207000000000  0.5946300000000  0.5446860000000 1.0
C      1  0.4248760000000  0.5520110000000  0.5379960000000 1.0
C      1  0.4316880000000  0.4430710000000  0.5331630000000 1.0
C      1  0.5361250000000  0.4134210000000  0.5347380000000 1.0
C      1  0.5888220000000  0.5083990000000  0.5348170000000 1.0
C      1  0.5963780000000  0.4931860000000  0.4573690000000 1.0
C      1  0.5322360000000  0.5938830000000  0.4576200000000 1.0
C      1  0.4263210000000  0.5719230000000  0.4642150000000 1.0
C      1  0.4096050000000  0.4497560000000  0.4594070000000 1.0
C      1  0.5231660000000  0.4070890000000  0.4540370000000 1.0
C      1  0.4697830000000  0.4412880000000  0.5750060000000 1.0
C      1  0.5465760000000  0.4519240000000  0.5771210000000 1.0
C      1  0.5583190000000  0.5291570000000  0.5780010000000 1.0
C      1  0.4904990000000  0.5657950000000  0.5834440000000 1.0
C      1  0.4361840000000  0.5112060000000  0.5771360000000 1.0
C      1  0.5197220000000  0.4563030000000  0.4093900000000 1.0
C      1  0.5435920000000  0.5048260000000  0.4214210000000 1.0
C      1  0.5057290000000  0.5437170000000  0.4224070000000 1.0
C      1  0.4670970000000  0.5083540000000  0.4174120000000 1.0
C      1  0.4744480000000  0.4652910000000  0.4103790000000 1.0
C      1  0.4742360000000  0.5421870000000  0.5893130000000 1.0
C      1  0.4519120000000  0.4879590000000  0.5853160000000 1.0
C      1  0.4962490000000  0.4484410000000  0.5855850000000 1.0
C      1  0.5465450000000  0.4799180000000  0.5861890000000 1.0
C      1  0.5323360000000  0.5374410000000  0.5881890000000 1.0
C      1  0.4243150000000  0.5732060000000  0.5182980000000 1.0
C      1  0.4128600000000  0.4458700000000  0.5121860000000 1.0
C      1  0.5258130000000  0.3973260000000  0.5119310000000 1.0
C      1  0.6047840000000  0.4954980000000  0.5137290000000 1.0
C      1  0.5328620000000  0.6022740000000  0.5191760000000 1.0
C      1  0.5339350000000  0.5548450000000  0.4234280000000 1.0
C      1  0.4385130000000  0.5411610000000  0.4256680000000 1.0
C      1  0.4376120000000  0.4652890000000  0.4234730000000 1.0
C      1  0.5027260000000  0.4318760000000  0.4150240000000 1.0
C      1  0.5630570000000  0.4820210000000  0.4201920000000 1.0
C      1  0.5025180000000  0.5071200000000  0.4581780000000 1.0
C      1  0.4979130000000  0.5018100000000  0.4894430000000 1.0
C      1  0.4996370000000  0.5000110000000  0.5622910000000 1.0
END
