TITL C-3578201-9217-226 -1.60944966446506e-06 125000 -445.014054916263 0 0 72 (C1) n - 1
REM
REM in /home/bkarasulu/work/CARBON/AIRSS/Generating-Clusters/EDIP-Nigel-Params/with-SteepDescent/Higher-Symm/SD-CG/HFTN-CG
REM
REM
REM
REM
REM
REM ./C.cell (12c818d87b63d06a65506943cc24bca4)
REM
REM compiler GCC version 9.2.1 20190827 (Red Hat 9.2.1-1)
REM options -cpp -mtune=generic -march=x86-64 -g -O0 -fpre-include=/usr/include/finclude/math-vector-fortran.h
REM seed 1764757731 -1556976950 -1469118250 -992464491 1232461876 2140721173 -1070832340 -55489588 -984732271 1914849137 1243710887 639163420 -1725255322 404488510 76576486 12738633 -2081816151 1380278885 462110805 -1796066599 1982976084 704742171 957126604 -137707647 1572958690 274401998 2063619830 1610398761 14954602 1693642925 1059504501 -792433429 -348928979
REM
CELL 1.54180   50.00000   50.00000   50.00000   90.00000   90.00000   90.00000
LATT -1
SFAC C  
C      1  0.4704540000000  0.4414910000000  0.4953890000000 1.0
C      1  0.5447020000000  0.4505840000000  0.4942180000000 1.0
C      1  0.5606090000000  0.5277190000000  0.4922570000000 1.0
C      1  0.4932630000000  0.5658410000000  0.4923770000000 1.0
C      1  0.4329930000000  0.5121920000000  0.4932240000000 1.0
C      1  0.5655420000000  0.5033320000000  0.4747290000000 1.0
C      1  0.5182920000000  0.5629080000000  0.4759300000000 1.0
C      1  0.4434210000000  0.5342700000000  0.4770140000000 1.0
C      1  0.4503670000000  0.4530390000000  0.4775950000000 1.0
C      1  0.5253130000000  0.4351400000000  0.4772110000000 1.0
C      1  0.5115150000000  0.5517460000000  0.5408490000000 1.0
C      1  0.4475610000000  0.5323920000000  0.5402400000000 1.0
C      1  0.4501830000000  0.4594110000000  0.5379790000000 1.0
C      1  0.5201560000000  0.4406220000000  0.5408980000000 1.0
C      1  0.5610150000000  0.5023910000000  0.5383600000000 1.0
C      1  0.5403970000000  0.5468590000000  0.5368740000000 1.0
C      1  0.4634320000000  0.5598040000000  0.5361310000000 1.0
C      1  0.4365270000000  0.4854300000000  0.5376040000000 1.0
C      1  0.4903930000000  0.4365010000000  0.5412440000000 1.0
C      1  0.5577820000000  0.4726130000000  0.5373190000000 1.0
C      1  0.4923580000000  0.4783250000000  0.4658220000000 1.0
C      1  0.5214970000000  0.4906500000000  0.4644890000000 1.0
C      1  0.5203830000000  0.5186560000000  0.4763220000000 1.0
C      1  0.4885560000000  0.5272900000000  0.4739530000000 1.0
C      1  0.4731030000000  0.4994350000000  0.4792830000000 1.0
C      1  0.4774900000000  0.4345300000000  0.5667250000000 1.0
C      1  0.5577550000000  0.4603980000000  0.5630520000000 1.0
C      1  0.5533680000000  0.5427900000000  0.5618830000000 1.0
C      1  0.4697040000000  0.5533730000000  0.5653270000000 1.0
C      1  0.4390960000000  0.4914780000000  0.5660910000000 1.0
C      1  0.5301460000000  0.4535520000000  0.5661410000000 1.0
C      1  0.5523460000000  0.5144210000000  0.5645750000000 1.0
C      1  0.4993390000000  0.5494930000000  0.5675270000000 1.0
C      1  0.4517160000000  0.5189090000000  0.5698780000000 1.0
C      1  0.4620710000000  0.4598170000000  0.5671710000000 1.0
C      1  0.4943770000000  0.5256640000000  0.5098150000000 1.0
C      1  0.4748330000000  0.5024240000000  0.5094850000000 1.0
C      1  0.4889810000000  0.4795530000000  0.5194460000000 1.0
C      1  0.5162790000000  0.4827820000000  0.5135740000000 1.0
C      1  0.5216550000000  0.5113540000000  0.5071980000000 1.0
C      1  0.5205120000000  0.5398110000000  0.4325090000000 1.0
C      1  0.4732080000000  0.5347090000000  0.4338820000000 1.0
C      1  0.4654600000000  0.4782940000000  0.4370350000000 1.0
C      1  0.5059770000000  0.4516710000000  0.4335380000000 1.0
C      1  0.5385520000000  0.4883070000000  0.4367520000000 1.0
C      1  0.4696370000000  0.5613590000000  0.4744860000000 1.0
C      1  0.4362180000000  0.4882320000000  0.4744380000000 1.0
C      1  0.4949340000000  0.4414650000000  0.4775680000000 1.0
C      1  0.5544680000000  0.4724070000000  0.4752820000000 1.0
C      1  0.5460350000000  0.5476870000000  0.4735100000000 1.0
C      1  0.5471270000000  0.5364500000000  0.4457030000000 1.0
C      1  0.4796740000000  0.5609820000000  0.4463380000000 1.0
C      1  0.4440530000000  0.4961560000000  0.4467470000000 1.0
C      1  0.4859050000000  0.4380940000000  0.4493120000000 1.0
C      1  0.5507110000000  0.4625970000000  0.4466170000000 1.0
C      1  0.5348290000000  0.4612140000000  0.5207290000000 1.0
C      1  0.5473050000000  0.5228020000000  0.5190710000000 1.0
C      1  0.4902820000000  0.5624980000000  0.5225830000000 1.0
C      1  0.4470180000000  0.5081990000000  0.5200260000000 1.0
C      1  0.4750700000000  0.4539850000000  0.5222030000000 1.0
C      1  0.4508120000000  0.5240240000000  0.4503950000000 1.0
C      1  0.4604480000000  0.4519750000000  0.4497700000000 1.0
C      1  0.5301440000000  0.4419630000000  0.4476110000000 1.0
C      1  0.5582270000000  0.5094070000000  0.4460540000000 1.0
C      1  0.5093800000000  0.5634420000000  0.4472040000000 1.0
C      1  0.5254040000000  0.5046350000000  0.5729650000000 1.0
C      1  0.5032620000000  0.5231000000000  0.5797060000000 1.0
C      1  0.4785370000000  0.5077850000000  0.5778650000000 1.0
C      1  0.4842740000000  0.4798950000000  0.5738280000000 1.0
C      1  0.5137670000000  0.4775030000000  0.5726800000000 1.0
C      1  0.5005820000000  0.4888520000000  0.4264800000000 1.0
C      1  0.4987130000000  0.5193150000000  0.4321430000000 1.0
END
