TITL C-3577079-311-281 -4.31785893666246e-07 125000 -157.806984916808 0 0 26 (C1) n - 1
REM
REM in /home/bkarasulu/work/CARBON/AIRSS/Generating-Clusters/EDIP-Nigel-Params/with-SteepDescent/Higher-Symm/SD-CG/HFTN-CG
REM
REM
REM
REM
REM
REM ./C.cell (12c818d87b63d06a65506943cc24bca4)
REM
REM compiler GCC version 9.2.1 20190827 (Red Hat 9.2.1-1)
REM options -cpp -mtune=generic -march=x86-64 -g -O0 -fpre-include=/usr/include/finclude/math-vector-fortran.h
REM seed 1642064740 -675670647 433596741 -1991760363 -976005425 84528056 -1397121952 -245548873 -1950749577 -748882824 -1689421994 1176136230 1349430636 -1384943265 -322420254 1720213867 1156903091 268512125 1600526262 -2052125636 -591045986 722974092 -1876972156 2077035912 -1175734055 -1567386930 -1255741195 -959631162 -1607660658 -153863904 2106824072 -521363198 -1905431560
REM
CELL 1.54180   50.00000   50.00000   50.00000   90.00000   90.00000   90.00000
LATT -1
SFAC C  
C      1  0.5065190000000  0.4549360000000  0.5202750000000 1.0
C      1  0.5565550000000  0.4910500000000  0.5050890000000 1.0
C      1  0.4871130000000  0.4666820000000  0.5359820000000 1.0
C      1  0.4682890000000  0.5324550000000  0.5188290000000 1.0
C      1  0.4914300000000  0.4678280000000  0.4708680000000 1.0
C      1  0.4592030000000  0.5447330000000  0.4951230000000 1.0
C      1  0.4513370000000  0.4983140000000  0.4798430000000 1.0
C      1  0.4646270000000  0.4756510000000  0.4701130000000 1.0
C      1  0.5425850000000  0.5043330000000  0.4851580000000 1.0
C      1  0.5346590000000  0.4894020000000  0.4629200000000 1.0
C      1  0.5195980000000  0.5314380000000  0.5212950000000 1.0
C      1  0.5515580000000  0.4792460000000  0.5296790000000 1.0
C      1  0.5484470000000  0.4978140000000  0.5502240000000 1.0
C      1  0.4707140000000  0.4874900000000  0.5393040000000 1.0
C      1  0.5086560000000  0.4838470000000  0.4539480000000 1.0
C      1  0.4937640000000  0.5391450000000  0.5282350000000 1.0
C      1  0.4574710000000  0.5057350000000  0.5232300000000 1.0
C      1  0.4877260000000  0.5274060000000  0.4586080000000 1.0
C      1  0.5326200000000  0.4590170000000  0.5284990000000 1.0
C      1  0.5354390000000  0.5193600000000  0.5405810000000 1.0
C      1  0.5018080000000  0.4545070000000  0.4929630000000 1.0
C      1  0.4382520000000  0.4963760000000  0.5047550000000 1.0
C      1  0.5241480000000  0.5252450000000  0.4932870000000 1.0
C      1  0.4945630000000  0.5052960000000  0.4425050000000 1.0
C      1  0.5091460000000  0.5380340000000  0.4732670000000 1.0
C      1  0.4637740000000  0.5246610000000  0.4754180000000 1.0
END
