TITL C-3577087-600-614 1.78460632746662e-06 125000 -399.940940807903 0 0 65 (C1) n - 1
REM
REM in /home/bkarasulu/work/CARBON/AIRSS/Generating-Clusters/EDIP-Nigel-Params/with-SteepDescent/Higher-Symm/SD-CG/HFTN-CG
REM
REM
REM
REM
REM
REM ./C.cell (12c818d87b63d06a65506943cc24bca4)
REM
REM compiler GCC version 9.2.1 20190827 (Red Hat 9.2.1-1)
REM options -cpp -mtune=generic -march=x86-64 -g -O0 -fpre-include=/usr/include/finclude/math-vector-fortran.h
REM seed 1183299983 917904498 -1384707679 -1808299033 -148064623 -1479891889 -1480823210 328407715 -197484664 -576872905 811088042 940860108 363624423 -1934407224 549415429 -1963471985 -1103052319 -1034900129 -157157178 1797852048 983064768 1160808276 2110659075 1828945503 -1257362757 1846864789 743456653 -2119194787 1677975296 -300752732 913370705 405985209 -353880395
REM
CELL 1.54180   50.00000   50.00000   50.00000   90.00000   90.00000   90.00000
LATT -1
SFAC C  
C      1  0.4329580000000  0.4640590000000  0.5314850000000 1.0
C      1  0.4645940000000  0.4345340000000  0.4889850000000 1.0
C      1  0.5553850000000  0.5040650000000  0.5496580000000 1.0
C      1  0.5262670000000  0.5020360000000  0.5038240000000 1.0
C      1  0.5444660000000  0.4514070000000  0.4821180000000 1.0
C      1  0.5590490000000  0.5209280000000  0.4753280000000 1.0
C      1  0.5437050000000  0.4916010000000  0.4381870000000 1.0
C      1  0.5275020000000  0.5363530000000  0.5774500000000 1.0
C      1  0.5139020000000  0.5623220000000  0.4333120000000 1.0
C      1  0.4473300000000  0.4570770000000  0.4799070000000 1.0
C      1  0.5383230000000  0.5405240000000  0.4678960000000 1.0
C      1  0.5089420000000  0.5265910000000  0.5130890000000 1.0
C      1  0.5116480000000  0.4895940000000  0.4758060000000 1.0
C      1  0.5268990000000  0.4664960000000  0.4374550000000 1.0
C      1  0.4940850000000  0.5583300000000  0.4514630000000 1.0
C      1  0.4716590000000  0.4563100000000  0.5604550000000 1.0
C      1  0.5086980000000  0.5373980000000  0.5442130000000 1.0
C      1  0.4498810000000  0.4949720000000  0.4445250000000 1.0
C      1  0.4633800000000  0.5524610000000  0.5009680000000 1.0
C      1  0.4816910000000  0.5040150000000  0.5506250000000 1.0
C      1  0.5072710000000  0.4992950000000  0.5655840000000 1.0
C      1  0.5264160000000  0.4789020000000  0.5543760000000 1.0
C      1  0.4619110000000  0.4298650000000  0.5167440000000 1.0
C      1  0.5703920000000  0.5031280000000  0.5243410000000 1.0
C      1  0.5490250000000  0.5458470000000  0.5121240000000 1.0
C      1  0.5535380000000  0.5180160000000  0.5042250000000 1.0
C      1  0.4877950000000  0.4922670000000  0.5235630000000 1.0
C      1  0.4580440000000  0.5321280000000  0.5440100000000 1.0
C      1  0.4376020000000  0.5134170000000  0.5329520000000 1.0
C      1  0.4898540000000  0.5339620000000  0.4645140000000 1.0
C      1  0.4799800000000  0.4583140000000  0.4414780000000 1.0
C      1  0.5494080000000  0.5313970000000  0.5591400000000 1.0
C      1  0.4524020000000  0.4432120000000  0.5396300000000 1.0
C      1  0.4348890000000  0.4735660000000  0.5029490000000 1.0
C      1  0.5146770000000  0.5144160000000  0.5881840000000 1.0
C      1  0.4824620000000  0.4864280000000  0.4798400000000 1.0
C      1  0.4724290000000  0.5038900000000  0.5002600000000 1.0
C      1  0.5642630000000  0.4728730000000  0.4838290000000 1.0
C      1  0.5717380000000  0.4771680000000  0.5123020000000 1.0
C      1  0.5319520000000  0.5165690000000  0.4245500000000 1.0
C      1  0.5321710000000  0.4507200000000  0.5087720000000 1.0
C      1  0.5315980000000  0.5582350000000  0.4925900000000 1.0
C      1  0.4675020000000  0.5062060000000  0.4258740000000 1.0
C      1  0.4899610000000  0.4613360000000  0.5268320000000 1.0
C      1  0.5001030000000  0.4713220000000  0.4262400000000 1.0
C      1  0.5042910000000  0.4437830000000  0.5067740000000 1.0
C      1  0.4282270000000  0.5178030000000  0.4841060000000 1.0
C      1  0.4328930000000  0.5115310000000  0.4585420000000 1.0
C      1  0.4954400000000  0.5628690000000  0.5331190000000 1.0
C      1  0.5201650000000  0.4605940000000  0.4665600000000 1.0
C      1  0.5345110000000  0.4779440000000  0.5225690000000 1.0
C      1  0.4360580000000  0.4882980000000  0.5494740000000 1.0
C      1  0.5339120000000  0.5432650000000  0.4390110000000 1.0
C      1  0.4671890000000  0.5551560000000  0.5285430000000 1.0
C      1  0.4927650000000  0.4382690000000  0.4805830000000 1.0
C      1  0.5086240000000  0.5681650000000  0.5074830000000 1.0
C      1  0.5075730000000  0.5120580000000  0.4542480000000 1.0
C      1  0.5045730000000  0.4564490000000  0.5534860000000 1.0
C      1  0.4419960000000  0.5029700000000  0.5044800000000 1.0
C      1  0.4959890000000  0.5008410000000  0.4266070000000 1.0
C      1  0.4640210000000  0.4737530000000  0.4603530000000 1.0
C      1  0.5548950000000  0.4946130000000  0.4654620000000 1.0
C      1  0.4619920000000  0.4847870000000  0.5637650000000 1.0
C      1  0.4829940000000  0.5319410000000  0.4938540000000 1.0
C      1  0.5441460000000  0.5513590000000  0.5393330000000 1.0
END
