TITL C-3578206-1180-90 -1.35113512734778e-06 125000 -1007.6876578511 0 0 162 (C1) n - 1
REM
REM in /home/bkarasulu/work/CARBON/AIRSS/Generating-Clusters/EDIP-Nigel-Params/with-SteepDescent/Higher-Symm/SD-CG/HFTN-CG
REM
REM
REM
REM
REM
REM ./C.cell (12c818d87b63d06a65506943cc24bca4)
REM
REM compiler GCC version 9.2.1 20190827 (Red Hat 9.2.1-1)
REM options -cpp -mtune=generic -march=x86-64 -g -O0 -fpre-include=/usr/include/finclude/math-vector-fortran.h
REM seed 1057708647 -383945852 -474756259 1823628679 -1574919322 -458861225 317793222 1346421666 1088114841 1161571705 1459256149 182498219 -1783671134 -788542823 -1949880509 -1515644226 -1681223519 859505040 1356232803 -1868204204 1761946537 65865652 -668641059 1450373188 1753734207 274952601 -1025730448 -1394286285 -1640185836 957380952 1058120205 163426996 1035767708
REM
CELL 1.54180   50.00000   50.00000   50.00000   90.00000   90.00000   90.00000
LATT -1
SFAC C  
C      1  0.4837490000000  0.6402430000000  0.5192210000000 1.0
C      1  0.4747480000000  0.6497110000000  0.4939510000000 1.0
C      1  0.4913430000000  0.6401090000000  0.4731190000000 1.0
C      1  0.5179190000000  0.6496890000000  0.4749990000000 1.0
C      1  0.5311880000000  0.6416180000000  0.4985280000000 1.0
C      1  0.5138620000000  0.6399870000000  0.5232730000000 1.0
C      1  0.4687770000000  0.5692160000000  0.4953020000000 1.0
C      1  0.4921390000000  0.5567360000000  0.4711280000000 1.0
C      1  0.5207210000000  0.5692150000000  0.4752310000000 1.0
C      1  0.5312360000000  0.5601920000000  0.5048760000000 1.0
C      1  0.5106720000000  0.5698530000000  0.5300010000000 1.0
C      1  0.4790620000000  0.5618890000000  0.5250870000000 1.0
C      1  0.4753500000000  0.4231340000000  0.4629300000000 1.0
C      1  0.5260800000000  0.4201970000000  0.4602170000000 1.0
C      1  0.5539750000000  0.4136080000000  0.5015760000000 1.0
C      1  0.5317780000000  0.4069370000000  0.5459390000000 1.0
C      1  0.4814070000000  0.4091540000000  0.5485260000000 1.0
C      1  0.4540430000000  0.4168100000000  0.5073630000000 1.0
C      1  0.4660300000000  0.4990980000000  0.4343770000000 1.0
C      1  0.5385870000000  0.4985130000000  0.4348140000000 1.0
C      1  0.5734950000000  0.4964130000000  0.5026720000000 1.0
C      1  0.5311300000000  0.4993410000000  0.5644960000000 1.0
C      1  0.4597470000000  0.4991160000000  0.5645120000000 1.0
C      1  0.4239210000000  0.5000290000000  0.4950030000000 1.0
C      1  0.4909710000000  0.5205520000000  0.5304840000000 1.0
C      1  0.4677420000000  0.5274700000000  0.5090700000000 1.0
C      1  0.4747830000000  0.5156660000000  0.4810170000000 1.0
C      1  0.5028020000000  0.5257280000000  0.4705060000000 1.0
C      1  0.5269740000000  0.5190680000000  0.4910270000000 1.0
C      1  0.5199040000000  0.5272010000000  0.5212720000000 1.0
C      1  0.5792740000000  0.4894600000000  0.5487230000000 1.0
C      1  0.4978210000000  0.4885190000000  0.5956980000000 1.0
C      1  0.4182990000000  0.4922540000000  0.5443420000000 1.0
C      1  0.4163790000000  0.4937220000000  0.4486320000000 1.0
C      1  0.4997850000000  0.4912910000000  0.4023380000000 1.0
C      1  0.5808930000000  0.4925760000000  0.4543240000000 1.0
C      1  0.4611330000000  0.5609300000000  0.5510410000000 1.0
C      1  0.4376660000000  0.5604160000000  0.4924850000000 1.0
C      1  0.4775940000000  0.5598880000000  0.4435220000000 1.0
C      1  0.5381720000000  0.5588490000000  0.4507910000000 1.0
C      1  0.5625500000000  0.5591060000000  0.5063420000000 1.0
C      1  0.5219910000000  0.5605610000000  0.5585110000000 1.0
C      1  0.4320750000000  0.5569240000000  0.5571150000000 1.0
C      1  0.4175940000000  0.5584590000000  0.4709550000000 1.0
C      1  0.4854540000000  0.5570780000000  0.4154050000000 1.0
C      1  0.5662180000000  0.5568610000000  0.4423510000000 1.0
C      1  0.5814600000000  0.5543010000000  0.5283440000000 1.0
C      1  0.5132990000000  0.5556630000000  0.5862520000000 1.0
C      1  0.5467670000000  0.5422320000000  0.5601430000000 1.0
C      1  0.4701510000000  0.5428870000000  0.5749890000000 1.0
C      1  0.4210220000000  0.5423990000000  0.5121750000000 1.0
C      1  0.4521630000000  0.5429780000000  0.4414810000000 1.0
C      1  0.5272770000000  0.5424100000000  0.4266730000000 1.0
C      1  0.5756180000000  0.5407400000000  0.4861960000000 1.0
C      1  0.4236000000000  0.5044100000000  0.4210930000000 1.0
C      1  0.5263070000000  0.5010930000000  0.3922540000000 1.0
C      1  0.6043350000000  0.5007800000000  0.4709580000000 1.0
C      1  0.5739310000000  0.5002440000000  0.5765530000000 1.0
C      1  0.4721620000000  0.4986870000000  0.6073040000000 1.0
C      1  0.3945390000000  0.5007700000000  0.5284330000000 1.0
C      1  0.4261680000000  0.5349410000000  0.5738560000000 1.0
C      1  0.3989860000000  0.5372390000000  0.4721810000000 1.0
C      1  0.4760800000000  0.5339270000000  0.4028730000000 1.0
C      1  0.5718640000000  0.5349270000000  0.4255530000000 1.0
C      1  0.5983860000000  0.5315370000000  0.5273310000000 1.0
C      1  0.5213500000000  0.5316800000000  0.5980730000000 1.0
C      1  0.4892190000000  0.4721220000000  0.4725510000000 1.0
C      1  0.5171570000000  0.4839950000000  0.4762770000000 1.0
C      1  0.5271340000000  0.4773090000000  0.5035550000000 1.0
C      1  0.5088820000000  0.4804300000000  0.5253400000000 1.0
C      1  0.4806310000000  0.4840450000000  0.5199020000000 1.0
C      1  0.4717480000000  0.4869560000000  0.4903880000000 1.0
C      1  0.5682600000000  0.4520810000000  0.4872770000000 1.0
C      1  0.5405050000000  0.4555580000000  0.5518790000000 1.0
C      1  0.4759840000000  0.4557980000000  0.5601990000000 1.0
C      1  0.4360720000000  0.4571610000000  0.5083690000000 1.0
C      1  0.4541290000000  0.4567220000000  0.4429160000000 1.0
C      1  0.5229370000000  0.4544870000000  0.4336340000000 1.0
C      1  0.4814090000000  0.6104800000000  0.5209630000000 1.0
C      1  0.4716880000000  0.5995400000000  0.4943620000000 1.0
C      1  0.4905090000000  0.6098830000000  0.4722810000000 1.0
C      1  0.5183760000000  0.5991550000000  0.4767710000000 1.0
C      1  0.5295770000000  0.6106540000000  0.5027050000000 1.0
C      1  0.5103420000000  0.6012490000000  0.5270370000000 1.0
C      1  0.5802010000000  0.5099120000000  0.5281230000000 1.0
C      1  0.5090650000000  0.5115100000000  0.5806970000000 1.0
C      1  0.4341680000000  0.5125560000000  0.5585690000000 1.0
C      1  0.4149950000000  0.5140080000000  0.4702290000000 1.0
C      1  0.4879910000000  0.5126580000000  0.4191360000000 1.0
C      1  0.5640050000000  0.5125350000000  0.4410640000000 1.0
C      1  0.4464350000000  0.4879760000000  0.4123530000000 1.0
C      1  0.5454030000000  0.4848410000000  0.4078550000000 1.0
C      1  0.6014330000000  0.4836790000000  0.4949140000000 1.0
C      1  0.5506680000000  0.4850780000000  0.5861720000000 1.0
C      1  0.4534850000000  0.4836910000000  0.5903850000000 1.0
C      1  0.3983260000000  0.4846640000000  0.5038980000000 1.0
C      1  0.4438500000000  0.4581180000000  0.4155910000000 1.0
C      1  0.5413060000000  0.4553700000000  0.4102550000000 1.0
C      1  0.5976240000000  0.4541870000000  0.4924750000000 1.0
C      1  0.5509200000000  0.4556400000000  0.5806460000000 1.0
C      1  0.4575820000000  0.4544370000000  0.5850500000000 1.0
C      1  0.4056750000000  0.4557390000000  0.5061390000000 1.0
C      1  0.4333150000000  0.4390170000000  0.5514910000000 1.0
C      1  0.4216430000000  0.4398400000000  0.4680480000000 1.0
C      1  0.4878210000000  0.4398470000000  0.4105080000000 1.0
C      1  0.5711450000000  0.4414010000000  0.4441990000000 1.0
C      1  0.5813810000000  0.4378870000000  0.5347000000000 1.0
C      1  0.5112290000000  0.4366950000000  0.5847970000000 1.0
C      1  0.4676070000000  0.5285530000000  0.6041950000000 1.0
C      1  0.3939040000000  0.5298380000000  0.5216230000000 1.0
C      1  0.4320800000000  0.5330720000000  0.4196200000000 1.0
C      1  0.5318390000000  0.5301820000000  0.3978650000000 1.0
C      1  0.6039520000000  0.5293160000000  0.4793870000000 1.0
C      1  0.5682090000000  0.5295680000000  0.5788870000000 1.0
C      1  0.4289500000000  0.5613130000000  0.4454570000000 1.0
C      1  0.5126730000000  0.5614340000000  0.4099470000000 1.0
C      1  0.5843770000000  0.5583420000000  0.4636730000000 1.0
C      1  0.5702890000000  0.5588390000000  0.5538510000000 1.0
C      1  0.4861880000000  0.5601020000000  0.5925190000000 1.0
C      1  0.4144340000000  0.5594690000000  0.5352380000000 1.0
C      1  0.4472030000000  0.4160820000000  0.5385670000000 1.0
C      1  0.4441040000000  0.4212940000000  0.4750640000000 1.0
C      1  0.4972320000000  0.4244040000000  0.4366710000000 1.0
C      1  0.5577260000000  0.4223650000000  0.4640210000000 1.0
C      1  0.5642930000000  0.4137000000000  0.5307740000000 1.0
C      1  0.5071370000000  0.4113400000000  0.5685100000000 1.0
C      1  0.4325940000000  0.4671420000000  0.4604100000000 1.0
C      1  0.4975540000000  0.4660580000000  0.4214280000000 1.0
C      1  0.5645470000000  0.4664280000000  0.4598300000000 1.0
C      1  0.5649980000000  0.4637190000000  0.5365530000000 1.0
C      1  0.5004160000000  0.4642780000000  0.5746460000000 1.0
C      1  0.4359310000000  0.4663910000000  0.5372570000000 1.0
C      1  0.4903870000000  0.3901870000000  0.5269730000000 1.0
C      1  0.4742490000000  0.3945150000000  0.5029430000000 1.0
C      1  0.4866020000000  0.3967230000000  0.4761690000000 1.0
C      1  0.5168380000000  0.3938420000000  0.4735650000000 1.0
C      1  0.5339290000000  0.3898800000000  0.4989700000000 1.0
C      1  0.5198300000000  0.3874620000000  0.5256890000000 1.0
C      1  0.4883790000000  0.4370480000000  0.5370720000000 1.0
C      1  0.4723340000000  0.4416900000000  0.5099080000000 1.0
C      1  0.4882290000000  0.4438050000000  0.4828420000000 1.0
C      1  0.5168690000000  0.4373060000000  0.4828200000000 1.0
C      1  0.5331280000000  0.4337820000000  0.5064250000000 1.0
C      1  0.5233000000000  0.4347150000000  0.5346460000000 1.0
C      1  0.6021500000000  0.4396870000000  0.5158490000000 1.0
C      1  0.5362390000000  0.4387880000000  0.5973460000000 1.0
C      1  0.4347340000000  0.4394650000000  0.5794780000000 1.0
C      1  0.3989400000000  0.4391580000000  0.4847000000000 1.0
C      1  0.4611620000000  0.4409910000000  0.4018530000000 1.0
C      1  0.5634490000000  0.4403450000000  0.4174280000000 1.0
C      1  0.5353340000000  0.4748140000000  0.4533110000000 1.0
C      1  0.5565490000000  0.4717870000000  0.5080320000000 1.0
C      1  0.5189510000000  0.4755980000000  0.5526130000000 1.0
C      1  0.4632760000000  0.4771150000000  0.5440500000000 1.0
C      1  0.4427140000000  0.4778710000000  0.4876350000000 1.0
C      1  0.4781510000000  0.4734040000000  0.4439760000000 1.0
C      1  0.5396820000000  0.5192620000000  0.5425000000000 1.0
C      1  0.4847220000000  0.5194790000000  0.5618900000000 1.0
C      1  0.4391380000000  0.5188580000000  0.5153980000000 1.0
C      1  0.4567990000000  0.5174060000000  0.4570100000000 1.0
C      1  0.5112270000000  0.5195880000000  0.4390640000000 1.0
C      1  0.5577420000000  0.5160550000000  0.4843410000000 1.0
END
