TITL C-3577090-796-500 -6.15426215520713e-06 125000 -452.616601392229 0 0 74 (C1) n - 1
REM
REM in /home/bkarasulu/work/CARBON/AIRSS/Generating-Clusters/EDIP-Nigel-Params/with-SteepDescent/Higher-Symm/SD-CG/HFTN-CG
REM
REM
REM
REM
REM
REM ./C.cell (12c818d87b63d06a65506943cc24bca4)
REM
REM compiler GCC version 9.2.1 20190827 (Red Hat 9.2.1-1)
REM options -cpp -mtune=generic -march=x86-64 -g -O0 -fpre-include=/usr/include/finclude/math-vector-fortran.h
REM seed 1212649385 -1974438375 300882846 -405943820 -182623666 182168824 -940503147 -1037479714 -1537988014 1853280786 -1468859118 -479014642 -1709089488 -1988238766 -316665207 -1830901228 -1792582122 848741148 -1067524729 1746198479 596834663 1586632609 102587547 -1743649 -1515722611 2101092673 1084727066 -1202841073 28813579 -1735323500 1450952197 635097667 -1147934348
REM
CELL 1.54180   50.00000   50.00000   50.00000   90.00000   90.00000   90.00000
LATT -1
SFAC C  
C      1  0.4245060000000  0.4970400000000  0.5346660000000 1.0
C      1  0.4413320000000  0.4529320000000  0.4677920000000 1.0
C      1  0.4800990000000  0.4276440000000  0.5345980000000 1.0
C      1  0.5275450000000  0.4295120000000  0.4677050000000 1.0
C      1  0.5618650000000  0.4617680000000  0.5340300000000 1.0
C      1  0.5759350000000  0.5044240000000  0.4668950000000 1.0
C      1  0.5589910000000  0.5498780000000  0.5325810000000 1.0
C      1  0.5191080000000  0.5744350000000  0.4660580000000 1.0
C      1  0.4721200000000  0.5706120000000  0.5323900000000 1.0
C      1  0.4358600000000  0.5398620000000  0.4663600000000 1.0
C      1  0.4930640000000  0.5429160000000  0.5689610000000 1.0
C      1  0.4708540000000  0.5299080000000  0.4339420000000 1.0
C      1  0.4634200000000  0.5060710000000  0.5701590000000 1.0
C      1  0.4699450000000  0.4817340000000  0.4299820000000 1.0
C      1  0.4803600000000  0.4613530000000  0.5698650000000 1.0
C      1  0.5085820000000  0.4545840000000  0.4328580000000 1.0
C      1  0.5274460000000  0.4734650000000  0.5681600000000 1.0
C      1  0.5399140000000  0.4928420000000  0.4332210000000 1.0
C      1  0.5365090000000  0.5211440000000  0.5710410000000 1.0
C      1  0.5193830000000  0.5374440000000  0.4329580000000 1.0
C      1  0.5341540000000  0.4654930000000  0.4384650000000 1.0
C      1  0.5405380000000  0.4959630000000  0.5572010000000 1.0
C      1  0.5406210000000  0.5202750000000  0.4401130000000 1.0
C      1  0.5204100000000  0.5421420000000  0.5591210000000 1.0
C      1  0.4933640000000  0.5452820000000  0.4406210000000 1.0
C      1  0.4710280000000  0.5299850000000  0.5555750000000 1.0
C      1  0.4582530000000  0.5063760000000  0.4429000000000 1.0
C      1  0.4607280000000  0.4791290000000  0.5603090000000 1.0
C      1  0.4819900000000  0.4577800000000  0.4426540000000 1.0
C      1  0.5063520000000  0.4560590000000  0.5610190000000 1.0
C      1  0.5665170000000  0.5342040000000  0.5106810000000 1.0
C      1  0.5339510000000  0.5656080000000  0.4880840000000 1.0
C      1  0.4893000000000  0.5724860000000  0.5103770000000 1.0
C      1  0.4482260000000  0.5528060000000  0.4879860000000 1.0
C      1  0.4273150000000  0.5129050000000  0.5117700000000 1.0
C      1  0.4335690000000  0.4678810000000  0.4900530000000 1.0
C      1  0.4652710000000  0.4358430000000  0.5124400000000 1.0
C      1  0.5102740000000  0.4275640000000  0.4897450000000 1.0
C      1  0.5500720000000  0.4494540000000  0.5118560000000 1.0
C      1  0.5717180000000  0.4882990000000  0.4892940000000 1.0
C      1  0.4987940000000  0.5272340000000  0.4804090000000 1.0
C      1  0.4791130000000  0.5189490000000  0.5136860000000 1.0
C      1  0.4746610000000  0.5058380000000  0.4832940000000 1.0
C      1  0.4766000000000  0.4874300000000  0.5200380000000 1.0
C      1  0.4884440000000  0.4778270000000  0.4812530000000 1.0
C      1  0.5032080000000  0.4726110000000  0.5096830000000 1.0
C      1  0.5187640000000  0.4847080000000  0.4746850000000 1.0
C      1  0.5252800000000  0.4948190000000  0.5158530000000 1.0
C      1  0.5263290000000  0.5123650000000  0.4874290000000 1.0
C      1  0.5098560000000  0.5235260000000  0.5207530000000 1.0
C      1  0.5622800000000  0.4894730000000  0.5386590000000 1.0
C      1  0.5591230000000  0.5262880000000  0.4618530000000 1.0
C      1  0.5324440000000  0.5574630000000  0.5371410000000 1.0
C      1  0.4927540000000  0.5659550000000  0.4611170000000 1.0
C      1  0.4563390000000  0.5479690000000  0.5375690000000 1.0
C      1  0.4366750000000  0.5119660000000  0.4622660000000 1.0
C      1  0.4400550000000  0.4741730000000  0.5397440000000 1.0
C      1  0.4674350000000  0.4437840000000  0.4635760000000 1.0
C      1  0.5056320000000  0.4387710000000  0.5377290000000 1.0
C      1  0.5442370000000  0.4515440000000  0.4623030000000 1.0
C      1  0.4812960000000  0.4349450000000  0.4878270000000 1.0
C      1  0.5240930000000  0.4349710000000  0.5148900000000 1.0
C      1  0.5552850000000  0.4637870000000  0.4868520000000 1.0
C      1  0.5679730000000  0.5045290000000  0.5136700000000 1.0
C      1  0.5553100000000  0.5446230000000  0.4852370000000 1.0
C      1  0.5182100000000  0.5659300000000  0.5128700000000 1.0
C      1  0.4758840000000  0.5641880000000  0.4855850000000 1.0
C      1  0.4406830000000  0.5396130000000  0.5136070000000 1.0
C      1  0.4319350000000  0.4971770000000  0.4873710000000 1.0
C      1  0.4450060000000  0.4576430000000  0.5152430000000 1.0
C      1  0.4982330000000  0.4963850000000  0.5449560000000 1.0
C      1  0.5016460000000  0.5032380000000  0.4511860000000 1.0
C      1  0.5015600000000  0.5058830000000  0.5754560000000 1.0
C      1  0.4951850000000  0.4942560000000  0.4217220000000 1.0
END
