TITL C-3578206-1180-437 -3.18119479042138e-07 125000 -720.664731046907 0 0 116 (C1) n - 1
REM
REM in /home/bkarasulu/work/CARBON/AIRSS/Generating-Clusters/EDIP-Nigel-Params/with-SteepDescent/Higher-Symm/SD-CG/HFTN-CG
REM
REM
REM
REM
REM
REM ./C.cell (12c818d87b63d06a65506943cc24bca4)
REM
REM compiler GCC version 9.2.1 20190827 (Red Hat 9.2.1-1)
REM options -cpp -mtune=generic -march=x86-64 -g -O0 -fpre-include=/usr/include/finclude/math-vector-fortran.h
REM seed -417577044 -457046961 -1873362340 -495789627 -949635438 1061927043 1806500097 619829861 -1134286663 320090828 -316672533 1531703564 806839374 -1845900404 -1704334240 -379589046 -522735960 1422463539 -866254151 20968708 -933818759 -1740526709 790605832 -775591830 -1778322406 -1373735483 1121462299 7981333 -158481146 -804386538 -2078933969 1448651843 -1900517035
REM
CELL 1.54180   50.00000   50.00000   50.00000   90.00000   90.00000   90.00000
LATT -1
SFAC C  
C      1  0.4425830000000  0.4768940000000  0.4545090000000 1.0
C      1  0.4842320000000  0.4565960000000  0.4438310000000 1.0
C      1  0.4622710000000  0.4411790000000  0.4844410000000 1.0
C      1  0.5612510000000  0.5197430000000  0.4562730000000 1.0
C      1  0.4408950000000  0.5204570000000  0.5409060000000 1.0
C      1  0.5551870000000  0.4786690000000  0.5437870000000 1.0
C      1  0.5226900000000  0.5536940000000  0.4366660000000 1.0
C      1  0.4901300000000  0.5468280000000  0.5553830000000 1.0
C      1  0.5191130000000  0.4535020000000  0.5657900000000 1.0
C      1  0.5444470000000  0.5602370000000  0.4807670000000 1.0
C      1  0.4527690000000  0.5598100000000  0.5103470000000 1.0
C      1  0.5400860000000  0.4352870000000  0.5239060000000 1.0
C      1  0.4412870000000  0.4816930000000  0.5458480000000 1.0
C      1  0.4802620000000  0.4559720000000  0.5659470000000 1.0
C      1  0.4635350000000  0.4429810000000  0.5214450000000 1.0
C      1  0.5575480000000  0.5145190000000  0.5443490000000 1.0
C      1  0.4395170000000  0.5093210000000  0.4508880000000 1.0
C      1  0.5592050000000  0.4798870000000  0.4613260000000 1.0
C      1  0.5208520000000  0.5457380000000  0.5592340000000 1.0
C      1  0.4859690000000  0.5526030000000  0.4379530000000 1.0
C      1  0.5171080000000  0.4583560000000  0.4474740000000 1.0
C      1  0.5456760000000  0.5550360000000  0.5181270000000 1.0
C      1  0.4552120000000  0.5615330000000  0.4778200000000 1.0
C      1  0.5424300000000  0.4359840000000  0.4847360000000 1.0
C      1  0.4311040000000  0.4396090000000  0.4856290000000 1.0
C      1  0.4467700000000  0.4820140000000  0.4166600000000 1.0
C      1  0.4866150000000  0.4250180000000  0.4447550000000 1.0
C      1  0.5753730000000  0.5580220000000  0.4855070000000 1.0
C      1  0.4234860000000  0.5565240000000  0.5120310000000 1.0
C      1  0.5700230000000  0.4392440000000  0.5179310000000 1.0
C      1  0.5619620000000  0.5152920000000  0.4258020000000 1.0
C      1  0.4481900000000  0.5180170000000  0.5699980000000 1.0
C      1  0.5590660000000  0.4815040000000  0.5739960000000 1.0
C      1  0.5161610000000  0.5828350000000  0.4469350000000 1.0
C      1  0.4789040000000  0.5733650000000  0.5499610000000 1.0
C      1  0.5160840000000  0.4231720000000  0.5651780000000 1.0
C      1  0.4329080000000  0.4410290000000  0.5176400000000 1.0
C      1  0.4418240000000  0.4867650000000  0.5760600000000 1.0
C      1  0.4857420000000  0.4253380000000  0.5614200000000 1.0
C      1  0.5763860000000  0.5524900000000  0.5168830000000 1.0
C      1  0.4259580000000  0.5539320000000  0.4742070000000 1.0
C      1  0.5728510000000  0.4360940000000  0.4827300000000 1.0
C      1  0.5600630000000  0.5179600000000  0.5750430000000 1.0
C      1  0.4413340000000  0.5121590000000  0.4198310000000 1.0
C      1  0.5549320000000  0.4852070000000  0.4311090000000 1.0
C      1  0.5321840000000  0.5729040000000  0.5594950000000 1.0
C      1  0.4843000000000  0.5832360000000  0.4433110000000 1.0
C      1  0.5177940000000  0.4273090000000  0.4428610000000 1.0
C      1  0.4679260000000  0.6051560000000  0.5132080000000 1.0
C      1  0.5957370000000  0.5143690000000  0.4829160000000 1.0
C      1  0.5219950000000  0.4832230000000  0.5986750000000 1.0
C      1  0.5167230000000  0.3903440000000  0.5304170000000 1.0
C      1  0.4956430000000  0.4030710000000  0.4886010000000 1.0
C      1  0.5018160000000  0.5793820000000  0.4918210000000 1.0
C      1  0.4182010000000  0.4834300000000  0.4942250000000 1.0
C      1  0.5751150000000  0.4808150000000  0.5026940000000 1.0
C      1  0.4016310000000  0.5172640000000  0.5170640000000 1.0
C      1  0.4902760000000  0.4993640000000  0.5695950000000 1.0
C      1  0.5161020000000  0.5189590000000  0.4105530000000 1.0
C      1  0.4824710000000  0.5023170000000  0.4335740000000 1.0
C      1  0.4816490000000  0.6010390000000  0.4891120000000 1.0
C      1  0.5697040000000  0.5097880000000  0.5000410000000 1.0
C      1  0.5123960000000  0.5047450000000  0.4357770000000 1.0
C      1  0.5176720000000  0.3917630000000  0.4755730000000 1.0
C      1  0.4953470000000  0.4029640000000  0.5174220000000 1.0
C      1  0.5049720000000  0.5716220000000  0.5218460000000 1.0
C      1  0.4012650000000  0.4788020000000  0.5170110000000 1.0
C      1  0.5967300000000  0.4762290000000  0.4835270000000 1.0
C      1  0.4241950000000  0.5123260000000  0.4950250000000 1.0
C      1  0.4905270000000  0.5285460000000  0.4023380000000 1.0
C      1  0.5192610000000  0.5014180000000  0.5760800000000 1.0
C      1  0.4840530000000  0.4864780000000  0.5977030000000 1.0
C      1  0.5784710000000  0.5237350000000  0.5250700000000 1.0
C      1  0.5318800000000  0.5272740000000  0.5804670000000 1.0
C      1  0.5332100000000  0.5782740000000  0.5318090000000 1.0
C      1  0.4192500000000  0.4636400000000  0.5338840000000 1.0
C      1  0.5825480000000  0.4590710000000  0.4651140000000 1.0
C      1  0.4196570000000  0.5258020000000  0.4687280000000 1.0
C      1  0.4639850000000  0.4690880000000  0.5880720000000 1.0
C      1  0.5262310000000  0.4796410000000  0.4289430000000 1.0
C      1  0.4640800000000  0.5326340000000  0.4128320000000 1.0
C      1  0.4771310000000  0.4191580000000  0.5335090000000 1.0
C      1  0.5317840000000  0.4142850000000  0.4656390000000 1.0
C      1  0.4660410000000  0.5888040000000  0.4674900000000 1.0
C      1  0.5847010000000  0.5352080000000  0.4674210000000 1.0
C      1  0.5415880000000  0.5315160000000  0.4115770000000 1.0
C      1  0.5260750000000  0.5838020000000  0.4752790000000 1.0
C      1  0.4216610000000  0.4648840000000  0.4726600000000 1.0
C      1  0.5766150000000  0.4665880000000  0.5273400000000 1.0
C      1  0.4165320000000  0.5360230000000  0.5319060000000 1.0
C      1  0.4743060000000  0.4755070000000  0.4223570000000 1.0
C      1  0.5388050000000  0.4634130000000  0.5871340000000 1.0
C      1  0.4769320000000  0.5254780000000  0.5708050000000 1.0
C      1  0.4765380000000  0.4176910000000  0.4721640000000 1.0
C      1  0.5312620000000  0.4118210000000  0.5417790000000 1.0
C      1  0.4623940000000  0.5819510000000  0.5276000000000 1.0
C      1  0.4554430000000  0.5150610000000  0.5000780000000 1.0
C      1  0.5186280000000  0.5214320000000  0.4706080000000 1.0
C      1  0.4986150000000  0.5413560000000  0.4813110000000 1.0
C      1  0.5171140000000  0.4806840000000  0.4928890000000 1.0
C      1  0.4879250000000  0.4883760000000  0.5323160000000 1.0
C      1  0.5120590000000  0.4745720000000  0.5217310000000 1.0
C      1  0.4884200000000  0.4843040000000  0.4828070000000 1.0
C      1  0.4723350000000  0.4923280000000  0.5050290000000 1.0
C      1  0.5312690000000  0.5078020000000  0.4947970000000 1.0
C      1  0.4674570000000  0.5137110000000  0.4577440000000 1.0
C      1  0.5163240000000  0.5187490000000  0.5185160000000 1.0
C      1  0.4962910000000  0.5399830000000  0.5117900000000 1.0
C      1  0.5337450000000  0.4634970000000  0.4730140000000 1.0
C      1  0.4650330000000  0.5341010000000  0.5207330000000 1.0
C      1  0.4679630000000  0.4668990000000  0.5410590000000 1.0
C      1  0.4750850000000  0.5414210000000  0.4641980000000 1.0
C      1  0.5378810000000  0.5393680000000  0.4599120000000 1.0
C      1  0.5310220000000  0.4608110000000  0.5386750000000 1.0
C      1  0.5346530000000  0.5323120000000  0.5352690000000 1.0
C      1  0.4697850000000  0.4658560000000  0.4676970000000 1.0
END
