TITL C-3578196-9646-132 -7.53004569966075e-07 125000 -546.644837650081 0 0 88 (C1) n - 1
REM
REM in /home/bkarasulu/work/CARBON/AIRSS/Generating-Clusters/EDIP-Nigel-Params/with-SteepDescent/Higher-Symm/SD-CG/HFTN-CG
REM
REM
REM
REM
REM
REM ./C.cell (12c818d87b63d06a65506943cc24bca4)
REM
REM compiler GCC version 9.2.1 20190827 (Red Hat 9.2.1-1)
REM options -cpp -mtune=generic -march=x86-64 -g -O0 -fpre-include=/usr/include/finclude/math-vector-fortran.h
REM seed 770261736 -1917397657 -1831640559 -1169447276 301142756 -179252115 734593059 1652678987 -4353233 635692483 781961972 -2137105837 481798613 2016293962 -1774718227 1850978720 2038129957 507885549 1300441922 -816294945 1955420873 -110779368 -494080611 -478951375 -2117057771 -1667533620 -590520492 -20674738 -1001415282 896382423 752844366 301112266 -83895900
REM
CELL 1.54180   50.00000   50.00000   50.00000   90.00000   90.00000   90.00000
LATT -1
SFAC C  
C      1  0.4877760000000  0.4175880000000  0.4836120000000 1.0
C      1  0.5155660000000  0.4095600000000  0.4863920000000 1.0
C      1  0.5216300000000  0.4183540000000  0.5125430000000 1.0
C      1  0.4970530000000  0.4258320000000  0.5262790000000 1.0
C      1  0.4745530000000  0.4172370000000  0.5100860000000 1.0
C      1  0.4819410000000  0.5938570000000  0.4811270000000 1.0
C      1  0.5105440000000  0.5975370000000  0.4821030000000 1.0
C      1  0.5214600000000  0.5886880000000  0.5070580000000 1.0
C      1  0.4990010000000  0.5873750000000  0.5261850000000 1.0
C      1  0.4738590000000  0.5899450000000  0.5104620000000 1.0
C      1  0.5729810000000  0.5294360000000  0.5027590000000 1.0
C      1  0.5183070000000  0.5297570000000  0.5696670000000 1.0
C      1  0.4382830000000  0.5280210000000  0.5393450000000 1.0
C      1  0.4463650000000  0.5324290000000  0.4542840000000 1.0
C      1  0.5275510000000  0.5286430000000  0.4319050000000 1.0
C      1  0.5752380000000  0.4712670000000  0.5080000000000 1.0
C      1  0.5135340000000  0.4703480000000  0.5742150000000 1.0
C      1  0.4348660000000  0.4716710000000  0.5334110000000 1.0
C      1  0.4514490000000  0.4778690000000  0.4484400000000 1.0
C      1  0.5330190000000  0.4782090000000  0.4355830000000 1.0
C      1  0.5503890000000  0.4855160000000  0.5010850000000 1.0
C      1  0.5317480000000  0.4826820000000  0.5545600000000 1.0
C      1  0.4610950000000  0.4840930000000  0.5247160000000 1.0
C      1  0.4644800000000  0.4912370000000  0.4712390000000 1.0
C      1  0.5175440000000  0.4880400000000  0.4587040000000 1.0
C      1  0.5532750000000  0.5126480000000  0.4878050000000 1.0
C      1  0.5275860000000  0.5123920000000  0.5460610000000 1.0
C      1  0.4640140000000  0.5122370000000  0.5391270000000 1.0
C      1  0.4511410000000  0.5158820000000  0.4792650000000 1.0
C      1  0.5073960000000  0.5156020000000  0.4503720000000 1.0
C      1  0.4219340000000  0.4744380000000  0.5061740000000 1.0
C      1  0.4713750000000  0.4790880000000  0.4262430000000 1.0
C      1  0.5607160000000  0.4777890000000  0.4449280000000 1.0
C      1  0.5708540000000  0.4723290000000  0.5379790000000 1.0
C      1  0.4854720000000  0.4761280000000  0.5663640000000 1.0
C      1  0.4250930000000  0.5288740000000  0.5122310000000 1.0
C      1  0.4697980000000  0.5316690000000  0.4347670000000 1.0
C      1  0.5540360000000  0.5290320000000  0.4468040000000 1.0
C      1  0.5651960000000  0.5286700000000  0.5319630000000 1.0
C      1  0.4880830000000  0.5300180000000  0.5754090000000 1.0
C      1  0.5554260000000  0.5552030000000  0.4618980000000 1.0
C      1  0.5459180000000  0.5515690000000  0.5356210000000 1.0
C      1  0.4762570000000  0.5560370000000  0.5615450000000 1.0
C      1  0.4357230000000  0.5553830000000  0.4979310000000 1.0
C      1  0.4847290000000  0.5582650000000  0.4352400000000 1.0
C      1  0.5602780000000  0.4468120000000  0.4659300000000 1.0
C      1  0.5483730000000  0.4495770000000  0.5431930000000 1.0
C      1  0.4678190000000  0.4422220000000  0.5614620000000 1.0
C      1  0.4413960000000  0.4539790000000  0.4907910000000 1.0
C      1  0.4887580000000  0.4534630000000  0.4309780000000 1.0
C      1  0.5288830000000  0.5315010000000  0.4964260000000 1.0
C      1  0.4835800000000  0.5325380000000  0.5252900000000 1.0
C      1  0.4686700000000  0.5354680000000  0.4981820000000 1.0
C      1  0.4869690000000  0.5498160000000  0.4815860000000 1.0
C      1  0.5122690000000  0.5392860000000  0.4725040000000 1.0
C      1  0.5287180000000  0.4643380000000  0.5022390000000 1.0
C      1  0.4833820000000  0.4666820000000  0.5357170000000 1.0
C      1  0.4671230000000  0.4705150000000  0.4919780000000 1.0
C      1  0.4877970000000  0.4494060000000  0.4794450000000 1.0
C      1  0.5159490000000  0.4606130000000  0.4749310000000 1.0
C      1  0.5319640000000  0.4403140000000  0.4590380000000 1.0
C      1  0.5422000000000  0.4400590000000  0.5143720000000 1.0
C      1  0.4949410000000  0.4291600000000  0.5548380000000 1.0
C      1  0.4491930000000  0.4323400000000  0.5122000000000 1.0
C      1  0.4739450000000  0.4390650000000  0.4533770000000 1.0
C      1  0.5269090000000  0.5637910000000  0.4591310000000 1.0
C      1  0.5420590000000  0.5656130000000  0.5097360000000 1.0
C      1  0.4991730000000  0.5633320000000  0.5437440000000 1.0
C      1  0.4520420000000  0.5702830000000  0.5183730000000 1.0
C      1  0.4735200000000  0.5689830000000  0.4643290000000 1.0
C      1  0.5155220000000  0.5572160000000  0.4318310000000 1.0
C      1  0.5647950000000  0.5564800000000  0.4909410000000 1.0
C      1  0.5249770000000  0.5551930000000  0.5559900000000 1.0
C      1  0.4505470000000  0.5554240000000  0.5447240000000 1.0
C      1  0.4445020000000  0.5592110000000  0.4677180000000 1.0
C      1  0.5209020000000  0.4511450000000  0.4317880000000 1.0
C      1  0.5678840000000  0.4441970000000  0.4951800000000 1.0
C      1  0.5193850000000  0.4424390000000  0.5657980000000 1.0
C      1  0.4453060000000  0.4440000000000  0.5395750000000 1.0
C      1  0.4459180000000  0.4500360000000  0.4582950000000 1.0
C      1  0.4211360000000  0.5030720000000  0.4971440000000 1.0
C      1  0.5682820000000  0.5041370000000  0.4552120000000 1.0
C      1  0.4742350000000  0.5052680000000  0.5661450000000 1.0
C      1  0.4815130000000  0.5067410000000  0.4237460000000 1.0
C      1  0.5650420000000  0.5018440000000  0.5476160000000 1.0
C      1  0.5110610000000  0.5193460000000  0.5187960000000 1.0
C      1  0.5068780000000  0.4752590000000  0.5191000000000 1.0
C      1  0.4996410000000  0.4976870000000  0.5048800000000 1.0
END
