TITL C-3578200-9634-37 -1.17619478795132e-06 125000 -352.504819267932 0 0 58 (C2) n - 1
REM
REM in /home/bkarasulu/work/CARBON/AIRSS/Generating-Clusters/EDIP-Nigel-Params/with-SteepDescent/Higher-Symm/SD-CG/HFTN-CG
REM
REM
REM
REM
REM
REM ./C.cell (12c818d87b63d06a65506943cc24bca4)
REM
REM compiler GCC version 9.2.1 20190827 (Red Hat 9.2.1-1)
REM options -cpp -mtune=generic -march=x86-64 -g -O0 -fpre-include=/usr/include/finclude/math-vector-fortran.h
REM seed -736651437 1889530601 -1990595048 -812002570 347828168 569345793 416697698 -818994479 520471271 712154910 -2027876152 -1975051408 1357598990 1063478905 1074500575 -504121611 1256073833 -1349998469 -947570698 -1755109022 1476418607 787157081 -533712032 1792128234 -388775211 -5714425 -2116186201 1950618939 401381727 -1184055315 -681597700 -559794826 -1185646078
REM
CELL 1.54180   50.00000   50.00000   50.00000   90.00000   90.00000   90.00000
LATT -1
SFAC C  
C      1  0.4921020000000  0.5301750000000  0.4630170000000 1.0
C      1  0.5066440000000  0.4733120000000  0.4611650000000 1.0
C      1  0.4933550000000  0.4733140000000  0.5383160000000 1.0
C      1  0.5078990000000  0.5301770000000  0.5364610000000 1.0
C      1  0.5296810000000  0.4926000000000  0.4633570000000 1.0
C      1  0.4728370000000  0.5071610000000  0.4608540000000 1.0
C      1  0.4703190000000  0.4926030000000  0.5361230000000 1.0
C      1  0.5271640000000  0.5071620000000  0.5386250000000 1.0
C      1  0.5180130000000  0.5584390000000  0.5365150000000 1.0
C      1  0.4826010000000  0.4435390000000  0.5379280000000 1.0
C      1  0.5173970000000  0.4435370000000  0.4615550000000 1.0
C      1  0.4819890000000  0.5584380000000  0.4629620000000 1.0
C      1  0.5569790000000  0.5177290000000  0.5384350000000 1.0
C      1  0.4420890000000  0.4823010000000  0.5358850000000 1.0
C      1  0.4430210000000  0.5177290000000  0.4610440000000 1.0
C      1  0.5579100000000  0.4822970000000  0.4635960000000 1.0
C      1  0.5300830000000  0.5096360000000  0.4875550000000 1.0
C      1  0.4702610000000  0.4920080000000  0.4873790000000 1.0
C      1  0.5297390000000  0.4920080000000  0.5121020000000 1.0
C      1  0.4699180000000  0.5096380000000  0.5119250000000 1.0
C      1  0.5088550000000  0.5308210000000  0.4873950000000 1.0
C      1  0.4912050000000  0.4710070000000  0.4875540000000 1.0
C      1  0.4911460000000  0.5308220000000  0.5120830000000 1.0
C      1  0.5087940000000  0.4710070000000  0.5119280000000 1.0
C      1  0.4596670000000  0.5601770000000  0.5349780000000 1.0
C      1  0.5402690000000  0.4399050000000  0.5348340000000 1.0
C      1  0.4597290000000  0.4399040000000  0.4646490000000 1.0
C      1  0.5403360000000  0.5601740000000  0.4644990000000 1.0
C      1  0.5594810000000  0.4601920000000  0.5359580000000 1.0
C      1  0.4394740000000  0.5407230000000  0.5340600000000 1.0
C      1  0.4405170000000  0.4601920000000  0.4635240000000 1.0
C      1  0.5605280000000  0.5407190000000  0.4654180000000 1.0
C      1  0.5567200000000  0.4778420000000  0.5126490000000 1.0
C      1  0.4428580000000  0.5230320000000  0.5113500000000 1.0
C      1  0.5571430000000  0.5230300000000  0.4881290000000 1.0
C      1  0.4432790000000  0.4778440000000  0.4868330000000 1.0
C      1  0.4770820000000  0.5575460000000  0.5120500000000 1.0
C      1  0.5221900000000  0.4435770000000  0.5118630000000 1.0
C      1  0.5229200000000  0.5575440000000  0.4874270000000 1.0
C      1  0.4778080000000  0.4435770000000  0.4876190000000 1.0
C      1  0.4614920000000  0.5598620000000  0.4847430000000 1.0
C      1  0.5372280000000  0.4410520000000  0.4843690000000 1.0
C      1  0.4627690000000  0.4410540000000  0.5151140000000 1.0
C      1  0.5385100000000  0.5598620000000  0.5147340000000 1.0
C      1  0.5592330000000  0.4619710000000  0.4854890000000 1.0
C      1  0.4404990000000  0.5377900000000  0.4836930000000 1.0
C      1  0.4407660000000  0.4619740000000  0.5139930000000 1.0
C      1  0.5595030000000  0.5377890000000  0.5157840000000 1.0
C      1  0.5744440000000  0.5054330000000  0.4716400000000 1.0
C      1  0.4261950000000  0.4950400000000  0.4688210000000 1.0
C      1  0.5738050000000  0.4950380000000  0.5306600000000 1.0
C      1  0.4255570000000  0.5054370000000  0.5278400000000 1.0
C      1  0.5053540000000  0.5748140000000  0.4708420000000 1.0
C      1  0.4949730000000  0.4264950000000  0.4695060000000 1.0
C      1  0.4946490000000  0.5748160000000  0.5286340000000 1.0
C      1  0.5050250000000  0.4264970000000  0.5299780000000 1.0
C      1  0.5145180000000  0.4858200000000  0.5558160000000 1.0
C      1  0.4854820000000  0.4858180000000  0.4436650000000 1.0
END
