TITL C-3577083-591-394 -1.39186734876898e-06 125000 -430.978562610886 0 0 71 (C1) n - 1
REM
REM in /home/bkarasulu/work/CARBON/AIRSS/Generating-Clusters/EDIP-Nigel-Params/with-SteepDescent/Higher-Symm/SD-CG/HFTN-CG
REM
REM
REM
REM
REM
REM ./C.cell (12c818d87b63d06a65506943cc24bca4)
REM
REM compiler GCC version 9.2.1 20190827 (Red Hat 9.2.1-1)
REM options -cpp -mtune=generic -march=x86-64 -g -O0 -fpre-include=/usr/include/finclude/math-vector-fortran.h
REM seed -280950872 1290109393 -545653750 500878700 -1015345241 2010638105 -1992694095 -412483741 -1231940476 -369325401 -1506826135 -1119250486 -1157942330 -1338459900 1854347076 -1589176701 2118499113 179402954 -420252840 -207162061 2132421173 1897479754 -1123994253 827401359 -431683918 934104500 630400019 -254872093 159392396 -1613126895 1280223210 -1541992768 1931725372
REM
CELL 1.54180   50.00000   50.00000   50.00000   90.00000   90.00000   90.00000
LATT -1
SFAC C  
C      1  0.5461800000000  0.4770000000000  0.4537440000000 1.0
C      1  0.4764420000000  0.4619200000000  0.5511010000000 1.0
C      1  0.4596680000000  0.5444580000000  0.4734650000000 1.0
C      1  0.4531730000000  0.4723910000000  0.5392300000000 1.0
C      1  0.4457690000000  0.5221500000000  0.4631040000000 1.0
C      1  0.5491240000000  0.5208760000000  0.5362130000000 1.0
C      1  0.5239890000000  0.4596580000000  0.4536910000000 1.0
C      1  0.5202680000000  0.5445390000000  0.5465560000000 1.0
C      1  0.4769260000000  0.5417200000000  0.4513430000000 1.0
C      1  0.5380990000000  0.5441470000000  0.5248600000000 1.0
C      1  0.5353050000000  0.4478040000000  0.4766730000000 1.0
C      1  0.4541080000000  0.4503640000000  0.5216850000000 1.0
C      1  0.5409550000000  0.4730530000000  0.5673890000000 1.0
C      1  0.4698380000000  0.5659340000000  0.5392130000000 1.0
C      1  0.5683340000000  0.5385220000000  0.4748360000000 1.0
C      1  0.4607010000000  0.4726130000000  0.4312310000000 1.0
C      1  0.4589320000000  0.5231930000000  0.5683710000000 1.0
C      1  0.5404280000000  0.5267060000000  0.4314970000000 1.0
C      1  0.5268250000000  0.5674510000000  0.4616530000000 1.0
C      1  0.5246480000000  0.4303580000000  0.5410680000000 1.0
C      1  0.4740610000000  0.4299900000000  0.4592340000000 1.0
C      1  0.4299310000000  0.5352900000000  0.5264000000000 1.0
C      1  0.4310740000000  0.4575040000000  0.4715620000000 1.0
C      1  0.5672270000000  0.4566270000000  0.5246820000000 1.0
C      1  0.4816870000000  0.4534960000000  0.4412420000000 1.0
C      1  0.4537670000000  0.4389310000000  0.4789320000000 1.0
C      1  0.4409770000000  0.4790600000000  0.4534990000000 1.0
C      1  0.5192840000000  0.4541810000000  0.5592990000000 1.0
C      1  0.5199550000000  0.5454210000000  0.4418820000000 1.0
C      1  0.4777500000000  0.5439960000000  0.5586290000000 1.0
C      1  0.5433770000000  0.4385590000000  0.5192850000000 1.0
C      1  0.5451420000000  0.5567030000000  0.4827400000000 1.0
C      1  0.4518690000000  0.5547720000000  0.5182680000000 1.0
C      1  0.5590810000000  0.4783130000000  0.5435520000000 1.0
C      1  0.5591880000000  0.5192450000000  0.4540960000000 1.0
C      1  0.4407180000000  0.5147110000000  0.5455120000000 1.0
C      1  0.4727980000000  0.5422980000000  0.5003080000000 1.0
C      1  0.5447500000000  0.4999480000000  0.4722990000000 1.0
C      1  0.5017720000000  0.4747850000000  0.5458330000000 1.0
C      1  0.5241740000000  0.5426630000000  0.4988700000000 1.0
C      1  0.5227330000000  0.4522700000000  0.5021530000000 1.0
C      1  0.4721060000000  0.4528090000000  0.4984600000000 1.0
C      1  0.4546740000000  0.4981250000000  0.5249560000000 1.0
C      1  0.4529800000000  0.4967120000000  0.4746460000000 1.0
C      1  0.5452540000000  0.4955580000000  0.5230750000000 1.0
C      1  0.4981850000000  0.4740360000000  0.4554290000000 1.0
C      1  0.4975210000000  0.5257450000000  0.5447950000000 1.0
C      1  0.5011450000000  0.5254470000000  0.4547450000000 1.0
C      1  0.4747700000000  0.4962410000000  0.4218120000000 1.0
C      1  0.4956430000000  0.4197790000000  0.4760850000000 1.0
C      1  0.4210120000000  0.4708950000000  0.4954280000000 1.0
C      1  0.5273930000000  0.4971750000000  0.5767090000000 1.0
C      1  0.5250780000000  0.5036140000000  0.4220770000000 1.0
C      1  0.4762850000000  0.5020910000000  0.5786340000000 1.0
C      1  0.5006600000000  0.4208340000000  0.5274340000000 1.0
C      1  0.5029240000000  0.5766520000000  0.4755470000000 1.0
C      1  0.4932970000000  0.5758390000000  0.5249640000000 1.0
C      1  0.5766120000000  0.4703010000000  0.5006740000000 1.0
C      1  0.5782380000000  0.5214080000000  0.4962920000000 1.0
C      1  0.4195120000000  0.5204390000000  0.5037450000000 1.0
C      1  0.4996900000000  0.4997530000000  0.4371220000000 1.0
C      1  0.4974240000000  0.4349620000000  0.5015820000000 1.0
C      1  0.5013730000000  0.5003970000000  0.5628970000000 1.0
C      1  0.4982880000000  0.5607020000000  0.4999990000000 1.0
C      1  0.5626010000000  0.4962350000000  0.4976930000000 1.0
C      1  0.4357570000000  0.4961230000000  0.5000080000000 1.0
C      1  0.5166790000000  0.4808560000000  0.5170610000000 1.0
C      1  0.5168330000000  0.5161130000000  0.4820300000000 1.0
C      1  0.4815210000000  0.5156460000000  0.5169160000000 1.0
C      1  0.4814740000000  0.4809420000000  0.4824320000000 1.0
C      1  0.4992320000000  0.4983940000000  0.4995970000000 1.0
END
