TITL C-3577081-279-33 -6.75877969390244e-07 125000 -841.536715571525 0 0 137 (C3) n - 1
REM
REM in /home/bkarasulu/work/CARBON/AIRSS/Generating-Clusters/EDIP-Nigel-Params/with-SteepDescent/Higher-Symm/SD-CG/HFTN-CG
REM
REM
REM
REM
REM
REM ./C.cell (12c818d87b63d06a65506943cc24bca4)
REM
REM compiler GCC version 9.2.1 20190827 (Red Hat 9.2.1-1)
REM options -cpp -mtune=generic -march=x86-64 -g -O0 -fpre-include=/usr/include/finclude/math-vector-fortran.h
REM seed 48010576 1548113984 -1633496220 1932412261 397977513 -1167903973 -1616307533 2117446075 125794607 1060679410 -1392199273 666656226 -1799111093 834197813 -2053306522 -191157900 -428051726 1412659963 843944320 -896447140 -1970449233 83891200 360516241 -35836334 -444838903 -593123370 -529612805 68110400 -1095624616 -711833340 -1027021749 1972817261 -1353642826
REM
CELL 1.54180   50.00000   50.00000   50.00000   90.00000   90.00000   90.00000
LATT -1
SFAC C  
C      1  0.5563510000000  0.5554630000000  0.5449900000000 1.0
C      1  0.5110970000000  0.5554550000000  0.4289560000000 1.0
C      1  0.4332350000000  0.5554420000000  0.5261640000000 1.0
C      1  0.5804110000000  0.4375870000000  0.5098070000000 1.0
C      1  0.4686270000000  0.4375680000000  0.4257280000000 1.0
C      1  0.4517050000000  0.4375650000000  0.5645760000000 1.0
C      1  0.4365160000000  0.4433570000000  0.4765670000000 1.0
C      1  0.5117870000000  0.4433700000000  0.5669650000000 1.0
C      1  0.5524380000000  0.4433770000000  0.4565790000000 1.0
C      1  0.5066340000000  0.4830430000000  0.4339890000000 1.0
C      1  0.4398440000000  0.4830320000000  0.5275240000000 1.0
C      1  0.5542420000000  0.4830520000000  0.5385980000000 1.0
C      1  0.4206660000000  0.5472870000000  0.5007100000000 1.0
C      1  0.5405940000000  0.5473080000000  0.5686040000000 1.0
C      1  0.5394270000000  0.5473070000000  0.4307960000000 1.0
C      1  0.5742320000000  0.5148490000000  0.5659640000000 1.0
C      1  0.5203300000000  0.5148390000000  0.4029900000000 1.0
C      1  0.4061420000000  0.5148200000000  0.5311570000000 1.0
C      1  0.4525740000000  0.5128640000000  0.5892590000000 1.0
C      1  0.6013330000000  0.5128890000000  0.4967010000000 1.0
C      1  0.4467970000000  0.5128630000000  0.4141510000000 1.0
C      1  0.5320470000000  0.5031070000000  0.5914230000000 1.0
C      1  0.5634740000000  0.5031120000000  0.4267950000000 1.0
C      1  0.4051890000000  0.5030850000000  0.4818930000000 1.0
C      1  0.4494760000000  0.5768880000000  0.4394800000000 1.0
C      1  0.4731540000000  0.5768920000000  0.5742640000000 1.0
C      1  0.5780420000000  0.5769100000000  0.4863660000000 1.0
C      1  0.5150200000000  0.4869080000000  0.3975520000000 1.0
C      1  0.4040940000000  0.4868900000000  0.5384790000000 1.0
C      1  0.5816040000000  0.4869200000000  0.5640800000000 1.0
C      1  0.5867920000000  0.5469770000000  0.4855790000000 1.0
C      1  0.4444270000000  0.5469530000000  0.4323000000000 1.0
C      1  0.4694680000000  0.5469570000000  0.5822310000000 1.0
C      1  0.4644430000000  0.5270400000000  0.5116900000000 1.0
C      1  0.5282200000000  0.5270510000000  0.5252050000000 1.0
C      1  0.5080350000000  0.5270480000000  0.4632150000000 1.0
C      1  0.5233420000000  0.4112840000000  0.5188950000000 1.0
C      1  0.5050390000000  0.4112810000000  0.4706120000000 1.0
C      1  0.4723770000000  0.4112750000000  0.5106040000000 1.0
C      1  0.5063660000000  0.4910230000000  0.5451040000000 1.0
C      1  0.5362040000000  0.4910280000000  0.4721970000000 1.0
C      1  0.4581450000000  0.4910150000000  0.4828100000000 1.0
C      1  0.4967150000000  0.4270790000000  0.4196220000000 1.0
C      1  0.4323750000000  0.4270690000000  0.5433060000000 1.0
C      1  0.5716590000000  0.4270930000000  0.5371840000000 1.0
C      1  0.5149990000000  0.5718250000000  0.4813590000000 1.0
C      1  0.4766620000000  0.5718180000000  0.4965810000000 1.0
C      1  0.5090130000000  0.5718240000000  0.5221710000000 1.0
C      1  0.5671460000000  0.4798580000000  0.5102140000000 1.0
C      1  0.4756020000000  0.4798420000000  0.4370060000000 1.0
C      1  0.4579740000000  0.4798390000000  0.5528900000000 1.0
C      1  0.4511360000000  0.5021080000000  0.4567650000000 1.0
C      1  0.4873120000000  0.5021140000000  0.5641960000000 1.0
C      1  0.5622620000000  0.5021270000000  0.4791500000000 1.0
C      1  0.5372310000000  0.5927490000000  0.4801690000000 1.0
C      1  0.4645100000000  0.5927370000000  0.4779190000000 1.0
C      1  0.4989230000000  0.5927430000000  0.5420220000000 1.0
C      1  0.5733020000000  0.4418720000000  0.5620600000000 1.0
C      1  0.5174330000000  0.4418620000000  0.4057580000000 1.0
C      1  0.4100060000000  0.4418440000000  0.5322940000000 1.0
C      1  0.4373350000000  0.5823460000000  0.4686180000000 1.0
C      1  0.5044580000000  0.5823580000000  0.5702090000000 1.0
C      1  0.5588770000000  0.5823670000000  0.4612830000000 1.0
C      1  0.4487100000000  0.5222690000000  0.5600840000000 1.0
C      1  0.5779970000000  0.5222910000000  0.5146340000000 1.0
C      1  0.4739930000000  0.5222730000000  0.4253930000000 1.0
C      1  0.5332830000000  0.5047090000000  0.5442580000000 1.0
C      1  0.5220100000000  0.5047070000000  0.4493070000000 1.0
C      1  0.4454160000000  0.5046940000000  0.5065450000000 1.0
C      1  0.4587020000000  0.4290190000000  0.4613370000000 1.0
C      1  0.4875080000000  0.4290240000000  0.5553680000000 1.0
C      1  0.5545380000000  0.4290350000000  0.4834060000000 1.0
C      1  0.4977700000000  0.5344460000000  0.4105360000000 1.0
C      1  0.4239520000000  0.5344340000000  0.5469190000000 1.0
C      1  0.5789720000000  0.5344600000000  0.5426560000000 1.0
C      1  0.4605630000000  0.5689350000000  0.5242770000000 1.0
C      1  0.5410500000000  0.5689490000000  0.5222650000000 1.0
C      1  0.4990640000000  0.5689420000000  0.4535680000000 1.0
C      1  0.5308590000000  0.5455240000000  0.4768110000000 1.0
C      1  0.4648000000000  0.5455130000000  0.4851230000000 1.0
C      1  0.5050290000000  0.5455200000000  0.5381760000000 1.0
C      1  0.4435540000000  0.4662650000000  0.5753130000000 1.0
C      1  0.5937780000000  0.4662910000000  0.5114930000000 1.0
C      1  0.4633960000000  0.4662680000000  0.4133050000000 1.0
C      1  0.4864470000000  0.4758080000000  0.5993860000000 1.0
C      1  0.5931770000000  0.4758260000000  0.4623080000000 1.0
C      1  0.4210990000000  0.4757970000000  0.4384160000000 1.0
C      1  0.5520710000000  0.5535100000000  0.4559750000000 1.0
C      1  0.4361480000000  0.5534900000000  0.4771700000000 1.0
C      1  0.5124650000000  0.5535030000000  0.5669650000000 1.0
C      1  0.5230470000000  0.4645620000000  0.5136750000000 1.0
C      1  0.5006520000000  0.4645580000000  0.4734690000000 1.0
C      1  0.4770310000000  0.4645540000000  0.5129670000000 1.0
C      1  0.5654660000000  0.4654170000000  0.5764720000000 1.0
C      1  0.5338270000000  0.4654110000000  0.4053350000000 1.0
C      1  0.4014370000000  0.4653890000000  0.5183040000000 1.0
C      1  0.4378850000000  0.4836410000000  0.4145760000000 1.0
C      1  0.4574060000000  0.4836450000000  0.5967680000000 1.0
C      1  0.6054290000000  0.4836700000000  0.4887670000000 1.0
C      1  0.5781640000000  0.5094500000000  0.4525340000000 1.0
C      1  0.4201330000000  0.5094230000000  0.4563010000000 1.0
C      1  0.5024100000000  0.5094370000000  0.5912760000000 1.0
C      1  0.5485410000000  0.5312310000000  0.5006520000000 1.0
C      1  0.4766100000000  0.5312190000000  0.4578920000000 1.0
C      1  0.4755440000000  0.5312190000000  0.5415660000000 1.0
C      1  0.5493360000000  0.4574410000000  0.4982320000000 1.0
C      1  0.4741360000000  0.4574280000000  0.4584250000000 1.0
C      1  0.4772620000000  0.4574290000000  0.5434540000000 1.0
C      1  0.4177320000000  0.5179310000000  0.5038640000000 1.0
C      1  0.5448000000000  0.5179520000000  0.5695720000000 1.0
C      1  0.5381710000000  0.5179510000000  0.4266740000000 1.0
C      1  0.5258530000000  0.4942190000000  0.5008550000000 1.0
C      1  0.4881390000000  0.4942120000000  0.4774450000000 1.0
C      1  0.4867220000000  0.4942120000000  0.5218110000000 1.0
C      1  0.5371090000000  0.4744240000000  0.5870750000000 1.0
C      1  0.5571850000000  0.4744270000000  0.4245900000000 1.0
C      1  0.4064310000000  0.4744010000000  0.4884460000000 1.0
C      1  0.5066750000000  0.4296700000000  0.4470110000000 1.0
C      1  0.4511140000000  0.4296610000000  0.5209850000000 1.0
C      1  0.5429580000000  0.4296770000000  0.5321160000000 1.0
C      1  0.4688070000000  0.5875110000000  0.5450760000000 1.0
C      1  0.5549350000000  0.5875250000000  0.5047230000000 1.0
C      1  0.4769240000000  0.5875120000000  0.4503110000000 1.0
C      1  0.4260790000000  0.5384580000000  0.4534750000000 1.0
C      1  0.4969830000000  0.5384710000000  0.5875340000000 1.0
C      1  0.5776300000000  0.5384840000000  0.4591010000000 1.0
C      1  0.5340750000000  0.4534190000000  0.5483100000000 1.0
C      1  0.5251360000000  0.4534170000000  0.4466030000000 1.0
C      1  0.4415240000000  0.4534030000000  0.5051980000000 1.0
C      1  0.5286130000000  0.4124180000000  0.4897200000000 1.0
C      1  0.4771360000000  0.4124100000000  0.4806340000000 1.0
C      1  0.4950070000000  0.4124130000000  0.5297580000000 1.0
C      1  0.5108930000000  0.4598110000000  0.5909990000000 1.0
C      1  0.5736950000000  0.4598210000000  0.4453330000000 1.0
C      1  0.4161440000000  0.4597940000000  0.4637790000000 1.0
C      1  0.5002360000000  0.5077330000000  0.5000370000000 1.0
C      1  0.5002450000000  0.4526130000000  0.5000370000000 1.0
END
