TITL C-3577079-311-232 -2.29050061941444e-06 125000 -1223.17906055719 0 0 193 (C1) n - 1
REM
REM in /home/bkarasulu/work/CARBON/AIRSS/Generating-Clusters/EDIP-Nigel-Params/with-SteepDescent/Higher-Symm/SD-CG/HFTN-CG
REM
REM
REM
REM
REM
REM ./C.cell (12c818d87b63d06a65506943cc24bca4)
REM
REM compiler GCC version 9.2.1 20190827 (Red Hat 9.2.1-1)
REM options -cpp -mtune=generic -march=x86-64 -g -O0 -fpre-include=/usr/include/finclude/math-vector-fortran.h
REM seed 1949650671 980255393 590713332 -1100223267 1933738750 1165240029 708109605 -1904638707 73452988 -1774740586 -57348102 471424554 -1240895337 -1888842000 -1212719632 206253865 1604604865 857391933 -75298726 -2064179828 -1223071888 949613390 45585231 -576879934 868945478 644870416 811666947 -1107697154 -1721513646 -1903792898 66272929 294883540 1504909622
REM
CELL 1.54180   50.00000   50.00000   50.00000   90.00000   90.00000   90.00000
LATT -1
SFAC C  
C      1  0.5124930000000  0.4441920000000  0.5971710000000 1.0
C      1  0.5175770000000  0.5558320000000  0.4035320000000 1.0
C      1  0.4824010000000  0.4486570000000  0.5986280000000 1.0
C      1  0.4875430000000  0.5542740000000  0.4057510000000 1.0
C      1  0.4815620000000  0.4825070000000  0.5667180000000 1.0
C      1  0.4966720000000  0.5156440000000  0.4312090000000 1.0
C      1  0.5113920000000  0.4782200000000  0.5702850000000 1.0
C      1  0.5243860000000  0.5151450000000  0.4251780000000 1.0
C      1  0.6009890000000  0.5732970000000  0.5067920000000 1.0
C      1  0.5928030000000  0.4267460000000  0.4944700000000 1.0
C      1  0.4026530000000  0.5654430000000  0.5099540000000 1.0
C      1  0.4033040000000  0.4291270000000  0.4936570000000 1.0
C      1  0.4187940000000  0.5166410000000  0.5259750000000 1.0
C      1  0.4239730000000  0.4758480000000  0.4781690000000 1.0
C      1  0.5826720000000  0.5224900000000  0.5201960000000 1.0
C      1  0.5679700000000  0.4880780000000  0.4751160000000 1.0
C      1  0.5183290000000  0.4751730000000  0.4541290000000 1.0
C      1  0.5275070000000  0.5157770000000  0.5447330000000 1.0
C      1  0.4907410000000  0.4887830000000  0.4432050000000 1.0
C      1  0.4649890000000  0.5195610000000  0.5371430000000 1.0
C      1  0.4721390000000  0.4499270000000  0.5283230000000 1.0
C      1  0.4932800000000  0.5496760000000  0.4786530000000 1.0
C      1  0.5019380000000  0.4491570000000  0.5282260000000 1.0
C      1  0.5178200000000  0.5651940000000  0.4781530000000 1.0
C      1  0.5840120000000  0.5607160000000  0.4844100000000 1.0
C      1  0.5738340000000  0.4394840000000  0.5139070000000 1.0
C      1  0.4217150000000  0.5523380000000  0.4896650000000 1.0
C      1  0.4221500000000  0.4412800000000  0.5147080000000 1.0
C      1  0.4733400000000  0.4029820000000  0.4633760000000 1.0
C      1  0.4857700000000  0.5932500000000  0.5315420000000 1.0
C      1  0.5258550000000  0.4052730000000  0.4579480000000 1.0
C      1  0.5171120000000  0.5968090000000  0.5303950000000 1.0
C      1  0.5731130000000  0.4150560000000  0.4768570000000 1.0
C      1  0.5783290000000  0.5897020000000  0.5215890000000 1.0
C      1  0.4222140000000  0.4096290000000  0.4788080000000 1.0
C      1  0.4238130000000  0.5845430000000  0.5261110000000 1.0
C      1  0.5488890000000  0.5081530000000  0.5883610000000 1.0
C      1  0.5693890000000  0.4987190000000  0.3915830000000 1.0
C      1  0.4331840000000  0.5079980000000  0.6081910000000 1.0
C      1  0.4506320000000  0.4864460000000  0.4104180000000 1.0
C      1  0.5082060000000  0.4424690000000  0.5000620000000 1.0
C      1  0.5354030000000  0.5583950000000  0.5020490000000 1.0
C      1  0.4826500000000  0.4461280000000  0.4830780000000 1.0
C      1  0.4728750000000  0.5518000000000  0.4999810000000 1.0
C      1  0.4712680000000  0.4955850000000  0.4646660000000 1.0
C      1  0.4395490000000  0.5089800000000  0.5459920000000 1.0
C      1  0.5403220000000  0.4983320000000  0.4633560000000 1.0
C      1  0.5566560000000  0.5112150000000  0.5408380000000 1.0
C      1  0.4422380000000  0.4106320000000  0.5471300000000 1.0
C      1  0.4473000000000  0.5846140000000  0.4618970000000 1.0
C      1  0.5578650000000  0.4071220000000  0.5466850000000 1.0
C      1  0.5639920000000  0.5939170000000  0.4536160000000 1.0
C      1  0.4071190000000  0.5442120000000  0.5342970000000 1.0
C      1  0.4099380000000  0.4508550000000  0.4681250000000 1.0
C      1  0.5936990000000  0.5492190000000  0.5316020000000 1.0
C      1  0.5818840000000  0.4612700000000  0.4693880000000 1.0
C      1  0.5619950000000  0.4694610000000  0.5711590000000 1.0
C      1  0.5659330000000  0.5323220000000  0.4278300000000 1.0
C      1  0.4266320000000  0.4659780000000  0.5903420000000 1.0
C      1  0.4420400000000  0.5256400000000  0.4369520000000 1.0
C      1  0.6025280000000  0.5043680000000  0.4273850000000 1.0
C      1  0.5949990000000  0.4984760000000  0.5687720000000 1.0
C      1  0.4049840000000  0.4979310000000  0.4299570000000 1.0
C      1  0.3961530000000  0.4972000000000  0.5730120000000 1.0
C      1  0.5108480000000  0.4871110000000  0.6259800000000 1.0
C      1  0.5144290000000  0.5041090000000  0.3833130000000 1.0
C      1  0.4909640000000  0.5002240000000  0.6114190000000 1.0
C      1  0.4889430000000  0.5133380000000  0.3782340000000 1.0
C      1  0.6166700000000  0.5172520000000  0.5596810000000 1.0
C      1  0.6183400000000  0.4848090000000  0.4426530000000 1.0
C      1  0.3769170000000  0.5166490000000  0.5604320000000 1.0
C      1  0.3823040000000  0.4818870000000  0.4404020000000 1.0
C      1  0.4385660000000  0.4316570000000  0.4327480000000 1.0
C      1  0.4382890000000  0.5577720000000  0.5696780000000 1.0
C      1  0.5555030000000  0.4451380000000  0.4372110000000 1.0
C      1  0.5587480000000  0.5641540000000  0.5615210000000 1.0
C      1  0.5252870000000  0.4504600000000  0.4354660000000 1.0
C      1  0.5305620000000  0.5578380000000  0.5574510000000 1.0
C      1  0.4683560000000  0.4394580000000  0.4315410000000 1.0
C      1  0.4715500000000  0.5464920000000  0.5534890000000 1.0
C      1  0.5297020000000  0.6078610000000  0.5054750000000 1.0
C      1  0.5282840000000  0.3954260000000  0.4838120000000 1.0
C      1  0.4702800000000  0.6066160000000  0.5099220000000 1.0
C      1  0.4675200000000  0.3923360000000  0.4887190000000 1.0
C      1  0.5803400000000  0.4889630000000  0.4154760000000 1.0
C      1  0.5697100000000  0.5155660000000  0.5688890000000 1.0
C      1  0.4268080000000  0.4788700000000  0.4247810000000 1.0
C      1  0.4186440000000  0.5139220000000  0.5847300000000 1.0
C      1  0.5134110000000  0.5972250000000  0.4816220000000 1.0
C      1  0.5134230000000  0.4106110000000  0.5055190000000 1.0
C      1  0.4852890000000  0.6058770000000  0.4850240000000 1.0
C      1  0.4842570000000  0.4022960000000  0.5102200000000 1.0
C      1  0.4472450000000  0.5698630000000  0.4884120000000 1.0
C      1  0.4458680000000  0.4222160000000  0.5202500000000 1.0
C      1  0.5597920000000  0.5797070000000  0.4805660000000 1.0
C      1  0.5538130000000  0.4175570000000  0.5192350000000 1.0
C      1  0.6171120000000  0.4957530000000  0.5123990000000 1.0
C      1  0.6150170000000  0.5065480000000  0.4854120000000 1.0
C      1  0.3773350000000  0.4949030000000  0.5133730000000 1.0
C      1  0.3838860000000  0.5041240000000  0.4860150000000 1.0
C      1  0.3662800000000  0.5095000000000  0.5349750000000 1.0
C      1  0.3710620000000  0.4922710000000  0.4642340000000 1.0
C      1  0.6275130000000  0.5101360000000  0.5343160000000 1.0
C      1  0.6306810000000  0.4945520000000  0.4660170000000 1.0
C      1  0.4412670000000  0.3997530000000  0.4993860000000 1.0
C      1  0.4431160000000  0.5935100000000  0.5052990000000 1.0
C      1  0.5550720000000  0.3996930000000  0.4953350000000 1.0
C      1  0.5595380000000  0.6011630000000  0.5010400000000 1.0
C      1  0.5177020000000  0.6112940000000  0.4550840000000 1.0
C      1  0.5149540000000  0.3965630000000  0.5413910000000 1.0
C      1  0.4896030000000  0.6106610000000  0.4463460000000 1.0
C      1  0.4862290000000  0.3943770000000  0.5387630000000 1.0
C      1  0.5591700000000  0.5237870000000  0.3987780000000 1.0
C      1  0.5512800000000  0.4812610000000  0.5962830000000 1.0
C      1  0.4524980000000  0.5147920000000  0.4105370000000 1.0
C      1  0.4443920000000  0.4831500000000  0.6038450000000 1.0
C      1  0.4331840000000  0.4316050000000  0.4613590000000 1.0
C      1  0.4319570000000  0.5602980000000  0.5421380000000 1.0
C      1  0.5614550000000  0.4399350000000  0.4658670000000 1.0
C      1  0.5680210000000  0.5652590000000  0.5346520000000 1.0
C      1  0.4632150000000  0.4608320000000  0.5554010000000 1.0
C      1  0.4845080000000  0.5385250000000  0.4519150000000 1.0
C      1  0.5232800000000  0.4598510000000  0.5484900000000 1.0
C      1  0.5292190000000  0.5531940000000  0.4524670000000 1.0
C      1  0.5205300000000  0.5660120000000  0.5298570000000 1.0
C      1  0.5116450000000  0.4266690000000  0.4478110000000 1.0
C      1  0.4849850000000  0.5623120000000  0.5285850000000 1.0
C      1  0.4834480000000  0.4292190000000  0.4566900000000 1.0
C      1  0.4894680000000  0.5454490000000  0.5792520000000 1.0
C      1  0.4862980000000  0.4405690000000  0.4065600000000 1.0
C      1  0.5114210000000  0.5626480000000  0.5770620000000 1.0
C      1  0.5131220000000  0.4532000000000  0.4075230000000 1.0
C      1  0.5133260000000  0.4787730000000  0.3957110000000 1.0
C      1  0.5229470000000  0.5071560000000  0.5733930000000 1.0
C      1  0.4770030000000  0.4749070000000  0.4190350000000 1.0
C      1  0.5011520000000  0.5198400000000  0.5901590000000 1.0
C      1  0.4102630000000  0.5502860000000  0.4615030000000 1.0
C      1  0.4085750000000  0.4455260000000  0.5418760000000 1.0
C      1  0.5968530000000  0.5566710000000  0.4566250000000 1.0
C      1  0.5887010000000  0.4447540000000  0.5398780000000 1.0
C      1  0.6004390000000  0.4605400000000  0.4453070000000 1.0
C      1  0.6046870000000  0.5447700000000  0.5595180000000 1.0
C      1  0.3937490000000  0.4538830000000  0.4420480000000 1.0
C      1  0.3913060000000  0.5427990000000  0.5597860000000 1.0
C      1  0.5385330000000  0.5988750000000  0.4375040000000 1.0
C      1  0.5319280000000  0.4072690000000  0.5613040000000 1.0
C      1  0.4733110000000  0.5864930000000  0.4471430000000 1.0
C      1  0.4679560000000  0.4045740000000  0.5591860000000 1.0
C      1  0.5346270000000  0.5692260000000  0.4278390000000 1.0
C      1  0.5297490000000  0.4363410000000  0.5711240000000 1.0
C      1  0.4736640000000  0.5604470000000  0.4324250000000 1.0
C      1  0.4639140000000  0.4380010000000  0.5764220000000 1.0
C      1  0.4221360000000  0.4270720000000  0.5615200000000 1.0
C      1  0.4269010000000  0.5696820000000  0.4459710000000 1.0
C      1  0.5762410000000  0.4265650000000  0.5600670000000 1.0
C      1  0.5825840000000  0.5760020000000  0.4387450000000 1.0
C      1  0.5912530000000  0.4753260000000  0.5476750000000 1.0
C      1  0.5916960000000  0.5269580000000  0.4457880000000 1.0
C      1  0.4064870000000  0.4750060000000  0.5493010000000 1.0
C      1  0.4137780000000  0.5202750000000  0.4493950000000 1.0
C      1  0.5414400000000  0.5257710000000  0.4450710000000 1.0
C      1  0.5497820000000  0.4786860000000  0.5354180000000 1.0
C      1  0.4612260000000  0.5221520000000  0.4592980000000 1.0
C      1  0.4362800000000  0.4801900000000  0.5559480000000 1.0
C      1  0.4838110000000  0.4981250000000  0.5415900000000 1.0
C      1  0.4780660000000  0.4942650000000  0.4935120000000 1.0
C      1  0.5104710000000  0.4980660000000  0.5294780000000 1.0
C      1  0.5265820000000  0.5129510000000  0.4850340000000 1.0
C      1  0.4657980000000  0.4654810000000  0.5020060000000 1.0
C      1  0.4622460000000  0.5223530000000  0.5061000000000 1.0
C      1  0.5260000000000  0.4662700000000  0.4914240000000 1.0
C      1  0.5443280000000  0.5307060000000  0.4994220000000 1.0
C      1  0.5779980000000  0.5443400000000  0.5735320000000 1.0
C      1  0.5788020000000  0.4610680000000  0.4249850000000 1.0
C      1  0.4145090000000  0.5425680000000  0.5792960000000 1.0
C      1  0.4176550000000  0.4514880000000  0.4232000000000 1.0
C      1  0.4806500000000  0.5238720000000  0.4042720000000 1.0
C      1  0.4737400000000  0.4794890000000  0.5981900000000 1.0
C      1  0.5291620000000  0.5258730000000  0.3989040000000 1.0
C      1  0.5243750000000  0.4711430000000  0.6063030000000 1.0
C      1  0.5561460000000  0.4673890000000  0.5054440000000 1.0
C      1  0.5736570000000  0.5316860000000  0.4930500000000 1.0
C      1  0.4356030000000  0.4666080000000  0.5030150000000 1.0
C      1  0.4304410000000  0.5230020000000  0.4988310000000 1.0
C      1  0.5634550000000  0.5612130000000  0.4223210000000 1.0
C      1  0.5583090000000  0.4418330000000  0.5771280000000 1.0
C      1  0.4444550000000  0.5540840000000  0.4291810000000 1.0
C      1  0.4353830000000  0.4394180000000  0.5848690000000 1.0
C      1  0.4137100000000  0.5045880000000  0.4782410000000 1.0
C      1  0.4042830000000  0.4902430000000  0.5231010000000 1.0
C      1  0.5870950000000  0.5119890000000  0.4744550000000 1.0
C      1  0.5901630000000  0.4903120000000  0.5209170000000 1.0
C      1  0.5100880000000  0.4933660000000  0.4997230000000 1.0
END
