TITL C-3578199-7832-646 -1.40006480953963e-06 125000 -443.765004357666 0 0 70 (C1) n - 1
REM
REM in /home/bkarasulu/work/CARBON/AIRSS/Generating-Clusters/EDIP-Nigel-Params/with-SteepDescent/Higher-Symm/SD-CG/HFTN-CG
REM
REM
REM
REM
REM
REM ./C.cell (12c818d87b63d06a65506943cc24bca4)
REM
REM compiler GCC version 9.2.1 20190827 (Red Hat 9.2.1-1)
REM options -cpp -mtune=generic -march=x86-64 -g -O0 -fpre-include=/usr/include/finclude/math-vector-fortran.h
REM seed 1913463992 225434616 1104989578 -1262075470 -1695616213 1677404637 -956227249 -1243998361 553271712 1285130441 398548106 -430384838 1886391007 -1964600948 -491584035 -1081020459 -2049099753 303937155 2069814790 1939413882 -715628754 156081160 -592433467 -551542259 35379358 1322895801 1328568486 -1037757130 2112160448 1979296831 1076245129 -1143899929 24563400
REM
CELL 1.54180   50.00000   50.00000   50.00000   90.00000   90.00000   90.00000
LATT -1
SFAC C  
C      1  0.4331880000000  0.5205160000000  0.4739910000000 1.0
C      1  0.4981450000000  0.5712170000000  0.4738270000000 1.0
C      1  0.5707640000000  0.5264940000000  0.4724520000000 1.0
C      1  0.5398150000000  0.4466280000000  0.4673750000000 1.0
C      1  0.4551580000000  0.4399640000000  0.4767800000000 1.0
C      1  0.5298980000000  0.4940790000000  0.4368720000000 1.0
C      1  0.5113700000000  0.4758360000000  0.4202220000000 1.0
C      1  0.4856230000000  0.4917580000000  0.4229350000000 1.0
C      1  0.4921790000000  0.5205720000000  0.4290870000000 1.0
C      1  0.5220340000000  0.5229330000000  0.4323870000000 1.0
C      1  0.5256870000000  0.5410570000000  0.4563790000000 1.0
C      1  0.5591370000000  0.4886320000000  0.4421830000000 1.0
C      1  0.5077920000000  0.4514150000000  0.4368940000000 1.0
C      1  0.4460940000000  0.4764860000000  0.4530610000000 1.0
C      1  0.4682860000000  0.5376340000000  0.4532350000000 1.0
C      1  0.5057660000000  0.5509950000000  0.5639790000000 1.0
C      1  0.5488530000000  0.5088850000000  0.5590660000000 1.0
C      1  0.5247550000000  0.4549600000000  0.5596510000000 1.0
C      1  0.4650740000000  0.4616440000000  0.5638570000000 1.0
C      1  0.4528740000000  0.5215560000000  0.5659470000000 1.0
C      1  0.4401230000000  0.5327550000000  0.4494050000000 1.0
C      1  0.5119680000000  0.5658540000000  0.4503250000000 1.0
C      1  0.5737080000000  0.5112100000000  0.4490150000000 1.0
C      1  0.5302210000000  0.4359150000000  0.4431170000000 1.0
C      1  0.4411140000000  0.4488660000000  0.4542600000000 1.0
C      1  0.4838200000000  0.4802040000000  0.5773540000000 1.0
C      1  0.4771080000000  0.5092140000000  0.5780680000000 1.0
C      1  0.5024620000000  0.5241970000000  0.5764510000000 1.0
C      1  0.5245750000000  0.5046530000000  0.5749080000000 1.0
C      1  0.5132280000000  0.4775460000000  0.5750950000000 1.0
C      1  0.5179050000000  0.5149850000000  0.5053480000000 1.0
C      1  0.5171360000000  0.4871930000000  0.5137760000000 1.0
C      1  0.4902090000000  0.4801110000000  0.5173430000000 1.0
C      1  0.4754750000000  0.5036780000000  0.5194710000000 1.0
C      1  0.4940160000000  0.5249720000000  0.5180330000000 1.0
C      1  0.4311060000000  0.4910330000000  0.4744750000000 1.0
C      1  0.4708750000000  0.5607570000000  0.4729160000000 1.0
C      1  0.5512480000000  0.5489010000000  0.4708330000000 1.0
C      1  0.5574010000000  0.4710340000000  0.4671920000000 1.0
C      1  0.4828110000000  0.4323850000000  0.4734040000000 1.0
C      1  0.4822230000000  0.5598470000000  0.5474050000000 1.0
C      1  0.5480910000000  0.5333270000000  0.5424810000000 1.0
C      1  0.5475330000000  0.4621960000000  0.5410130000000 1.0
C      1  0.4789610000000  0.4422270000000  0.5449600000000 1.0
C      1  0.4375590000000  0.5024980000000  0.5482770000000 1.0
C      1  0.4796100000000  0.4531410000000  0.5164370000000 1.0
C      1  0.4463590000000  0.5055040000000  0.5189440000000 1.0
C      1  0.4871120000000  0.5530820000000  0.5176480000000 1.0
C      1  0.5442140000000  0.5289250000000  0.5126980000000 1.0
C      1  0.5388950000000  0.4679030000000  0.5118650000000 1.0
C      1  0.4758720000000  0.4856130000000  0.4513490000000 1.0
C      1  0.4813520000000  0.5123820000000  0.4666810000000 1.0
C      1  0.5114480000000  0.5145510000000  0.4749020000000 1.0
C      1  0.5216630000000  0.4867040000000  0.4652020000000 1.0
C      1  0.4975810000000  0.4653810000000  0.4616920000000 1.0
C      1  0.4981320000000  0.4386670000000  0.4967700000000 1.0
C      1  0.4375880000000  0.4812070000000  0.5017940000000 1.0
C      1  0.4613420000000  0.5540860000000  0.5003890000000 1.0
C      1  0.5403190000000  0.5551780000000  0.4983920000000 1.0
C      1  0.5604650000000  0.4823340000000  0.4951250000000 1.0
C      1  0.5612790000000  0.4849940000000  0.5505170000000 1.0
C      1  0.5052620000000  0.4356370000000  0.5529690000000 1.0
C      1  0.4414350000000  0.4755180000000  0.5563210000000 1.0
C      1  0.4583310000000  0.5478780000000  0.5568590000000 1.0
C      1  0.5316330000000  0.5535790000000  0.5530430000000 1.0
C      1  0.4411070000000  0.5308960000000  0.5009910000000 1.0
C      1  0.5109200000000  0.5656450000000  0.4999520000000 1.0
C      1  0.5648530000000  0.5120900000000  0.4978260000000 1.0
C      1  0.5271770000000  0.4453090000000  0.4942690000000 1.0
C      1  0.4526860000000  0.4549760000000  0.5022570000000 1.0
END
