TITL C-3578198-8939-444 -2.04812267149605e-06 125000 -997.393460404047 0 0 154 (C1) n - 1
REM
REM in /home/bkarasulu/work/CARBON/AIRSS/Generating-Clusters/EDIP-Nigel-Params/with-SteepDescent/Higher-Symm/SD-CG/HFTN-CG
REM
REM
REM
REM
REM
REM ./C.cell (12c818d87b63d06a65506943cc24bca4)
REM
REM compiler GCC version 9.2.1 20190827 (Red Hat 9.2.1-1)
REM options -cpp -mtune=generic -march=x86-64 -g -O0 -fpre-include=/usr/include/finclude/math-vector-fortran.h
REM seed 1762932216 -762092481 808492835 -171856688 1505393951 -597275481 -510970949 1514098729 1881277547 2141664811 1312849463 -1461102450 189940251 -312661108 -1187332760 -54276154 1280783816 41109676 -992445270 1815065215 -822908828 1847083805 -1834922604 -1172817940 -1670311920 -1664726947 1929147597 1025821430 -1470283562 1962803429 895476669 844975750 55442113
REM
CELL 1.54180   50.00000   50.00000   50.00000   90.00000   90.00000   90.00000
LATT -1
SFAC C  
C      1  0.5157230000000  0.5286910000000  0.3796150000000 1.0
C      1  0.5347620000000  0.5053790000000  0.3783630000000 1.0
C      1  0.5215010000000  0.4794550000000  0.3847240000000 1.0
C      1  0.4969520000000  0.4633400000000  0.3787690000000 1.0
C      1  0.4686850000000  0.4763830000000  0.3771990000000 1.0
C      1  0.4653250000000  0.5068620000000  0.3781670000000 1.0
C      1  0.4878350000000  0.5228340000000  0.3884480000000 1.0
C      1  0.4293940000000  0.5833380000000  0.4649660000000 1.0
C      1  0.5212730000000  0.6051370000000  0.4637270000000 1.0
C      1  0.5953230000000  0.5507140000000  0.4632460000000 1.0
C      1  0.5982010000000  0.4566080000000  0.4638060000000 1.0
C      1  0.5275870000000  0.3959270000000  0.4641170000000 1.0
C      1  0.4356980000000  0.4166410000000  0.4638700000000 1.0
C      1  0.3933380000000  0.4974710000000  0.4626010000000 1.0
C      1  0.4866600000000  0.4617070000000  0.5852050000000 1.0
C      1  0.4527280000000  0.5004550000000  0.5895680000000 1.0
C      1  0.4750870000000  0.5246410000000  0.5687740000000 1.0
C      1  0.5006210000000  0.5355300000000  0.5829950000000 1.0
C      1  0.5287300000000  0.5197230000000  0.5705840000000 1.0
C      1  0.5347640000000  0.4909070000000  0.5839090000000 1.0
C      1  0.5144710000000  0.4647450000000  0.5725100000000 1.0
C      1  0.4438680000000  0.4288950000000  0.5155370000000 1.0
C      1  0.4081120000000  0.5009400000000  0.5142970000000 1.0
C      1  0.4425920000000  0.5747240000000  0.5163810000000 1.0
C      1  0.5209810000000  0.5898470000000  0.5159520000000 1.0
C      1  0.5806320000000  0.5345990000000  0.5150690000000 1.0
C      1  0.5819010000000  0.4578570000000  0.5162110000000 1.0
C      1  0.5193020000000  0.4091540000000  0.5155090000000 1.0
C      1  0.4546180000000  0.5726280000000  0.4577040000000 1.0
C      1  0.5271410000000  0.5788690000000  0.4550980000000 1.0
C      1  0.5797890000000  0.5286850000000  0.4547420000000 1.0
C      1  0.5710340000000  0.4561410000000  0.4560220000000 1.0
C      1  0.5097640000000  0.4164190000000  0.4561570000000 1.0
C      1  0.4422010000000  0.4429830000000  0.4558350000000 1.0
C      1  0.4164950000000  0.5105360000000  0.4530610000000 1.0
C      1  0.5647040000000  0.4867750000000  0.5772460000000 1.0
C      1  0.5311850000000  0.4394820000000  0.5757470000000 1.0
C      1  0.4745170000000  0.4357790000000  0.5780420000000 1.0
C      1  0.4313030000000  0.4822490000000  0.5795040000000 1.0
C      1  0.4466690000000  0.5372250000000  0.5780410000000 1.0
C      1  0.4977670000000  0.5654000000000  0.5772460000000 1.0
C      1  0.5499080000000  0.5413210000000  0.5753480000000 1.0
C      1  0.4337330000000  0.4598060000000  0.5610060000000 1.0
C      1  0.4240430000000  0.5264970000000  0.5617060000000 1.0
C      1  0.4754580000000  0.5734060000000  0.5608450000000 1.0
C      1  0.5435460000000  0.5649970000000  0.5600580000000 1.0
C      1  0.5771480000000  0.5058980000000  0.5594900000000 1.0
C      1  0.5551890000000  0.4412300000000  0.5602660000000 1.0
C      1  0.4904940000000  0.4210610000000  0.5592410000000 1.0
C      1  0.5461760000000  0.4730700000000  0.5107350000000 1.0
C      1  0.5077430000000  0.4460220000000  0.5129210000000 1.0
C      1  0.4667880000000  0.4662250000000  0.5079620000000 1.0
C      1  0.4461430000000  0.5074360000000  0.5086440000000 1.0
C      1  0.4701630000000  0.5478930000000  0.5113470000000 1.0
C      1  0.5156890000000  0.5462520000000  0.5086510000000 1.0
C      1  0.5525640000000  0.5199600000000  0.5111570000000 1.0
C      1  0.4800210000000  0.5453680000000  0.4042840000000 1.0
C      1  0.5263290000000  0.5470530000000  0.4013550000000 1.0
C      1  0.5548580000000  0.5089180000000  0.4013450000000 1.0
C      1  0.5373180000000  0.4658650000000  0.4043380000000 1.0
C      1  0.4959540000000  0.4442660000000  0.4027060000000 1.0
C      1  0.4553590000000  0.4684150000000  0.4027430000000 1.0
C      1  0.4411880000000  0.5120950000000  0.3934710000000 1.0
C      1  0.4506520000000  0.5452060000000  0.4469710000000 1.0
C      1  0.5022320000000  0.5649360000000  0.4461910000000 1.0
C      1  0.5529380000000  0.5378800000000  0.4452610000000 1.0
C      1  0.5627530000000  0.4834220000000  0.4466460000000 1.0
C      1  0.5252440000000  0.4400790000000  0.4467660000000 1.0
C      1  0.4706590000000  0.4445130000000  0.4473290000000 1.0
C      1  0.4370130000000  0.4908750000000  0.4434890000000 1.0
C      1  0.4803840000000  0.5849660000000  0.4521060000000 1.0
C      1  0.5531260000000  0.5671350000000  0.4505200000000 1.0
C      1  0.5866910000000  0.5005900000000  0.4513460000000 1.0
C      1  0.5537690000000  0.4331970000000  0.4517790000000 1.0
C      1  0.4810810000000  0.4167630000000  0.4517700000000 1.0
C      1  0.4241280000000  0.4645870000000  0.4498710000000 1.0
C      1  0.4219040000000  0.5389940000000  0.4509200000000 1.0
C      1  0.4807130000000  0.5956500000000  0.5430520000000 1.0
C      1  0.5633780000000  0.5742510000000  0.5411420000000 1.0
C      1  0.5983150000000  0.4959430000000  0.5425440000000 1.0
C      1  0.5598520000000  0.4193110000000  0.5418680000000 1.0
C      1  0.4758110000000  0.4037380000000  0.5416770000000 1.0
C      1  0.4128010000000  0.4594530000000  0.5408190000000 1.0
C      1  0.4132970000000  0.5443850000000  0.5418680000000 1.0
C      1  0.5405130000000  0.4936550000000  0.4665210000000 1.0
C      1  0.5179970000000  0.4636780000000  0.4660610000000 1.0
C      1  0.4858460000000  0.4631650000000  0.4676980000000 1.0
C      1  0.4619780000000  0.4935470000000  0.4627020000000 1.0
C      1  0.4675120000000  0.5263630000000  0.4652130000000 1.0
C      1  0.4972710000000  0.5409310000000  0.4660630000000 1.0
C      1  0.5318610000000  0.5248990000000  0.4644230000000 1.0
C      1  0.5547850000000  0.4843690000000  0.4176780000000 1.0
C      1  0.5215280000000  0.4458150000000  0.4174350000000 1.0
C      1  0.4736510000000  0.4529380000000  0.4188570000000 1.0
C      1  0.4430870000000  0.4919850000000  0.4136420000000 1.0
C      1  0.4573390000000  0.5442960000000  0.4195260000000 1.0
C      1  0.5031300000000  0.5566050000000  0.4169410000000 1.0
C      1  0.5476650000000  0.5332210000000  0.4158950000000 1.0
C      1  0.4279420000000  0.5495940000000  0.4969630000000 1.0
C      1  0.4945330000000  0.5866880000000  0.4981550000000 1.0
C      1  0.5616340000000  0.5606360000000  0.4955330000000 1.0
C      1  0.5864570000000  0.4869530000000  0.4973830000000 1.0
C      1  0.5440620000000  0.4252640000000  0.4973190000000 1.0
C      1  0.4685160000000  0.4202900000000  0.4978730000000 1.0
C      1  0.4197670000000  0.4743250000000  0.4952370000000 1.0
C      1  0.4697060000000  0.5917670000000  0.5159650000000 1.0
C      1  0.5513260000000  0.5820190000000  0.5146170000000 1.0
C      1  0.5980760000000  0.5084200000000  0.5154090000000 1.0
C      1  0.5684200000000  0.4292580000000  0.5151300000000 1.0
C      1  0.4877800000000  0.4032430000000  0.5146420000000 1.0
C      1  0.4210880000000  0.4496820000000  0.5140030000000 1.0
C      1  0.4102470000000  0.5326230000000  0.5149540000000 1.0
C      1  0.4796190000000  0.5180080000000  0.6242080000000 1.0
C      1  0.5013530000000  0.5311620000000  0.6127270000000 1.0
C      1  0.5260070000000  0.5206830000000  0.6206210000000 1.0
C      1  0.5307220000000  0.4942140000000  0.6132210000000 1.0
C      1  0.5108160000000  0.4773190000000  0.6225020000000 1.0
C      1  0.4850730000000  0.4719100000000  0.6125910000000 1.0
C      1  0.4668100000000  0.4950450000000  0.6147150000000 1.0
C      1  0.4791410000000  0.5292240000000  0.5365490000000 1.0
C      1  0.5074270000000  0.5271760000000  0.5276910000000 1.0
C      1  0.5304740000000  0.5135270000000  0.5385960000000 1.0
C      1  0.5295080000000  0.4843930000000  0.5321530000000 1.0
C      1  0.5068270000000  0.4671830000000  0.5383350000000 1.0
C      1  0.4808410000000  0.4802120000000  0.5284650000000 1.0
C      1  0.4656280000000  0.5044630000000  0.5304930000000 1.0
C      1  0.4614690000000  0.4066990000000  0.4717020000000 1.0
C      1  0.4037610000000  0.4717370000000  0.4697230000000 1.0
C      1  0.4149270000000  0.5592900000000  0.4714240000000 1.0
C      1  0.4939840000000  0.6023040000000  0.4721320000000 1.0
C      1  0.5749480000000  0.5697510000000  0.4700950000000 1.0
C      1  0.6014320000000  0.4841170000000  0.4712840000000 1.0
C      1  0.5507570000000  0.4113180000000  0.4714250000000 1.0
C      1  0.5565260000000  0.4947270000000  0.4942570000000 1.0
C      1  0.5301760000000  0.4531450000000  0.4946400000000 1.0
C      1  0.4830030000000  0.4474700000000  0.4949210000000 1.0
C      1  0.4494800000000  0.4835350000000  0.4911870000000 1.0
C      1  0.4527520000000  0.5321070000000  0.4933230000000 1.0
C      1  0.4937720000000  0.5562480000000  0.4940600000000 1.0
C      1  0.5389560000000  0.5389500000000  0.4927690000000 1.0
C      1  0.5822070000000  0.5508500000000  0.5408050000000 1.0
C      1  0.5932470000000  0.4665140000000  0.5427000000000 1.0
C      1  0.5334960000000  0.4048490000000  0.5417670000000 1.0
C      1  0.4486770000000  0.4162780000000  0.5419190000000 1.0
C      1  0.4022930000000  0.4872020000000  0.5404900000000 1.0
C      1  0.4302250000000  0.5687880000000  0.5433170000000 1.0
C      1  0.5104890000000  0.5975320000000  0.5426800000000 1.0
C      1  0.5180010000000  0.4157010000000  0.5648610000000 1.0
C      1  0.4476490000000  0.4348300000000  0.5657450000000 1.0
C      1  0.4133500000000  0.4999150000000  0.5648400000000 1.0
C      1  0.4486160000000  0.5651700000000  0.5663730000000 1.0
C      1  0.5197050000000  0.5799850000000  0.5649670000000 1.0
C      1  0.5758080000000  0.5339110000000  0.5644530000000 1.0
C      1  0.5745430000000  0.4617320000000  0.5653110000000 1.0
END
