TITL C-3578201-9217-624 -1.27074653171533e-06 125000 -819.178431485467 0 0 132 (C1) n - 1
REM
REM in /home/bkarasulu/work/CARBON/AIRSS/Generating-Clusters/EDIP-Nigel-Params/with-SteepDescent/Higher-Symm/SD-CG/HFTN-CG
REM
REM
REM
REM
REM
REM ./C.cell (12c818d87b63d06a65506943cc24bca4)
REM
REM compiler GCC version 9.2.1 20190827 (Red Hat 9.2.1-1)
REM options -cpp -mtune=generic -march=x86-64 -g -O0 -fpre-include=/usr/include/finclude/math-vector-fortran.h
REM seed -303777355 1473305159 -738643997 554734307 -1395140554 -742731911 254438853 2005225684 528037891 854115009 1706551463 1605571130 1834292572 -2078151294 -1331846055 1879481881 -1345874314 755595209 695597553 705746740 -1389378787 -1715448003 1067186688 -1435595241 -1312765052 -321029477 -603382989 -2141173714 -1635369627 -1778675769 -487131431 433693397 1961941698
REM
CELL 1.54180   50.00000   50.00000   50.00000   90.00000   90.00000   90.00000
LATT -1
SFAC C  
C      1  0.4975020000000  0.4667970000000  0.5232840000000 1.0
C      1  0.4501790000000  0.5038190000000  0.5886620000000 1.0
C      1  0.4363960000000  0.5899390000000  0.4784090000000 1.0
C      1  0.4783920000000  0.5538580000000  0.5481190000000 1.0
C      1  0.4012450000000  0.5256330000000  0.5008090000000 1.0
C      1  0.5149000000000  0.4865920000000  0.4559590000000 1.0
C      1  0.5171640000000  0.5279690000000  0.4399520000000 1.0
C      1  0.5703680000000  0.5550900000000  0.4323670000000 1.0
C      1  0.5675570000000  0.4417080000000  0.4687280000000 1.0
C      1  0.4431970000000  0.5373840000000  0.4917040000000 1.0
C      1  0.5424030000000  0.5194440000000  0.4042200000000 1.0
C      1  0.5534470000000  0.5538030000000  0.5131430000000 1.0
C      1  0.5253350000000  0.4588440000000  0.5217790000000 1.0
C      1  0.5675270000000  0.4455670000000  0.5541720000000 1.0
C      1  0.4127270000000  0.5509530000000  0.5101550000000 1.0
C      1  0.5032470000000  0.5790660000000  0.5090070000000 1.0
C      1  0.4483020000000  0.4906160000000  0.4799000000000 1.0
C      1  0.5810970000000  0.5289700000000  0.4333460000000 1.0
C      1  0.5250560000000  0.5135190000000  0.5433670000000 1.0
C      1  0.4656000000000  0.4604920000000  0.4843140000000 1.0
C      1  0.5511980000000  0.4782140000000  0.4876270000000 1.0
C      1  0.5672280000000  0.5647680000000  0.4784270000000 1.0
C      1  0.5599190000000  0.4246310000000  0.5344320000000 1.0
C      1  0.5444700000000  0.4726590000000  0.4049180000000 1.0
C      1  0.4721750000000  0.5233770000000  0.5948010000000 1.0
C      1  0.5482410000000  0.5631250000000  0.5408730000000 1.0
C      1  0.4968380000000  0.5550710000000  0.4113800000000 1.0
C      1  0.4823510000000  0.4136840000000  0.4810780000000 1.0
C      1  0.5436470000000  0.4488200000000  0.5730100000000 1.0
C      1  0.5648330000000  0.4787020000000  0.4250690000000 1.0
C      1  0.4837480000000  0.5364410000000  0.5229800000000 1.0
C      1  0.4932140000000  0.5977320000000  0.4885540000000 1.0
C      1  0.4969570000000  0.4486700000000  0.4828850000000 1.0
C      1  0.4601960000000  0.4860890000000  0.5418630000000 1.0
C      1  0.5536130000000  0.4990490000000  0.5762450000000 1.0
C      1  0.4244030000000  0.4793760000000  0.4419380000000 1.0
C      1  0.4705380000000  0.5067360000000  0.5210040000000 1.0
C      1  0.5795380000000  0.4919560000000  0.5624380000000 1.0
C      1  0.4430120000000  0.4674610000000  0.5247620000000 1.0
C      1  0.4542280000000  0.5784180000000  0.5172930000000 1.0
C      1  0.5693910000000  0.5349920000000  0.4763650000000 1.0
C      1  0.4205170000000  0.5428420000000  0.4610440000000 1.0
C      1  0.4038400000000  0.4707190000000  0.4878010000000 1.0
C      1  0.4818990000000  0.4207250000000  0.5737470000000 1.0
C      1  0.5425920000000  0.4830650000000  0.5321010000000 1.0
C      1  0.5285140000000  0.4578060000000  0.4930930000000 1.0
C      1  0.5839220000000  0.5364300000000  0.5400510000000 1.0
C      1  0.4700510000000  0.4290530000000  0.5262490000000 1.0
C      1  0.5950420000000  0.4909460000000  0.5170360000000 1.0
C      1  0.4585060000000  0.5733340000000  0.4711230000000 1.0
C      1  0.4997780000000  0.5077730000000  0.5576180000000 1.0
C      1  0.4338210000000  0.4271780000000  0.4926960000000 1.0
C      1  0.4755040000000  0.5341570000000  0.4123550000000 1.0
C      1  0.5289660000000  0.5869390000000  0.4982510000000 1.0
C      1  0.5398050000000  0.5725940000000  0.4759040000000 1.0
C      1  0.4664860000000  0.5570590000000  0.4979210000000 1.0
C      1  0.5337660000000  0.4077120000000  0.4901670000000 1.0
C      1  0.5025050000000  0.4819240000000  0.5727940000000 1.0
C      1  0.5936040000000  0.5094640000000  0.5408690000000 1.0
C      1  0.4626190000000  0.5331300000000  0.4543030000000 1.0
C      1  0.4819650000000  0.5889800000000  0.4629460000000 1.0
C      1  0.5074920000000  0.4138060000000  0.5777030000000 1.0
C      1  0.4231620000000  0.4715760000000  0.5641360000000 1.0
C      1  0.4387830000000  0.4982520000000  0.5609070000000 1.0
C      1  0.4547730000000  0.4452950000000  0.4573250000000 1.0
C      1  0.4156420000000  0.5054010000000  0.5179750000000 1.0
C      1  0.5159830000000  0.5368530000000  0.5249090000000 1.0
C      1  0.5336040000000  0.4765760000000  0.5748770000000 1.0
C      1  0.5833010000000  0.4559430000000  0.4878840000000 1.0
C      1  0.4843230000000  0.4667130000000  0.5504920000000 1.0
C      1  0.5843940000000  0.4939430000000  0.4651600000000 1.0
C      1  0.5258930000000  0.5344370000000  0.4932040000000 1.0
C      1  0.4582960000000  0.4763790000000  0.5971300000000 1.0
C      1  0.5065330000000  0.4573840000000  0.4553730000000 1.0
C      1  0.4008840000000  0.4780630000000  0.5175870000000 1.0
C      1  0.5221270000000  0.5655630000000  0.5506830000000 1.0
C      1  0.4170420000000  0.4609860000000  0.5365350000000 1.0
C      1  0.5258130000000  0.4950440000000  0.4026210000000 1.0
C      1  0.4913770000000  0.5321300000000  0.5724830000000 1.0
C      1  0.4911010000000  0.4479600000000  0.4208290000000 1.0
C      1  0.5259720000000  0.5440610000000  0.4155260000000 1.0
C      1  0.4260330000000  0.4507280000000  0.4512620000000 1.0
C      1  0.5627570000000  0.5449840000000  0.5572950000000 1.0
C      1  0.5441920000000  0.5643130000000  0.4274420000000 1.0
C      1  0.4296850000000  0.5447520000000  0.5333050000000 1.0
C      1  0.5706090000000  0.4724770000000  0.5408880000000 1.0
C      1  0.5416560000000  0.5248780000000  0.5667950000000 1.0
C      1  0.4528450000000  0.4454790000000  0.5080200000000 1.0
C      1  0.5599530000000  0.4178890000000  0.4856860000000 1.0
C      1  0.5290840000000  0.5767180000000  0.4492190000000 1.0
C      1  0.4499740000000  0.5638100000000  0.5427710000000 1.0
C      1  0.4992170000000  0.5012210000000  0.4805110000000 1.0
C      1  0.4345960000000  0.5546140000000  0.4391570000000 1.0
C      1  0.4458350000000  0.5091040000000  0.5032050000000 1.0
C      1  0.5619210000000  0.5089520000000  0.4241760000000 1.0
C      1  0.4685000000000  0.4593790000000  0.4343490000000 1.0
C      1  0.5080930000000  0.5008210000000  0.4272600000000 1.0
C      1  0.4189340000000  0.4905980000000  0.4700710000000 1.0
C      1  0.5305770000000  0.4297880000000  0.5329380000000 1.0
C      1  0.4800100000000  0.5050760000000  0.4170820000000 1.0
C      1  0.5195030000000  0.5359240000000  0.5855810000000 1.0
C      1  0.4618070000000  0.5032180000000  0.4571830000000 1.0
C      1  0.4571400000000  0.4877270000000  0.4315820000000 1.0
C      1  0.5230150000000  0.4310360000000  0.5618860000000 1.0
C      1  0.4550190000000  0.4172020000000  0.4712810000000 1.0
C      1  0.5458010000000  0.4927360000000  0.4617560000000 1.0
C      1  0.4483790000000  0.5410770000000  0.4186850000000 1.0
C      1  0.5418240000000  0.5239050000000  0.4658140000000 1.0
C      1  0.5905220000000  0.5215520000000  0.4599560000000 1.0
C      1  0.4916070000000  0.5095170000000  0.6129190000000 1.0
C      1  0.4127550000000  0.4437040000000  0.4775590000000 1.0
C      1  0.5582100000000  0.4546660000000  0.4430380000000 1.0
C      1  0.4880770000000  0.4821400000000  0.6001310000000 1.0
C      1  0.4074780000000  0.5193350000000  0.4725860000000 1.0
C      1  0.4996720000000  0.5714760000000  0.4450430000000 1.0
C      1  0.5675910000000  0.5238960000000  0.5076190000000 1.0
C      1  0.4315020000000  0.5910700000000  0.5054400000000 1.0
C      1  0.4692150000000  0.4395700000000  0.5565280000000 1.0
C      1  0.5170940000000  0.5217910000000  0.6099420000000 1.0
C      1  0.5139380000000  0.4360310000000  0.4341490000000 1.0
C      1  0.4901870000000  0.4900350000000  0.5066190000000 1.0
C      1  0.4989170000000  0.5753510000000  0.5381990000000 1.0
C      1  0.4984330000000  0.5312670000000  0.4816250000000 1.0
C      1  0.4459580000000  0.4563530000000  0.5774070000000 1.0
C      1  0.4891740000000  0.4141860000000  0.5090230000000 1.0
C      1  0.4935000000000  0.5418440000000  0.4545270000000 1.0
C      1  0.5483320000000  0.4999630000000  0.5082230000000 1.0
C      1  0.5405910000000  0.4403810000000  0.4250900000000 1.0
C      1  0.4221470000000  0.5182370000000  0.5452530000000 1.0
C      1  0.5736450000000  0.4191640000000  0.5104400000000 1.0
C      1  0.5950600000000  0.4813690000000  0.4890430000000 1.0
C      1  0.5178670000000  0.4104690000000  0.5136950000000 1.0
END
