TITL C-3578201-9217-316 -5.39561816726237e-07 125000 -900.15523959534 0 0 143 (C1) n - 1
REM
REM in /home/bkarasulu/work/CARBON/AIRSS/Generating-Clusters/EDIP-Nigel-Params/with-SteepDescent/Higher-Symm/SD-CG/HFTN-CG
REM
REM
REM
REM
REM
REM ./C.cell (12c818d87b63d06a65506943cc24bca4)
REM
REM compiler GCC version 9.2.1 20190827 (Red Hat 9.2.1-1)
REM options -cpp -mtune=generic -march=x86-64 -g -O0 -fpre-include=/usr/include/finclude/math-vector-fortran.h
REM seed -1167763663 1061974685 -2025326274 1969859207 -1316834282 -1818627365 -422966704 -1186572509 129854008 186294650 260991067 -346806542 1149272149 660106734 1906829217 -1975224217 -1692688827 1848808305 -1619893787 878012561 -347604943 1584565952 302545080 -2053356287 171788427 840179408 1290181035 1271362563 726076285 -1314390839 472054710 -1620018621 -2095014949
REM
CELL 1.54180   50.00000   50.00000   50.00000   90.00000   90.00000   90.00000
LATT -1
SFAC C  
C      1  0.5933070000000  0.4670440000000  0.4902190000000 1.0
C      1  0.4372160000000  0.4372510000000  0.5538960000000 1.0
C      1  0.5346400000000  0.4157440000000  0.5447150000000 1.0
C      1  0.4323720000000  0.4951790000000  0.4416410000000 1.0
C      1  0.4952200000000  0.4790770000000  0.4197460000000 1.0
C      1  0.5150930000000  0.4460320000000  0.5734540000000 1.0
C      1  0.4445120000000  0.4620500000000  0.4955610000000 1.0
C      1  0.5096320000000  0.6030180000000  0.5038470000000 1.0
C      1  0.4611370000000  0.4489040000000  0.5183360000000 1.0
C      1  0.5213150000000  0.5217870000000  0.4121630000000 1.0
C      1  0.4909720000000  0.5279830000000  0.4138700000000 1.0
C      1  0.4199470000000  0.5135600000000  0.5347140000000 1.0
C      1  0.5116430000000  0.5889390000000  0.4529210000000 1.0
C      1  0.4597680000000  0.5819250000000  0.4510430000000 1.0
C      1  0.5139260000000  0.4506420000000  0.4509530000000 1.0
C      1  0.5439060000000  0.5849320000000  0.5372030000000 1.0
C      1  0.5681260000000  0.5145800000000  0.4554100000000 1.0
C      1  0.4105880000000  0.5112060000000  0.4812240000000 1.0
C      1  0.4332120000000  0.4155090000000  0.5002480000000 1.0
C      1  0.4526080000000  0.5215470000000  0.5832600000000 1.0
C      1  0.4675210000000  0.3932780000000  0.4834870000000 1.0
C      1  0.5270260000000  0.4003600000000  0.5014310000000 1.0
C      1  0.4816350000000  0.5989100000000  0.4925970000000 1.0
C      1  0.5577190000000  0.5852080000000  0.4854880000000 1.0
C      1  0.4408690000000  0.5504470000000  0.4207660000000 1.0
C      1  0.4361900000000  0.5727020000000  0.4956170000000 1.0
C      1  0.5326110000000  0.5681420000000  0.5827600000000 1.0
C      1  0.4910430000000  0.4845740000000  0.5889490000000 1.0
C      1  0.4099740000000  0.5251240000000  0.5080870000000 1.0
C      1  0.4394690000000  0.4372720000000  0.4798440000000 1.0
C      1  0.5253230000000  0.5134290000000  0.6044110000000 1.0
C      1  0.4778410000000  0.5308280000000  0.5945900000000 1.0
C      1  0.4975530000000  0.5900480000000  0.5536960000000 1.0
C      1  0.4884970000000  0.4333910000000  0.5099580000000 1.0
C      1  0.5755710000000  0.4485430000000  0.4361310000000 1.0
C      1  0.4189110000000  0.4609330000000  0.5487630000000 1.0
C      1  0.5959490000000  0.5130180000000  0.4662420000000 1.0
C      1  0.5678020000000  0.4293030000000  0.5054590000000 1.0
C      1  0.4555670000000  0.5951160000000  0.5067100000000 1.0
C      1  0.4992610000000  0.5500770000000  0.4751140000000 1.0
C      1  0.5620050000000  0.4942790000000  0.5778330000000 1.0
C      1  0.5876250000000  0.5517660000000  0.4858440000000 1.0
C      1  0.5459750000000  0.5648190000000  0.5581630000000 1.0
C      1  0.5739200000000  0.4230690000000  0.4772300000000 1.0
C      1  0.5150430000000  0.4753360000000  0.5753910000000 1.0
C      1  0.5276570000000  0.4455180000000  0.4244950000000 1.0
C      1  0.4975530000000  0.5103240000000  0.6004110000000 1.0
C      1  0.4025500000000  0.4578230000000  0.5260150000000 1.0
C      1  0.5144960000000  0.5686990000000  0.4306100000000 1.0
C      1  0.5386520000000  0.4416650000000  0.5566670000000 1.0
C      1  0.4726750000000  0.5596520000000  0.5278910000000 1.0
C      1  0.5021820000000  0.3990130000000  0.5174120000000 1.0
C      1  0.5843300000000  0.4483120000000  0.4657980000000 1.0
C      1  0.5791980000000  0.5519450000000  0.5247620000000 1.0
C      1  0.5214600000000  0.5032850000000  0.4647930000000 1.0
C      1  0.5642850000000  0.5785610000000  0.5157150000000 1.0
C      1  0.4445250000000  0.4935080000000  0.5769360000000 1.0
C      1  0.4572240000000  0.5690610000000  0.5732650000000 1.0
C      1  0.5270150000000  0.4464750000000  0.4773610000000 1.0
C      1  0.4402330000000  0.5668270000000  0.4659870000000 1.0
C      1  0.5817600000000  0.5163440000000  0.5098400000000 1.0
C      1  0.4052890000000  0.5538550000000  0.5072170000000 1.0
C      1  0.5532840000000  0.4285510000000  0.4329750000000 1.0
C      1  0.5343410000000  0.5074180000000  0.4923190000000 1.0
C      1  0.4478660000000  0.5498980000000  0.5150730000000 1.0
C      1  0.4404170000000  0.5440890000000  0.5702050000000 1.0
C      1  0.4894020000000  0.5588010000000  0.4172430000000 1.0
C      1  0.4904420000000  0.4668290000000  0.4486760000000 1.0
C      1  0.4152430000000  0.5618880000000  0.5324030000000 1.0
C      1  0.5519710000000  0.4886550000000  0.4530880000000 1.0
C      1  0.4348590000000  0.4869790000000  0.5486960000000 1.0
C      1  0.6078450000000  0.5380910000000  0.4714060000000 1.0
C      1  0.5056770000000  0.5721230000000  0.5756930000000 1.0
C      1  0.4816120000000  0.5602990000000  0.5890860000000 1.0
C      1  0.4457730000000  0.4241570000000  0.5272510000000 1.0
C      1  0.4880710000000  0.5369900000000  0.5380840000000 1.0
C      1  0.5722750000000  0.4689850000000  0.5648170000000 1.0
C      1  0.5171870000000  0.5322540000000  0.5292620000000 1.0
C      1  0.4920090000000  0.4333610000000  0.5608920000000 1.0
C      1  0.5395910000000  0.4719330000000  0.4142130000000 1.0
C      1  0.4965370000000  0.4118180000000  0.4623110000000 1.0
C      1  0.5273650000000  0.5891720000000  0.4816580000000 1.0
C      1  0.4484960000000  0.4848230000000  0.4187940000000 1.0
C      1  0.4743950000000  0.5081630000000  0.4698160000000 1.0
C      1  0.5317610000000  0.4655760000000  0.5268290000000 1.0
C      1  0.5053750000000  0.4113450000000  0.5440200000000 1.0
C      1  0.5834020000000  0.4536490000000  0.5149540000000 1.0
C      1  0.4948590000000  0.4870290000000  0.4714420000000 1.0
C      1  0.5102800000000  0.5161650000000  0.5061960000000 1.0
C      1  0.4215380000000  0.5394960000000  0.5486470000000 1.0
C      1  0.4309030000000  0.5466730000000  0.4469610000000 1.0
C      1  0.4642210000000  0.4453450000000  0.5694810000000 1.0
C      1  0.4463410000000  0.4958570000000  0.4835980000000 1.0
C      1  0.5561520000000  0.5301010000000  0.4946940000000 1.0
C      1  0.5523540000000  0.4123320000000  0.4589760000000 1.0
C      1  0.5357240000000  0.5460600000000  0.4277220000000 1.0
C      1  0.4987710000000  0.4539720000000  0.4032970000000 1.0
C      1  0.5215270000000  0.4936750000000  0.4212750000000 1.0
C      1  0.5679700000000  0.5631170000000  0.4678960000000 1.0
C      1  0.4496170000000  0.4546240000000  0.4191570000000 1.0
C      1  0.5262510000000  0.4147710000000  0.4745340000000 1.0
C      1  0.5626000000000  0.4439960000000  0.5728320000000 1.0
C      1  0.4622950000000  0.5688430000000  0.4247030000000 1.0
C      1  0.5520510000000  0.4665430000000  0.4770550000000 1.0
C      1  0.5158010000000  0.4856820000000  0.5454310000000 1.0
C      1  0.4931920000000  0.4762030000000  0.4996840000000 1.0
C      1  0.5542520000000  0.5410650000000  0.4525640000000 1.0
C      1  0.4867820000000  0.4865790000000  0.5292040000000 1.0
C      1  0.5668330000000  0.5449020000000  0.5521020000000 1.0
C      1  0.4647910000000  0.4731340000000  0.5835540000000 1.0
C      1  0.4237330000000  0.5197850000000  0.4551000000000 1.0
C      1  0.5204760000000  0.5620790000000  0.4908890000000 1.0
C      1  0.5753250000000  0.5013720000000  0.5340230000000 1.0
C      1  0.4409640000000  0.3899840000000  0.4908840000000 1.0
C      1  0.4053820000000  0.4815210000000  0.4812500000000 1.0
C      1  0.4538440000000  0.5197550000000  0.5074750000000 1.0
C      1  0.4734630000000  0.4972540000000  0.4093000000000 1.0
C      1  0.5108770000000  0.4537140000000  0.5037010000000 1.0
C      1  0.4173700000000  0.4703570000000  0.5055280000000 1.0
C      1  0.5645350000000  0.4748600000000  0.4283810000000 1.0
C      1  0.5112160000000  0.5310640000000  0.4536650000000 1.0
C      1  0.4740120000000  0.4384750000000  0.4065570000000 1.0
C      1  0.5586900000000  0.5149500000000  0.5542460000000 1.0
C      1  0.4835640000000  0.5232320000000  0.4434630000000 1.0
C      1  0.5382200000000  0.5499640000000  0.5114900000000 1.0
C      1  0.4635230000000  0.4703230000000  0.5396510000000 1.0
C      1  0.5297350000000  0.5123280000000  0.5461340000000 1.0
C      1  0.5742010000000  0.4726840000000  0.5361520000000 1.0
C      1  0.4729250000000  0.5127240000000  0.5300790000000 1.0
C      1  0.4866150000000  0.5278790000000  0.4910960000000 1.0
C      1  0.5469700000000  0.4125820000000  0.5183970000000 1.0
C      1  0.4539300000000  0.6028040000000  0.5339560000000 1.0
C      1  0.5362780000000  0.4899550000000  0.5922660000000 1.0
C      1  0.4700740000000  0.4432010000000  0.4498810000000 1.0
C      1  0.5970480000000  0.4971120000000  0.4908810000000 1.0
C      1  0.4844800000000  0.5849700000000  0.4663710000000 1.0
C      1  0.5462620000000  0.4815130000000  0.5030170000000 1.0
C      1  0.5164210000000  0.5928270000000  0.5311860000000 1.0
C      1  0.4692760000000  0.5819370000000  0.5472060000000 1.0
C      1  0.4202800000000  0.4732820000000  0.4561100000000 1.0
C      1  0.4313140000000  0.4458370000000  0.4518760000000 1.0
C      1  0.4792040000000  0.4187060000000  0.4847240000000 1.0
C      1  0.4783700000000  0.4212080000000  0.4301340000000 1.0
END
