TITL C-3578195-8548-713 -1.78993860089908e-06 125000 -836.280314908146 0 0 131 (C1) n - 1
REM
REM in /home/bkarasulu/work/CARBON/AIRSS/Generating-Clusters/EDIP-Nigel-Params/with-SteepDescent/Higher-Symm/SD-CG/HFTN-CG
REM
REM
REM
REM
REM
REM ./C.cell (12c818d87b63d06a65506943cc24bca4)
REM
REM compiler GCC version 9.2.1 20190827 (Red Hat 9.2.1-1)
REM options -cpp -mtune=generic -march=x86-64 -g -O0 -fpre-include=/usr/include/finclude/math-vector-fortran.h
REM seed 1852924800 -1820257186 -1093639030 816191644 1489350676 1886057751 -571435277 -1738664144 1536606260 -1350079149 2139219538 467677910 -802878013 -1890071245 -1960574909 -170424252 1247633849 -740060202 665083552 1437055418 -1792240944 -337850428 558686746 -1726524030 -1552946681 -1954904923 -195737320 -932899015 -1594992311 -2013162351 -1245499316 662377566 796486566
REM
CELL 1.54180   50.00000   50.00000   50.00000   90.00000   90.00000   90.00000
LATT -1
SFAC C  
C      1  0.5509610000000  0.5074330000000  0.4683640000000 1.0
C      1  0.5070910000000  0.4688990000000  0.5488180000000 1.0
C      1  0.4677040000000  0.5518160000000  0.5076730000000 1.0
C      1  0.5475310000000  0.4896160000000  0.5259670000000 1.0
C      1  0.4461460000000  0.5088740000000  0.5291580000000 1.0
C      1  0.4497670000000  0.4914030000000  0.4688470000000 1.0
C      1  0.5081260000000  0.5267580000000  0.4492880000000 1.0
C      1  0.4917110000000  0.4689320000000  0.4434320000000 1.0
C      1  0.4903900000000  0.5298470000000  0.5492420000000 1.0
C      1  0.4723460000000  0.4505850000000  0.4892740000000 1.0
C      1  0.5276210000000  0.5501970000000  0.4895270000000 1.0
C      1  0.5304910000000  0.4446370000000  0.5072350000000 1.0
C      1  0.4994140000000  0.4295610000000  0.5670190000000 1.0
C      1  0.4272650000000  0.5673830000000  0.5003090000000 1.0
C      1  0.5673850000000  0.4985320000000  0.4290940000000 1.0
C      1  0.4989980000000  0.5722390000000  0.4316240000000 1.0
C      1  0.4998810000000  0.4272970000000  0.4324260000000 1.0
C      1  0.4988230000000  0.5692210000000  0.5669270000000 1.0
C      1  0.4280260000000  0.4321000000000  0.4995080000000 1.0
C      1  0.5703860000000  0.5682450000000  0.4997100000000 1.0
C      1  0.5706070000000  0.4280220000000  0.4998920000000 1.0
C      1  0.5696510000000  0.4994870000000  0.5683780000000 1.0
C      1  0.4296220000000  0.4991570000000  0.5693760000000 1.0
C      1  0.4341840000000  0.4989490000000  0.4283880000000 1.0
C      1  0.5430780000000  0.4208550000000  0.5419710000000 1.0
C      1  0.4202430000000  0.5411740000000  0.5431600000000 1.0
C      1  0.5396790000000  0.5417240000000  0.4233600000000 1.0
C      1  0.5411110000000  0.5777630000000  0.4590470000000 1.0
C      1  0.4579310000000  0.4223850000000  0.4592970000000 1.0
C      1  0.4553460000000  0.5767430000000  0.5417130000000 1.0
C      1  0.4229220000000  0.4590350000000  0.4572760000000 1.0
C      1  0.5770610000000  0.5409130000000  0.4574360000000 1.0
C      1  0.5755370000000  0.4587370000000  0.5388630000000 1.0
C      1  0.5403450000000  0.4588360000000  0.5751980000000 1.0
C      1  0.4580920000000  0.5402440000000  0.5767160000000 1.0
C      1  0.4576230000000  0.4541320000000  0.4202010000000 1.0
C      1  0.5194590000000  0.4966220000000  0.4081630000000 1.0
C      1  0.5039170000000  0.3956820000000  0.5279660000000 1.0
C      1  0.3952060000000  0.5277190000000  0.5040150000000 1.0
C      1  0.5273320000000  0.5062510000000  0.5941770000000 1.0
C      1  0.4720580000000  0.4919170000000  0.5949690000000 1.0
C      1  0.4720470000000  0.4937630000000  0.3944540000000 1.0
C      1  0.4924430000000  0.5888480000000  0.4789900000000 1.0
C      1  0.5047390000000  0.4089480000000  0.4786590000000 1.0
C      1  0.4936770000000  0.6028820000000  0.5282980000000 1.0
C      1  0.4103000000000  0.4790960000000  0.5046720000000 1.0
C      1  0.5955200000000  0.5246080000000  0.5057290000000 1.0
C      1  0.5996140000000  0.4673750000000  0.4940090000000 1.0
C      1  0.5227020000000  0.4931500000000  0.5410870000000 1.0
C      1  0.4928350000000  0.5463100000000  0.5238320000000 1.0
C      1  0.5448770000000  0.5255460000000  0.4919960000000 1.0
C      1  0.5231380000000  0.4998000000000  0.4581590000000 1.0
C      1  0.4734200000000  0.4933540000000  0.4481560000000 1.0
C      1  0.4726620000000  0.5061520000000  0.5432050000000 1.0
C      1  0.4983720000000  0.4590440000000  0.4729400000000 1.0
C      1  0.5030460000000  0.5416130000000  0.4744320000000 1.0
C      1  0.5059790000000  0.4493980000000  0.5248620000000 1.0
C      1  0.5381320000000  0.4743380000000  0.5002610000000 1.0
C      1  0.4513680000000  0.5258410000000  0.5046710000000 1.0
C      1  0.4580470000000  0.4760840000000  0.4937000000000 1.0
C      1  0.4496180000000  0.4190680000000  0.4860160000000 1.0
C      1  0.4177430000000  0.4852630000000  0.4476500000000 1.0
C      1  0.4842370000000  0.4442670000000  0.4147580000000 1.0
C      1  0.4462900000000  0.5830300000000  0.5153460000000 1.0
C      1  0.5516330000000  0.4134970000000  0.5156580000000 1.0
C      1  0.5493990000000  0.5821890000000  0.4859050000000 1.0
C      1  0.4144470000000  0.5143120000000  0.5505030000000 1.0
C      1  0.5806050000000  0.4855550000000  0.5458670000000 1.0
C      1  0.5828540000000  0.5145630000000  0.4474940000000 1.0
C      1  0.4846010000000  0.5493240000000  0.5821620000000 1.0
C      1  0.5140220000000  0.4498330000000  0.5817460000000 1.0
C      1  0.5131230000000  0.5506100000000  0.4189300000000 1.0
C      1  0.5660190000000  0.5283610000000  0.5638510000000 1.0
C      1  0.5285130000000  0.5640200000000  0.5638340000000 1.0
C      1  0.5656400000000  0.5638900000000  0.5287480000000 1.0
C      1  0.5662160000000  0.4687730000000  0.4360220000000 1.0
C      1  0.4359250000000  0.5291970000000  0.4327650000000 1.0
C      1  0.4322290000000  0.4701890000000  0.5649360000000 1.0
C      1  0.5297320000000  0.4312090000000  0.4355410000000 1.0
C      1  0.4694760000000  0.5676320000000  0.4344440000000 1.0
C      1  0.4696670000000  0.4346350000000  0.5639000000000 1.0
C      1  0.5657090000000  0.4321370000000  0.4713370000000 1.0
C      1  0.4325500000000  0.5650520000000  0.4704680000000 1.0
C      1  0.4323690000000  0.4351950000000  0.5288800000000 1.0
C      1  0.4233790000000  0.4621100000000  0.5372750000000 1.0
C      1  0.4629700000000  0.5394400000000  0.4273960000000 1.0
C      1  0.5383900000000  0.4219590000000  0.4623360000000 1.0
C      1  0.4271450000000  0.5374590000000  0.4603450000000 1.0
C      1  0.5756090000000  0.4602080000000  0.4645640000000 1.0
C      1  0.5744180000000  0.5362570000000  0.5358370000000 1.0
C      1  0.4599990000000  0.4622800000000  0.5734060000000 1.0
C      1  0.5381150000000  0.5359610000000  0.5724220000000 1.0
C      1  0.5391220000000  0.4587870000000  0.4297730000000 1.0
C      1  0.5374770000000  0.5699450000000  0.5363270000000 1.0
C      1  0.4606210000000  0.4294780000000  0.5361740000000 1.0
C      1  0.4599860000000  0.5758370000000  0.4616340000000 1.0
C      1  0.5184500000000  0.4361210000000  0.4806120000000 1.0
C      1  0.4395170000000  0.4816060000000  0.5169750000000 1.0
C      1  0.4836130000000  0.5177390000000  0.4327660000000 1.0
C      1  0.5163780000000  0.5639990000000  0.5150320000000 1.0
C      1  0.4818290000000  0.4343850000000  0.5146660000000 1.0
C      1  0.4798410000000  0.5596290000000  0.4805940000000 1.0
C      1  0.4343220000000  0.5161760000000  0.4808650000000 1.0
C      1  0.5608480000000  0.4824580000000  0.4818790000000 1.0
C      1  0.5589870000000  0.5163700000000  0.5161630000000 1.0
C      1  0.4804240000000  0.4814610000000  0.5581910000000 1.0
C      1  0.5167330000000  0.5167710000000  0.5578820000000 1.0
C      1  0.5188980000000  0.4802700000000  0.4334820000000 1.0
C      1  0.5122190000000  0.5855790000000  0.4547870000000 1.0
C      1  0.5838650000000  0.4505620000000  0.5119640000000 1.0
C      1  0.4526090000000  0.5116330000000  0.5826010000000 1.0
C      1  0.5153770000000  0.4125740000000  0.5477900000000 1.0
C      1  0.4824420000000  0.5860830000000  0.5480910000000 1.0
C      1  0.4859970000000  0.4140830000000  0.4547960000000 1.0
C      1  0.5841120000000  0.5456310000000  0.4862610000000 1.0
C      1  0.4144460000000  0.4548090000000  0.4856410000000 1.0
C      1  0.4105700000000  0.5481450000000  0.5161900000000 1.0
C      1  0.4522010000000  0.4819970000000  0.4109610000000 1.0
C      1  0.5439570000000  0.5131040000000  0.4165760000000 1.0
C      1  0.5474240000000  0.4866270000000  0.5829940000000 1.0
C      1  0.4079330000000  0.5061930000000  0.4912580000000 1.0
C      1  0.4911040000000  0.4072460000000  0.5056790000000 1.0
C      1  0.5924340000000  0.4956810000000  0.4978610000000 1.0
C      1  0.5058820000000  0.5906680000000  0.5062040000000 1.0
C      1  0.4929000000000  0.5093390000000  0.4053670000000 1.0
C      1  0.4998180000000  0.4983720000000  0.5927650000000 1.0
C      1  0.4445230000000  0.5528900000000  0.5540980000000 1.0
C      1  0.5533680000000  0.4459710000000  0.5524060000000 1.0
C      1  0.5530970000000  0.5538740000000  0.4461720000000 1.0
C      1  0.4460500000000  0.4451010000000  0.4454620000000 1.0
C      1  0.5134270000000  0.4837440000000  0.4832160000000 1.0
END
