TITL C-3578200-9634-763 1.15333455254534e-06 125000 -460.822704508246 0 0 75 (C1) n - 1
REM
REM in /home/bkarasulu/work/CARBON/AIRSS/Generating-Clusters/EDIP-Nigel-Params/with-SteepDescent/Higher-Symm/SD-CG/HFTN-CG
REM
REM
REM
REM
REM
REM ./C.cell (12c818d87b63d06a65506943cc24bca4)
REM
REM compiler GCC version 9.2.1 20190827 (Red Hat 9.2.1-1)
REM options -cpp -mtune=generic -march=x86-64 -g -O0 -fpre-include=/usr/include/finclude/math-vector-fortran.h
REM seed -1506079833 -1801004092 1931904390 2128997003 1612844788 966469458 -976440645 751365527 1488695008 1350739533 1983688275 713617498 571754424 -532974429 -1140300254 291217530 702070477 -1347046557 -1437693210 1155929376 -1035073310 775768669 -1501167985 910302400 5714833 -2122131234 -273988583 -1505597689 341238618 798233135 1998742795 732754430 1237905318
REM
CELL 1.54180   50.00000   50.00000   50.00000   90.00000   90.00000   90.00000
LATT -1
SFAC C  
C      1  0.4644860000000  0.5630850000000  0.4776770000000 1.0
C      1  0.4844320000000  0.5481300000000  0.4629630000000 1.0
C      1  0.5128970000000  0.5563560000000  0.4687080000000 1.0
C      1  0.5364420000000  0.5496020000000  0.5128380000000 1.0
C      1  0.5273660000000  0.5486850000000  0.5416630000000 1.0
C      1  0.4979820000000  0.5559770000000  0.5417920000000 1.0
C      1  0.4637310000000  0.5656800000000  0.5070810000000 1.0
C      1  0.4779460000000  0.4506740000000  0.4432820000000 1.0
C      1  0.5381240000000  0.4618920000000  0.4415930000000 1.0
C      1  0.5594210000000  0.4543070000000  0.4879170000000 1.0
C      1  0.5456710000000  0.4554320000000  0.5324430000000 1.0
C      1  0.5112350000000  0.4444370000000  0.5640970000000 1.0
C      1  0.4755250000000  0.4577860000000  0.5412920000000 1.0
C      1  0.4489140000000  0.4556880000000  0.4811560000000 1.0
C      1  0.4266530000000  0.5417960000000  0.5591500000000 1.0
C      1  0.4085520000000  0.5106580000000  0.4843130000000 1.0
C      1  0.4657800000000  0.5075220000000  0.4231590000000 1.0
C      1  0.5430290000000  0.5099580000000  0.4211220000000 1.0
C      1  0.5869620000000  0.5306820000000  0.4719330000000 1.0
C      1  0.5705460000000  0.4966800000000  0.5544520000000 1.0
C      1  0.4855560000000  0.5107610000000  0.5877200000000 1.0
C      1  0.5311870000000  0.5304630000000  0.4640450000000 1.0
C      1  0.5458150000000  0.5240540000000  0.4971980000000 1.0
C      1  0.5304070000000  0.5228780000000  0.5535470000000 1.0
C      1  0.4785980000000  0.5311260000000  0.5435110000000 1.0
C      1  0.4546450000000  0.5388470000000  0.5193930000000 1.0
C      1  0.4552470000000  0.5271680000000  0.4872770000000 1.0
C      1  0.5021590000000  0.5174200000000  0.4520800000000 1.0
C      1  0.5004630000000  0.4900490000000  0.5761510000000 1.0
C      1  0.4476780000000  0.4992020000000  0.5453690000000 1.0
C      1  0.4210200000000  0.4949840000000  0.5038020000000 1.0
C      1  0.4562120000000  0.4943230000000  0.4468520000000 1.0
C      1  0.5343580000000  0.4831910000000  0.4187650000000 1.0
C      1  0.5560520000000  0.4935820000000  0.4671600000000 1.0
C      1  0.5788380000000  0.4892780000000  0.5288230000000 1.0
C      1  0.4702490000000  0.5288730000000  0.5729660000000 1.0
C      1  0.4264200000000  0.5375880000000  0.5311510000000 1.0
C      1  0.4291970000000  0.5245380000000  0.4717670000000 1.0
C      1  0.4944760000000  0.5116390000000  0.4227220000000 1.0
C      1  0.5507820000000  0.5286380000000  0.4404720000000 1.0
C      1  0.5759780000000  0.5262930000000  0.4971790000000 1.0
C      1  0.5491940000000  0.5077330000000  0.5690940000000 1.0
C      1  0.5717680000000  0.5146360000000  0.4546940000000 1.0
C      1  0.5899280000000  0.5096550000000  0.5142400000000 1.0
C      1  0.5306070000000  0.4868770000000  0.5793210000000 1.0
C      1  0.4432160000000  0.5202980000000  0.5681810000000 1.0
C      1  0.4238030000000  0.5083600000000  0.5297570000000 1.0
C      1  0.4350600000000  0.5132150000000  0.4462520000000 1.0
C      1  0.5051110000000  0.4848240000000  0.4162550000000 1.0
C      1  0.4964570000000  0.4913910000000  0.4658680000000 1.0
C      1  0.5226680000000  0.4779330000000  0.4785320000000 1.0
C      1  0.5343230000000  0.4935280000000  0.5068120000000 1.0
C      1  0.5192220000000  0.4906800000000  0.5366490000000 1.0
C      1  0.4860400000000  0.5000000000000  0.5360590000000 1.0
C      1  0.4467100000000  0.4786250000000  0.5012580000000 1.0
C      1  0.4674500000000  0.4983940000000  0.4892970000000 1.0
C      1  0.5184530000000  0.4407060000000  0.4674170000000 1.0
C      1  0.5349900000000  0.4372830000000  0.4912720000000 1.0
C      1  0.5251030000000  0.4412100000000  0.5185620000000 1.0
C      1  0.5078530000000  0.4273490000000  0.5390280000000 1.0
C      1  0.4789060000000  0.4297010000000  0.5337380000000 1.0
C      1  0.4714660000000  0.4381490000000  0.4871840000000 1.0
C      1  0.4890410000000  0.4335890000000  0.4646200000000 1.0
C      1  0.4538980000000  0.4652810000000  0.4529250000000 1.0
C      1  0.4995910000000  0.4711620000000  0.4429780000000 1.0
C      1  0.5608270000000  0.4668040000000  0.4605600000000 1.0
C      1  0.5577780000000  0.4741960000000  0.5133310000000 1.0
C      1  0.5327870000000  0.4645710000000  0.5578690000000 1.0
C      1  0.4885190000000  0.4639480000000  0.5670620000000 1.0
C      1  0.4530600000000  0.4727100000000  0.5313360000000 1.0
C      1  0.5005120000000  0.5269010000000  0.5002390000000 1.0
C      1  0.5104350000000  0.5534320000000  0.4988900000000 1.0
C      1  0.4892370000000  0.5032480000000  0.5075440000000 1.0
C      1  0.4917790000000  0.5706780000000  0.5161240000000 1.0
C      1  0.4707400000000  0.4207040000000  0.5086480000000 1.0
END
