TITL C-3577089-586-205 -3.82529849370477e-06 125000 -1231.67939761232 0 0 196 (C1) n - 1
REM
REM in /home/bkarasulu/work/CARBON/AIRSS/Generating-Clusters/EDIP-Nigel-Params/with-SteepDescent/Higher-Symm/SD-CG/HFTN-CG
REM
REM
REM
REM
REM
REM ./C.cell (12c818d87b63d06a65506943cc24bca4)
REM
REM compiler GCC version 9.2.1 20190827 (Red Hat 9.2.1-1)
REM options -cpp -mtune=generic -march=x86-64 -g -O0 -fpre-include=/usr/include/finclude/math-vector-fortran.h
REM seed -505842605 -465442466 -683876948 962125801 -998581127 33387202 -594066142 1144418903 -1041674010 760909136 -1543393427 652829704 1402655784 -534437694 -1828486916 -72429792 1357668774 330265385 -54661020 509417629 513388775 1411591420 -1817465820 -693893694 2083576584 1033210554 2112942073 -1535387857 -717191035 -1431938241 1544593242 214384515 -1585532249
REM
CELL 1.54180   50.00000   50.00000   50.00000   90.00000   90.00000   90.00000
LATT -1
SFAC C  
C      1  0.4495190000000  0.5160090000000  0.4102430000000 1.0
C      1  0.4504570000000  0.5641540000000  0.5530000000000 1.0
C      1  0.4544950000000  0.4272920000000  0.5269270000000 1.0
C      1  0.5431570000000  0.5174370000000  0.4219830000000 1.0
C      1  0.5444540000000  0.5585780000000  0.5563410000000 1.0
C      1  0.5591790000000  0.4160900000000  0.5266040000000 1.0
C      1  0.5575130000000  0.5409590000000  0.4126370000000 1.0
C      1  0.5592970000000  0.5554590000000  0.5812130000000 1.0
C      1  0.5614420000000  0.3979260000000  0.5055980000000 1.0
C      1  0.4311790000000  0.5368140000000  0.4027910000000 1.0
C      1  0.4395220000000  0.5647170000000  0.5794740000000 1.0
C      1  0.4365910000000  0.4058980000000  0.5174220000000 1.0
C      1  0.4846630000000  0.5923350000000  0.5696330000000 1.0
C      1  0.4890500000000  0.3965510000000  0.5462620000000 1.0
C      1  0.4863440000000  0.5124980000000  0.3813170000000 1.0
C      1  0.5123230000000  0.6008780000000  0.5687390000000 1.0
C      1  0.5142140000000  0.3885340000000  0.5554970000000 1.0
C      1  0.5145600000000  0.5075600000000  0.3766120000000 1.0
C      1  0.5223950000000  0.4280680000000  0.5240220000000 1.0
C      1  0.5137800000000  0.5183690000000  0.4138140000000 1.0
C      1  0.5150960000000  0.5628140000000  0.5621080000000 1.0
C      1  0.4898480000000  0.4372950000000  0.5303090000000 1.0
C      1  0.4837250000000  0.5048960000000  0.4236230000000 1.0
C      1  0.4835250000000  0.5601540000000  0.5450890000000 1.0
C      1  0.4388460000000  0.5973770000000  0.4646140000000 1.0
C      1  0.4348120000000  0.4821740000000  0.5981220000000 1.0
C      1  0.4360680000000  0.4228880000000  0.4319540000000 1.0
C      1  0.5701280000000  0.5890310000000  0.4699970000000 1.0
C      1  0.5720400000000  0.4809300000000  0.5932900000000 1.0
C      1  0.5731260000000  0.4290860000000  0.4381940000000 1.0
C      1  0.4677640000000  0.5644830000000  0.4132940000000 1.0
C      1  0.4708210000000  0.5401540000000  0.5993660000000 1.0
C      1  0.4712650000000  0.4016560000000  0.4892300000000 1.0
C      1  0.5218900000000  0.5648830000000  0.4240360000000 1.0
C      1  0.5245980000000  0.5323100000000  0.5975310000000 1.0
C      1  0.5255740000000  0.4039950000000  0.4798660000000 1.0
C      1  0.3982290000000  0.4614410000000  0.5339890000000 1.0
C      1  0.4054800000000  0.4924270000000  0.4449880000000 1.0
C      1  0.4066540000000  0.5477580000000  0.5186840000000 1.0
C      1  0.5990090000000  0.4571960000000  0.5317600000000 1.0
C      1  0.6005470000000  0.4941020000000  0.4502850000000 1.0
C      1  0.6017070000000  0.5476900000000  0.5209180000000 1.0
C      1  0.4486050000000  0.5293620000000  0.4892960000000 1.0
C      1  0.4502450000000  0.4822360000000  0.5219520000000 1.0
C      1  0.4476720000000  0.4751830000000  0.4788830000000 1.0
C      1  0.5558000000000  0.5330480000000  0.4930390000000 1.0
C      1  0.5580720000000  0.4899450000000  0.5326560000000 1.0
C      1  0.5530740000000  0.4759300000000  0.4746320000000 1.0
C      1  0.5656730000000  0.4727870000000  0.4203150000000 1.0
C      1  0.5633970000000  0.5827240000000  0.5167730000000 1.0
C      1  0.5648920000000  0.4417970000000  0.5663260000000 1.0
C      1  0.4370140000000  0.4687560000000  0.4115960000000 1.0
C      1  0.4362570000000  0.5901220000000  0.5144330000000 1.0
C      1  0.4364440000000  0.4436420000000  0.5707660000000 1.0
C      1  0.5135690000000  0.6062300000000  0.4488140000000 1.0
C      1  0.5145310000000  0.4887390000000  0.6189170000000 1.0
C      1  0.5133450000000  0.3976250000000  0.4326150000000 1.0
C      1  0.4699490000000  0.6007760000000  0.4548090000000 1.0
C      1  0.4712400000000  0.4876760000000  0.6108550000000 1.0
C      1  0.4698890000000  0.4044390000000  0.4363460000000 1.0
C      1  0.4704870000000  0.4958140000000  0.4716170000000 1.0
C      1  0.4697880000000  0.5243290000000  0.5107900000000 1.0
C      1  0.4805510000000  0.4826470000000  0.5121700000000 1.0
C      1  0.5286530000000  0.4941560000000  0.4725550000000 1.0
C      1  0.5333230000000  0.5240960000000  0.5112520000000 1.0
C      1  0.5324160000000  0.4839580000000  0.5150230000000 1.0
C      1  0.4498470000000  0.4233330000000  0.5559570000000 1.0
C      1  0.4454910000000  0.4907430000000  0.3954700000000 1.0
C      1  0.4454910000000  0.5909500000000  0.5412230000000 1.0
C      1  0.5524980000000  0.4191140000000  0.5543590000000 1.0
C      1  0.5530070000000  0.4941080000000  0.4057470000000 1.0
C      1  0.5507860000000  0.5842990000000  0.5424100000000 1.0
C      1  0.4468810000000  0.5574060000000  0.4785190000000 1.0
C      1  0.4478810000000  0.4967160000000  0.5581540000000 1.0
C      1  0.4466960000000  0.4522280000000  0.4603760000000 1.0
C      1  0.5445530000000  0.5445250000000  0.4685330000000 1.0
C      1  0.5480360000000  0.5054870000000  0.5562560000000 1.0
C      1  0.5432040000000  0.4479500000000  0.4764410000000 1.0
C      1  0.5931440000000  0.4736180000000  0.4297060000000 1.0
C      1  0.5909790000000  0.5745770000000  0.5126650000000 1.0
C      1  0.5915870000000  0.4504530000000  0.5598740000000 1.0
C      1  0.4128410000000  0.4706390000000  0.4262060000000 1.0
C      1  0.4123580000000  0.5753270000000  0.5095390000000 1.0
C      1  0.4129770000000  0.4572220000000  0.5603800000000 1.0
C      1  0.4118680000000  0.5747300000000  0.4807810000000 1.0
C      1  0.4116800000000  0.4799630000000  0.5776530000000 1.0
C      1  0.4122410000000  0.4449390000000  0.4403550000000 1.0
C      1  0.5961320000000  0.5801410000000  0.4836230000000 1.0
C      1  0.5976350000000  0.4729360000000  0.5786970000000 1.0
C      1  0.5987560000000  0.4457170000000  0.4401780000000 1.0
C      1  0.5193200000000  0.5580170000000  0.4773430000000 1.0
C      1  0.5222880000000  0.4925100000000  0.5639200000000 1.0
C      1  0.5185400000000  0.4471260000000  0.4591090000000 1.0
C      1  0.4716310000000  0.5672340000000  0.4920050000000 1.0
C      1  0.4730040000000  0.4784020000000  0.5596710000000 1.0
C      1  0.4722230000000  0.4545160000000  0.4465840000000 1.0
C      1  0.5129590000000  0.5583110000000  0.5908130000000 1.0
C      1  0.5170830000000  0.4031480000000  0.5074190000000 1.0
C      1  0.5104960000000  0.5459350000000  0.4048760000000 1.0
C      1  0.4853920000000  0.5642800000000  0.5961100000000 1.0
C      1  0.4881180000000  0.4014150000000  0.5146570000000 1.0
C      1  0.4831300000000  0.5475720000000  0.3959470000000 1.0
C      1  0.5392900000000  0.4511310000000  0.5083300000000 1.0
C      1  0.5424040000000  0.5166930000000  0.4538860000000 1.0
C      1  0.5458730000000  0.5320660000000  0.5397340000000 1.0
C      1  0.4420800000000  0.4534440000000  0.5171260000000 1.0
C      1  0.4560040000000  0.5148480000000  0.4482870000000 1.0
C      1  0.4567270000000  0.5274150000000  0.5399770000000 1.0
C      1  0.6060210000000  0.5346400000000  0.4943190000000 1.0
C      1  0.6070510000000  0.4860740000000  0.5336680000000 1.0
C      1  0.6035580000000  0.4778590000000  0.4751670000000 1.0
C      1  0.3990140000000  0.5321630000000  0.4942100000000 1.0
C      1  0.3952140000000  0.4911220000000  0.5351600000000 1.0
C      1  0.3972800000000  0.4775670000000  0.4693200000000 1.0
C      1  0.4062930000000  0.4334320000000  0.4873750000000 1.0
C      1  0.4108910000000  0.5434390000000  0.4487220000000 1.0
C      1  0.4105790000000  0.5264240000000  0.5655900000000 1.0
C      1  0.5885740000000  0.4339390000000  0.4864070000000 1.0
C      1  0.5893230000000  0.5457360000000  0.4502490000000 1.0
C      1  0.5928960000000  0.5196430000000  0.5662290000000 1.0
C      1  0.5844490000000  0.5291280000000  0.5385080000000 1.0
C      1  0.5781560000000  0.4517400000000  0.5088320000000 1.0
C      1  0.5812320000000  0.5171240000000  0.4564770000000 1.0
C      1  0.4237700000000  0.5317380000000  0.5389070000000 1.0
C      1  0.4140850000000  0.4547080000000  0.5085600000000 1.0
C      1  0.4234170000000  0.5163530000000  0.4541150000000 1.0
C      1  0.4822740000000  0.4323890000000  0.4294820000000 1.0
C      1  0.4837890000000  0.5917980000000  0.4819400000000 1.0
C      1  0.4844170000000  0.4715560000000  0.5865280000000 1.0
C      1  0.5128030000000  0.4288810000000  0.4339010000000 1.0
C      1  0.5136070000000  0.5887680000000  0.4746970000000 1.0
C      1  0.5146220000000  0.4776090000000  0.5899130000000 1.0
C      1  0.6073620000000  0.4489940000000  0.4688380000000 1.0
C      1  0.6074380000000  0.5549090000000  0.4721010000000 1.0
C      1  0.6096050000000  0.4950870000000  0.5623880000000 1.0
C      1  0.3949380000000  0.4481940000000  0.4647200000000 1.0
C      1  0.3954440000000  0.5517970000000  0.4720100000000 1.0
C      1  0.3960570000000  0.5009300000000  0.5637410000000 1.0
C      1  0.4808230000000  0.5166710000000  0.6118580000000 1.0
C      1  0.4810000000000  0.3964530000000  0.4631020000000 1.0
C      1  0.4790330000000  0.5831370000000  0.4318180000000 1.0
C      1  0.5094670000000  0.5173120000000  0.6169990000000 1.0
C      1  0.5091380000000  0.3905550000000  0.4605560000000 1.0
C      1  0.5066500000000  0.5886320000000  0.4269900000000 1.0
C      1  0.5811060000000  0.5187840000000  0.4868450000000 1.0
C      1  0.5836290000000  0.5021900000000  0.5243330000000 1.0
C      1  0.5778280000000  0.4780380000000  0.4914840000000 1.0
C      1  0.4224640000000  0.5149980000000  0.4851180000000 1.0
C      1  0.4222300000000  0.5029690000000  0.5278310000000 1.0
C      1  0.4198360000000  0.4827310000000  0.4890150000000 1.0
C      1  0.4436040000000  0.5424850000000  0.5951050000000 1.0
C      1  0.4435320000000  0.4037690000000  0.4910210000000 1.0
C      1  0.4407090000000  0.5590300000000  0.4166080000000 1.0
C      1  0.5537900000000  0.5316490000000  0.5951100000000 1.0
C      1  0.5542080000000  0.4012860000000  0.4785350000000 1.0
C      1  0.5509160000000  0.5646460000000  0.4260050000000 1.0
C      1  0.4751570000000  0.4145500000000  0.5650380000000 1.0
C      1  0.4720690000000  0.4873800000000  0.3849290000000 1.0
C      1  0.4714150000000  0.6025090000000  0.5448390000000 1.0
C      1  0.5264850000000  0.4120240000000  0.5645500000000 1.0
C      1  0.5302310000000  0.4860280000000  0.3885050000000 1.0
C      1  0.5268960000000  0.6013130000000  0.5439780000000 1.0
C      1  0.4849730000000  0.6128150000000  0.5207360000000 1.0
C      1  0.4869150000000  0.4273830000000  0.5883370000000 1.0
C      1  0.4867210000000  0.4629040000000  0.3925520000000 1.0
C      1  0.5143300000000  0.6139130000000  0.5210160000000 1.0
C      1  0.5159230000000  0.4247350000000  0.5887640000000 1.0
C      1  0.5152040000000  0.4630810000000  0.3974620000000 1.0
C      1  0.4291310000000  0.4208230000000  0.4720490000000 1.0
C      1  0.4313190000000  0.5643300000000  0.4434870000000 1.0
C      1  0.4306040000000  0.5189130000000  0.5855280000000 1.0
C      1  0.5652090000000  0.4270370000000  0.4686670000000 1.0
C      1  0.5641600000000  0.5629780000000  0.4530470000000 1.0
C      1  0.5674620000000  0.5091860000000  0.5799970000000 1.0
C      1  0.4855070000000  0.4817600000000  0.4480890000000 1.0
C      1  0.4853590000000  0.5502090000000  0.5130540000000 1.0
C      1  0.4897940000000  0.4683180000000  0.5362680000000 1.0
C      1  0.5129590000000  0.4756080000000  0.4554710000000 1.0
C      1  0.5125660000000  0.5446880000000  0.5025930000000 1.0
C      1  0.5160920000000  0.4781540000000  0.5397660000000 1.0
C      1  0.4687940000000  0.6225420000000  0.4989680000000 1.0
C      1  0.4702770000000  0.4419260000000  0.6066500000000 1.0
C      1  0.4731820000000  0.4385630000000  0.4016030000000 1.0
C      1  0.5301540000000  0.6145160000000  0.4969690000000 1.0
C      1  0.5313810000000  0.4454580000000  0.6014050000000 1.0
C      1  0.5283320000000  0.4409020000000  0.4113550000000 1.0
C      1  0.4431930000000  0.6094130000000  0.4933810000000 1.0
C      1  0.4453670000000  0.4532510000000  0.5967610000000 1.0
C      1  0.4440540000000  0.4406930000000  0.4069450000000 1.0
C      1  0.5528140000000  0.5966230000000  0.4938020000000 1.0
C      1  0.5539020000000  0.4571000000000  0.5878460000000 1.0
C      1  0.5569420000000  0.4453840000000  0.4179650000000 1.0
C      1  0.4898420000000  0.6234970000000  0.4505510000000 1.0
C      1  0.4889710000000  0.3887100000000  0.4194660000000 1.0
C      1  0.4906110000000  0.4777740000000  0.6315640000000 1.0
C      1  0.4995730000000  0.5031220000000  0.4967610000000 1.0
END
