TITL C-3577079-311-363 -7.10293627228726e-07 125000 -504.793106839741 0 0 81 (C1) n - 1
REM
REM in /home/bkarasulu/work/CARBON/AIRSS/Generating-Clusters/EDIP-Nigel-Params/with-SteepDescent/Higher-Symm/SD-CG/HFTN-CG
REM
REM
REM
REM
REM
REM ./C.cell (12c818d87b63d06a65506943cc24bca4)
REM
REM compiler GCC version 9.2.1 20190827 (Red Hat 9.2.1-1)
REM options -cpp -mtune=generic -march=x86-64 -g -O0 -fpre-include=/usr/include/finclude/math-vector-fortran.h
REM seed 1920655217 -1678800108 1570453257 -1630339754 193131836 -659444319 -991433483 -1448815425 570972829 1454534030 733259589 -1171779625 752603778 1057892657 1713466868 508773143 -1117992550 -1122642753 -1281523722 283157360 446770797 -1294195058 -1031445793 990093136 -1367209590 -1740883692 1006593268 -294167712 1326885172 379198277 1797859196 -2017995467 -258925984
REM
CELL 1.54180   50.00000   50.00000   50.00000   90.00000   90.00000   90.00000
LATT -1
SFAC C  
C      1  0.4754830000000  0.4945470000000  0.5280670000000 1.0
C      1  0.4750240000000  0.5028000000000  0.4617110000000 1.0
C      1  0.4493640000000  0.5408070000000  0.5435350000000 1.0
C      1  0.4486760000000  0.4558100000000  0.4557940000000 1.0
C      1  0.5393610000000  0.4699210000000  0.4313080000000 1.0
C      1  0.5403700000000  0.5276040000000  0.5750570000000 1.0
C      1  0.5261640000000  0.4679530000000  0.5682390000000 1.0
C      1  0.5252640000000  0.5314060000000  0.4326440000000 1.0
C      1  0.4667310000000  0.5122800000000  0.4870980000000 1.0
C      1  0.4630970000000  0.4866610000000  0.5018270000000 1.0
C      1  0.5382210000000  0.4413550000000  0.4935560000000 1.0
C      1  0.5434090000000  0.5595430000000  0.5067610000000 1.0
C      1  0.5651280000000  0.4717450000000  0.4609880000000 1.0
C      1  0.5705350000000  0.5251530000000  0.5392280000000 1.0
C      1  0.5031300000000  0.5671460000000  0.4788620000000 1.0
C      1  0.5006740000000  0.4282640000000  0.5222750000000 1.0
C      1  0.4754450000000  0.5373320000000  0.4257450000000 1.0
C      1  0.4755870000000  0.4617910000000  0.5726090000000 1.0
C      1  0.5147570000000  0.5296570000000  0.5618060000000 1.0
C      1  0.5121100000000  0.4698050000000  0.4419620000000 1.0
C      1  0.4256940000000  0.4791520000000  0.4940480000000 1.0
C      1  0.4310730000000  0.5158490000000  0.5040020000000 1.0
C      1  0.5264930000000  0.5648860000000  0.4616900000000 1.0
C      1  0.5245580000000  0.4346820000000  0.5389050000000 1.0
C      1  0.5803070000000  0.4818600000000  0.5141760000000 1.0
C      1  0.5792600000000  0.5153460000000  0.4860430000000 1.0
C      1  0.4579810000000  0.5396550000000  0.5702480000000 1.0
C      1  0.4585890000000  0.4580640000000  0.4295850000000 1.0
C      1  0.4341440000000  0.4598340000000  0.5413190000000 1.0
C      1  0.4349230000000  0.5368760000000  0.4582870000000 1.0
C      1  0.4572680000000  0.5058180000000  0.4386250000000 1.0
C      1  0.4598170000000  0.4917600000000  0.5540210000000 1.0
C      1  0.4647150000000  0.5567690000000  0.5249880000000 1.0
C      1  0.4646870000000  0.4420740000000  0.4758760000000 1.0
C      1  0.4995150000000  0.4793820000000  0.5701250000000 1.0
C      1  0.4990450000000  0.5195620000000  0.4287190000000 1.0
C      1  0.5571740000000  0.5096000000000  0.5608930000000 1.0
C      1  0.5553500000000  0.4919080000000  0.4403450000000 1.0
C      1  0.5475380000000  0.4420810000000  0.5218890000000 1.0
C      1  0.5505400000000  0.5577610000000  0.4776410000000 1.0
C      1  0.5846570000000  0.4869960000000  0.4780770000000 1.0
C      1  0.5879200000000  0.5085610000000  0.5229580000000 1.0
C      1  0.5261010000000  0.4946980000000  0.5263970000000 1.0
C      1  0.5232810000000  0.5073000000000  0.4765720000000 1.0
C      1  0.4965810000000  0.5086120000000  0.5743050000000 1.0
C      1  0.4960290000000  0.4896820000000  0.4246690000000 1.0
C      1  0.4954740000000  0.4680080000000  0.4936240000000 1.0
C      1  0.5016240000000  0.5366430000000  0.5134260000000 1.0
C      1  0.5209450000000  0.5234610000000  0.5322070000000 1.0
C      1  0.5155010000000  0.4787570000000  0.4717770000000 1.0
C      1  0.4671100000000  0.4833290000000  0.4207400000000 1.0
C      1  0.4682220000000  0.5135760000000  0.5731470000000 1.0
C      1  0.4570220000000  0.4429180000000  0.5039090000000 1.0
C      1  0.4581920000000  0.5547210000000  0.4960840000000 1.0
C      1  0.4753170000000  0.5593860000000  0.4729100000000 1.0
C      1  0.4733480000000  0.4376110000000  0.5273720000000 1.0
C      1  0.4596730000000  0.4475940000000  0.5519320000000 1.0
C      1  0.4607280000000  0.5491280000000  0.4485860000000 1.0
C      1  0.5427360000000  0.4672880000000  0.4807310000000 1.0
C      1  0.5478330000000  0.5337080000000  0.5214820000000 1.0
C      1  0.4339550000000  0.5405740000000  0.4875740000000 1.0
C      1  0.4329660000000  0.4564020000000  0.5119250000000 1.0
C      1  0.5130540000000  0.5651720000000  0.5070830000000 1.0
C      1  0.5077450000000  0.4375530000000  0.4944460000000 1.0
C      1  0.5011340000000  0.4428750000000  0.4446030000000 1.0
C      1  0.5018380000000  0.5561110000000  0.5593960000000 1.0
C      1  0.5625450000000  0.5320840000000  0.4679520000000 1.0
C      1  0.5619560000000  0.4667690000000  0.5316480000000 1.0
C      1  0.4975680000000  0.5238440000000  0.4857430000000 1.0
C      1  0.5007050000000  0.4802940000000  0.5214980000000 1.0
C      1  0.4303300000000  0.5206840000000  0.5331820000000 1.0
C      1  0.4286280000000  0.4758210000000  0.4645770000000 1.0
C      1  0.4291140000000  0.5009510000000  0.4487130000000 1.0
C      1  0.4301440000000  0.4962690000000  0.5493790000000 1.0
C      1  0.4908580000000  0.5684290000000  0.5351900000000 1.0
C      1  0.4911690000000  0.4317990000000  0.4687580000000 1.0
C      1  0.5417910000000  0.5162360000000  0.4527200000000 1.0
C      1  0.5439910000000  0.4839320000000  0.5490770000000 1.0
C      1  0.5259850000000  0.4398420000000  0.5665200000000 1.0
C      1  0.5257510000000  0.5592760000000  0.4342090000000 1.0
C      1  0.5432170000000  0.5010380000000  0.5004390000000 1.0
END
