TITL C-3577089-586-428 2.78041063904265e-07 125000 -141.822072130847 0 0 30 (Cs) n - 1
REM
REM in /home/bkarasulu/work/CARBON/AIRSS/Generating-Clusters/EDIP-Nigel-Params/with-SteepDescent/Higher-Symm/SD-CG/HFTN-CG
REM
REM
REM
REM
REM
REM ./C.cell (12c818d87b63d06a65506943cc24bca4)
REM
REM compiler GCC version 9.2.1 20190827 (Red Hat 9.2.1-1)
REM options -cpp -mtune=generic -march=x86-64 -g -O0 -fpre-include=/usr/include/finclude/math-vector-fortran.h
REM seed -714928213 1153905700 -1232125534 -1243352359 223505432 -1670716977 -1435276216 -914105314 700485253 960695230 -1842918452 467283482 2090644981 631064212 -844564094 -756724967 -1777989939 148386017 1016486558 103282228 -69961076 -982833088 -701930764 -409296140 263031038 -1632584680 1902117069 -113129081 -275192568 1905993819 1005433157 469481278 229465840
REM
CELL 1.54180   50.00000   50.00000   50.00000   90.00000   90.00000   90.00000
LATT -1
SFAC C  
C      1  0.4992890000000  0.5463330000000  0.5480500000000 1.0
C      1  0.4615200000000  0.5481230000000  0.4712050000000 1.0
C      1  0.5523090000000  0.5338100000000  0.4740430000000 1.0
C      1  0.4993000000000  0.4553270000000  0.5480630000000 1.0
C      1  0.4615320000000  0.4535040000000  0.4712190000000 1.0
C      1  0.5523160000000  0.4678400000000  0.4740530000000 1.0
C      1  0.5072680000000  0.5461360000000  0.4481400000000 1.0
C      1  0.4592510000000  0.5458200000000  0.5226540000000 1.0
C      1  0.5491370000000  0.5357000000000  0.5273690000000 1.0
C      1  0.5072790000000  0.4554950000000  0.4481540000000 1.0
C      1  0.4592610000000  0.4558220000000  0.5226670000000 1.0
C      1  0.5491450000000  0.4659650000000  0.5273790000000 1.0
C      1  0.5048860000000  0.4739550000000  0.4680520000000 1.0
C      1  0.5267600000000  0.4695410000000  0.5137660000000 1.0
C      1  0.4757660000000  0.4746690000000  0.5120380000000 1.0
C      1  0.5048790000000  0.5276820000000  0.4680440000000 1.0
C      1  0.5267520000000  0.5321150000000  0.5137570000000 1.0
C      1  0.4757600000000  0.5269740000000  0.5120300000000 1.0
C      1  0.5018310000000  0.4748930000000  0.5293130000000 1.0
C      1  0.5288000000000  0.4719130000000  0.4854380000000 1.0
C      1  0.4803660000000  0.4674160000000  0.4835030000000 1.0
C      1  0.5018250000000  0.5267610000000  0.5293050000000 1.0
C      1  0.5287940000000  0.5297340000000  0.4854290000000 1.0
C      1  0.4803580000000  0.5342200000000  0.4834930000000 1.0
C      1  0.4363490000000  0.5008180000000  0.5214990000000 1.0
C      1  0.5021160000000  0.5008330000000  0.5700990000000 1.0
C      1  0.4986070000000  0.5008120000000  0.4287700000000 1.0
C      1  0.5041200000000  0.5008300000000  0.5437280000000 1.0
C      1  0.5027610000000  0.5008160000000  0.4548790000000 1.0
C      1  0.4616640000000  0.5008200000000  0.5138610000000 1.0
END
