TITL C-3577089-586-112 -2.01979896659205e-06 125000 -963.828138264845 0 0 153 (C1) n - 1
REM
REM in /home/bkarasulu/work/CARBON/AIRSS/Generating-Clusters/EDIP-Nigel-Params/with-SteepDescent/Higher-Symm/SD-CG/HFTN-CG
REM
REM
REM
REM
REM
REM ./C.cell (12c818d87b63d06a65506943cc24bca4)
REM
REM compiler GCC version 9.2.1 20190827 (Red Hat 9.2.1-1)
REM options -cpp -mtune=generic -march=x86-64 -g -O0 -fpre-include=/usr/include/finclude/math-vector-fortran.h
REM seed -251363494 95804642 1714856919 1717565484 930261576 292701089 -691672433 -377549828 1952522637 -969272057 -1502044270 310398774 850267069 -924091411 1477562898 -2027724692 23535232 1642104330 -488655875 -527447611 -975010735 -1745440186 2033989109 -1950036929 -1220244754 -1642073658 -1666788700 -1020909400 -2116826032 -1656945211 -548678216 -523438033 1943158453
REM
CELL 1.54180   50.00000   50.00000   50.00000   90.00000   90.00000   90.00000
LATT -1
SFAC C  
C      1  0.4519790000000  0.5483050000000  0.4137600000000 1.0
C      1  0.5478470000000  0.4432580000000  0.4352840000000 1.0
C      1  0.4554200000000  0.4424340000000  0.5698650000000 1.0
C      1  0.5457090000000  0.5567760000000  0.5621260000000 1.0
C      1  0.4462090000000  0.4955940000000  0.5627480000000 1.0
C      1  0.5554330000000  0.5021320000000  0.5594710000000 1.0
C      1  0.4578640000000  0.5040560000000  0.4458230000000 1.0
C      1  0.5662740000000  0.5014130000000  0.4274870000000 1.0
C      1  0.3926640000000  0.5288520000000  0.5166510000000 1.0
C      1  0.6001070000000  0.4672470000000  0.5126570000000 1.0
C      1  0.3968580000000  0.4766620000000  0.4914220000000 1.0
C      1  0.5941620000000  0.5300410000000  0.4883730000000 1.0
C      1  0.4708160000000  0.5941900000000  0.4981150000000 1.0
C      1  0.5300700000000  0.4023840000000  0.4990050000000 1.0
C      1  0.4716900000000  0.4050800000000  0.5017230000000 1.0
C      1  0.5295650000000  0.5972970000000  0.5000630000000 1.0
C      1  0.5230360000000  0.4711350000000  0.5801010000000 1.0
C      1  0.4836500000000  0.5237510000000  0.5838430000000 1.0
C      1  0.5231470000000  0.5302690000000  0.4182760000000 1.0
C      1  0.4840840000000  0.4800510000000  0.4193520000000 1.0
C      1  0.4316490000000  0.4187700000000  0.5279250000000 1.0
C      1  0.5706890000000  0.5864540000000  0.5244660000000 1.0
C      1  0.4311650000000  0.5827440000000  0.4722040000000 1.0
C      1  0.5726300000000  0.4089190000000  0.4744490000000 1.0
C      1  0.4174290000000  0.4803640000000  0.5679850000000 1.0
C      1  0.5811880000000  0.5180950000000  0.5548250000000 1.0
C      1  0.4237630000000  0.5235630000000  0.4415820000000 1.0
C      1  0.5812820000000  0.4810580000000  0.4454720000000 1.0
C      1  0.5840110000000  0.4465850000000  0.5243330000000 1.0
C      1  0.4114330000000  0.5465340000000  0.5288920000000 1.0
C      1  0.5781680000000  0.5491670000000  0.4753030000000 1.0
C      1  0.4167160000000  0.4590300000000  0.4828960000000 1.0
C      1  0.4826070000000  0.5708280000000  0.5690620000000 1.0
C      1  0.5189410000000  0.4258570000000  0.5679280000000 1.0
C      1  0.4843120000000  0.4317380000000  0.4318450000000 1.0
C      1  0.5193850000000  0.5776230000000  0.4278430000000 1.0
C      1  0.4793400000000  0.5386150000000  0.5293660000000 1.0
C      1  0.5128010000000  0.4635610000000  0.5192390000000 1.0
C      1  0.4893240000000  0.4538270000000  0.4776720000000 1.0
C      1  0.5084830000000  0.5516210000000  0.4778210000000 1.0
C      1  0.4444250000000  0.4683130000000  0.4784210000000 1.0
C      1  0.5547290000000  0.5333450000000  0.4680540000000 1.0
C      1  0.4362420000000  0.5293380000000  0.5264690000000 1.0
C      1  0.5597670000000  0.4607080000000  0.5298590000000 1.0
C      1  0.5243610000000  0.5650900000000  0.5390420000000 1.0
C      1  0.4726240000000  0.4324220000000  0.5432670000000 1.0
C      1  0.5280490000000  0.4326670000000  0.4581930000000 1.0
C      1  0.4740720000000  0.5797560000000  0.4505740000000 1.0
C      1  0.5631450000000  0.5537590000000  0.4190920000000 1.0
C      1  0.4428720000000  0.4575520000000  0.4269650000000 1.0
C      1  0.5639770000000  0.4464730000000  0.5792900000000 1.0
C      1  0.4412680000000  0.5451590000000  0.5748720000000 1.0
C      1  0.4509980000000  0.5257810000000  0.5534770000000 1.0
C      1  0.5551670000000  0.4700300000000  0.5584310000000 1.0
C      1  0.4521230000000  0.4746020000000  0.4495630000000 1.0
C      1  0.5546480000000  0.5284950000000  0.4365300000000 1.0
C      1  0.5736220000000  0.5772250000000  0.4301640000000 1.0
C      1  0.4310380000000  0.4328100000000  0.4332330000000 1.0
C      1  0.5732980000000  0.4218450000000  0.5694240000000 1.0
C      1  0.4288590000000  0.5691120000000  0.5670920000000 1.0
C      1  0.4869180000000  0.5333270000000  0.4755420000000 1.0
C      1  0.4970250000000  0.4809160000000  0.4815390000000 1.0
C      1  0.4844940000000  0.4750610000000  0.5237530000000 1.0
C      1  0.4989830000000  0.5177680000000  0.5152670000000 1.0
C      1  0.4953570000000  0.5354130000000  0.4296910000000 1.0
C      1  0.5083240000000  0.4727480000000  0.4370730000000 1.0
C      1  0.4962520000000  0.4664660000000  0.5676540000000 1.0
C      1  0.5061500000000  0.5298190000000  0.5653140000000 1.0
C      1  0.5586820000000  0.5938160000000  0.5006040000000 1.0
C      1  0.4430020000000  0.4104360000000  0.5037310000000 1.0
C      1  0.5595090000000  0.4033390000000  0.4986050000000 1.0
C      1  0.4419670000000  0.5895280000000  0.4969960000000 1.0
C      1  0.4950010000000  0.5053690000000  0.6041820000000 1.0
C      1  0.5224740000000  0.4942200000000  0.5989480000000 1.0
C      1  0.4985420000000  0.4926100000000  0.3938330000000 1.0
C      1  0.5249090000000  0.5069840000000  0.3990920000000 1.0
C      1  0.5075240000000  0.5084010000000  0.5444510000000 1.0
C      1  0.4878110000000  0.4882300000000  0.5498530000000 1.0
C      1  0.5098690000000  0.4943950000000  0.4591490000000 1.0
C      1  0.4880080000000  0.5159530000000  0.4519610000000 1.0
C      1  0.5341230000000  0.5433320000000  0.4876960000000 1.0
C      1  0.4626590000000  0.4469540000000  0.4911420000000 1.0
C      1  0.5392830000000  0.4549640000000  0.5107760000000 1.0
C      1  0.4559250000000  0.5466990000000  0.5105410000000 1.0
C      1  0.5991100000000  0.4906030000000  0.4687060000000 1.0
C      1  0.4024470000000  0.5206330000000  0.4628950000000 1.0
C      1  0.5980940000000  0.5090310000000  0.5319360000000 1.0
C      1  0.3963140000000  0.4827620000000  0.5456230000000 1.0
C      1  0.5469320000000  0.4504010000000  0.4816320000000 1.0
C      1  0.4594820000000  0.5418960000000  0.4806180000000 1.0
C      1  0.5429560000000  0.5448280000000  0.5176110000000 1.0
C      1  0.4625930000000  0.4548450000000  0.5219400000000 1.0
C      1  0.5833700000000  0.4848690000000  0.4933730000000 1.0
C      1  0.4062410000000  0.5232640000000  0.4915050000000 1.0
C      1  0.5800470000000  0.5113540000000  0.5085030000000 1.0
C      1  0.4097910000000  0.4644560000000  0.5256100000000 1.0
C      1  0.3887280000000  0.5076750000000  0.5347720000000 1.0
C      1  0.6107200000000  0.4838930000000  0.5328920000000 1.0
C      1  0.3898580000000  0.4951430000000  0.4704280000000 1.0
C      1  0.6098310000000  0.5161850000000  0.4695840000000 1.0
C      1  0.5700610000000  0.5583230000000  0.5247940000000 1.0
C      1  0.4156330000000  0.4382940000000  0.5401650000000 1.0
C      1  0.5737000000000  0.4370180000000  0.4735080000000 1.0
C      1  0.4495980000000  0.5642400000000  0.4597150000000 1.0
C      1  0.5007890000000  0.4427920000000  0.5506050000000 1.0
C      1  0.4979740000000  0.5534810000000  0.5497620000000 1.0
C      1  0.4979970000000  0.5629340000000  0.4430160000000 1.0
C      1  0.5019610000000  0.4468960000000  0.4512550000000 1.0
C      1  0.5350930000000  0.4440930000000  0.5867740000000 1.0
C      1  0.4676500000000  0.5499900000000  0.5866630000000 1.0
C      1  0.5347330000000  0.5577910000000  0.4103270000000 1.0
C      1  0.4693630000000  0.4533490000000  0.4147100000000 1.0
C      1  0.5468390000000  0.4884220000000  0.4090410000000 1.0
C      1  0.4750420000000  0.5095970000000  0.3953800000000 1.0
C      1  0.5426850000000  0.5123360000000  0.5854490000000 1.0
C      1  0.4641500000000  0.4899670000000  0.5873780000000 1.0
C      1  0.4860560000000  0.4084160000000  0.5265820000000 1.0
C      1  0.5147910000000  0.5913630000000  0.5249630000000 1.0
C      1  0.4860320000000  0.5949230000000  0.4731570000000 1.0
C      1  0.5158580000000  0.4079200000000  0.4739780000000 1.0
C      1  0.5734080000000  0.5870950000000  0.4769320000000 1.0
C      1  0.4328950000000  0.4244710000000  0.4801090000000 1.0
C      1  0.5742650000000  0.4093160000000  0.5225920000000 1.0
C      1  0.4281610000000  0.5797410000000  0.5204140000000 1.0
C      1  0.4355910000000  0.5004230000000  0.5151670000000 1.0
C      1  0.5285450000000  0.4976980000000  0.5081030000000 1.0
C      1  0.4515700000000  0.4952870000000  0.4923420000000 1.0
C      1  0.5363580000000  0.5004690000000  0.4776780000000 1.0
C      1  0.5325830000000  0.5900750000000  0.4507420000000 1.0
C      1  0.4704240000000  0.4134010000000  0.4511870000000 1.0
C      1  0.5322960000000  0.4099520000000  0.5478160000000 1.0
C      1  0.4687060000000  0.5870180000000  0.5479070000000 1.0
C      1  0.5734400000000  0.5478990000000  0.5525890000000 1.0
C      1  0.4264610000000  0.4504080000000  0.5655430000000 1.0
C      1  0.5747150000000  0.4501460000000  0.4459790000000 1.0
C      1  0.4360930000000  0.5500320000000  0.4363660000000 1.0
C      1  0.5501480000000  0.5144890000000  0.5233760000000 1.0
C      1  0.4387020000000  0.4752420000000  0.5307120000000 1.0
C      1  0.5570610000000  0.4784600000000  0.4752630000000 1.0
C      1  0.4453570000000  0.5167290000000  0.4728250000000 1.0
C      1  0.4394990000000  0.5844970000000  0.5464130000000 1.0
C      1  0.5614240000000  0.4078940000000  0.5482410000000 1.0
C      1  0.4412890000000  0.4164320000000  0.4532790000000 1.0
C      1  0.5615620000000  0.5907800000000  0.4512490000000 1.0
C      1  0.5309240000000  0.5380790000000  0.5799500000000 1.0
C      1  0.4727970000000  0.4611970000000  0.5857430000000 1.0
C      1  0.5332830000000  0.4655220000000  0.4219340000000 1.0
C      1  0.4754390000000  0.5348080000000  0.4081990000000 1.0
C      1  0.5157620000000  0.5953740000000  0.4743930000000 1.0
C      1  0.4860070000000  0.4095590000000  0.4762570000000 1.0
C      1  0.5156970000000  0.4054120000000  0.5242870000000 1.0
C      1  0.4848740000000  0.5934010000000  0.5236860000000 1.0
C      1  0.4815570000000  0.4950860000000  0.5017530000000 1.0
END
