TITL C-3578206-1180-373 -3.84125105554371e-07 125000 -319.27315375443 0 0 54 (C1) n - 1
REM
REM in /home/bkarasulu/work/CARBON/AIRSS/Generating-Clusters/EDIP-Nigel-Params/with-SteepDescent/Higher-Symm/SD-CG/HFTN-CG
REM
REM
REM
REM
REM
REM ./C.cell (12c818d87b63d06a65506943cc24bca4)
REM
REM compiler GCC version 9.2.1 20190827 (Red Hat 9.2.1-1)
REM options -cpp -mtune=generic -march=x86-64 -g -O0 -fpre-include=/usr/include/finclude/math-vector-fortran.h
REM seed 1250414535 923539586 1419633356 2025232695 -1895318904 -161456785 320405134 567973966 -1373425021 -876987450 -856928310 -1363710578 1675654052 517738276 1738447961 760470817 1867311109 -366950612 -1769229852 2020152378 2117534038 -1427881894 -1793696312 -128990964 1716870423 -1918279881 -971784333 -389463104 -611460858 -1284054961 1438122764 -469658678 -1534794341
REM
CELL 1.54180   50.00000   50.00000   50.00000   90.00000   90.00000   90.00000
LATT -1
SFAC C  
C      1  0.5415650000000  0.5191360000000  0.5800690000000 1.0
C      1  0.5416140000000  0.4800980000000  0.4205340000000 1.0
C      1  0.4602440000000  0.4807570000000  0.5796340000000 1.0
C      1  0.4616350000000  0.5198920000000  0.4203940000000 1.0
C      1  0.5411280000000  0.5805090000000  0.5195060000000 1.0
C      1  0.5427000000000  0.4206770000000  0.4806470000000 1.0
C      1  0.4601780000000  0.5790600000000  0.4806800000000 1.0
C      1  0.4620300000000  0.4199490000000  0.5199600000000 1.0
C      1  0.4755190000000  0.5661770000000  0.4613040000000 1.0
C      1  0.4746630000000  0.4339510000000  0.5405570000000 1.0
C      1  0.5274500000000  0.4337410000000  0.4613280000000 1.0
C      1  0.5283470000000  0.5665900000000  0.5400510000000 1.0
C      1  0.4752980000000  0.4612090000000  0.5667040000000 1.0
C      1  0.4753150000000  0.5399440000000  0.4342060000000 1.0
C      1  0.5279070000000  0.4600310000000  0.4343040000000 1.0
C      1  0.5284420000000  0.5397550000000  0.5665830000000 1.0
C      1  0.5115800000000  0.5254990000000  0.5465630000000 1.0
C      1  0.5111680000000  0.4748270000000  0.4541040000000 1.0
C      1  0.4920490000000  0.4747710000000  0.5463510000000 1.0
C      1  0.4920280000000  0.5251780000000  0.4540470000000 1.0
C      1  0.5117260000000  0.5465070000000  0.5255390000000 1.0
C      1  0.5106950000000  0.4539720000000  0.4751260000000 1.0
C      1  0.4923850000000  0.5460210000000  0.4750750000000 1.0
C      1  0.4914840000000  0.4536330000000  0.5255840000000 1.0
C      1  0.5215900000000  0.5174280000000  0.4461030000000 1.0
C      1  0.5214090000000  0.4825250000000  0.5537410000000 1.0
C      1  0.4816490000000  0.4825750000000  0.4459980000000 1.0
C      1  0.4821990000000  0.5175090000000  0.5541720000000 1.0
C      1  0.5209110000000  0.4458230000000  0.5176530000000 1.0
C      1  0.5217980000000  0.5540340000000  0.4825550000000 1.0
C      1  0.4812280000000  0.4460550000000  0.4826940000000 1.0
C      1  0.4822290000000  0.5540570000000  0.5176490000000 1.0
C      1  0.5259870000000  0.5038590000000  0.4193100000000 1.0
C      1  0.5259980000000  0.4953320000000  0.5808210000000 1.0
C      1  0.4773370000000  0.4961760000000  0.4192020000000 1.0
C      1  0.4774320000000  0.5034300000000  0.5807380000000 1.0
C      1  0.5256480000000  0.4193670000000  0.5034150000000 1.0
C      1  0.5258700000000  0.5811320000000  0.4955070000000 1.0
C      1  0.4770350000000  0.4190520000000  0.4958090000000 1.0
C      1  0.4772650000000  0.5804890000000  0.5034180000000 1.0
C      1  0.4764230000000  0.4974700000000  0.5341430000000 1.0
C      1  0.4751110000000  0.5025410000000  0.4664970000000 1.0
C      1  0.5273310000000  0.5029580000000  0.5342550000000 1.0
C      1  0.5281290000000  0.4974540000000  0.4666180000000 1.0
C      1  0.4765180000000  0.5338640000000  0.4977220000000 1.0
C      1  0.4748840000000  0.4662490000000  0.5028900000000 1.0
C      1  0.5283160000000  0.5339650000000  0.5028200000000 1.0
C      1  0.5266580000000  0.4660600000000  0.4977560000000 1.0
C      1  0.5016020000000  0.4986640000000  0.5942370000000 1.0
C      1  0.5016870000000  0.5000560000000  0.4058600000000 1.0
C      1  0.5012900000000  0.5942310000000  0.4986360000000 1.0
C      1  0.5015260000000  0.4057470000000  0.4987530000000 1.0
C      1  0.5232330000000  0.5043530000000  0.4962020000000 1.0
C      1  0.4802610000000  0.4956620000000  0.4959750000000 1.0
END
