TITL C-3578208-4450-750 -3.13310311494392e-06 125000 -1195.3659359408 0 0 195 (C1) n - 1
REM
REM in /home/bkarasulu/work/CARBON/AIRSS/Generating-Clusters/EDIP-Nigel-Params/with-SteepDescent/Higher-Symm/SD-CG/HFTN-CG
REM
REM
REM
REM
REM
REM ./C.cell (12c818d87b63d06a65506943cc24bca4)
REM
REM compiler GCC version 9.2.1 20190827 (Red Hat 9.2.1-1)
REM options -cpp -mtune=generic -march=x86-64 -g -O0 -fpre-include=/usr/include/finclude/math-vector-fortran.h
REM seed -540237311 -25305998 1223637926 426660714 606511507 456125944 1163821255 1265476813 1925852481 1607266299 1092799964 1243189028 40247615 703969511 1743063726 2043872777 -2106568878 1014925290 -1958082216 -561021052 311778933 -1978660249 -104623778 687837859 -1837018573 1329972286 -424009864 -646052790 1255503387 -1625893863 -2047293772 -510817536 -868583208
REM
CELL 1.54180   50.00000   50.00000   50.00000   90.00000   90.00000   90.00000
LATT -1
SFAC C  
C      1  0.4371990000000  0.4646200000000  0.5341470000000 1.0
C      1  0.4389970000000  0.4646640000000  0.4768930000000 1.0
C      1  0.4355900000000  0.5078420000000  0.4504920000000 1.0
C      1  0.4412930000000  0.5457600000000  0.4943830000000 1.0
C      1  0.4400070000000  0.5163400000000  0.5423630000000 1.0
C      1  0.5648920000000  0.5076410000000  0.5569050000000 1.0
C      1  0.5642000000000  0.4492970000000  0.5244540000000 1.0
C      1  0.5638900000000  0.4613180000000  0.4601980000000 1.0
C      1  0.5620110000000  0.5243280000000  0.4523650000000 1.0
C      1  0.5627310000000  0.5558530000000  0.5091300000000 1.0
C      1  0.5327060000000  0.5581210000000  0.5075660000000 1.0
C      1  0.5355340000000  0.5146400000000  0.5628820000000 1.0
C      1  0.5347320000000  0.4467720000000  0.5314720000000 1.0
C      1  0.5349950000000  0.4522940000000  0.4578740000000 1.0
C      1  0.5337130000000  0.5238610000000  0.4414820000000 1.0
C      1  0.4334940000000  0.4356050000000  0.5263730000000 1.0
C      1  0.4335890000000  0.4589470000000  0.4456490000000 1.0
C      1  0.4337500000000  0.5374780000000  0.4411670000000 1.0
C      1  0.4341460000000  0.5652590000000  0.5179400000000 1.0
C      1  0.4335660000000  0.5012860000000  0.5702280000000 1.0
C      1  0.4796890000000  0.5805660000000  0.5663520000000 1.0
C      1  0.4804600000000  0.4614890000000  0.5995220000000 1.0
C      1  0.4789130000000  0.3962740000000  0.4947760000000 1.0
C      1  0.4795020000000  0.4724680000000  0.3976480000000 1.0
C      1  0.4801430000000  0.5874290000000  0.4420790000000 1.0
C      1  0.5595090000000  0.5107370000000  0.4789790000000 1.0
C      1  0.5688660000000  0.5260410000000  0.5028300000000 1.0
C      1  0.5686910000000  0.5056720000000  0.5265150000000 1.0
C      1  0.5680720000000  0.4776570000000  0.5136840000000 1.0
C      1  0.5666870000000  0.4820950000000  0.4833080000000 1.0
C      1  0.4134450000000  0.4167650000000  0.4720590000000 1.0
C      1  0.4155600000000  0.5023730000000  0.4048470000000 1.0
C      1  0.4150340000000  0.5859450000000  0.4726960000000 1.0
C      1  0.4147040000000  0.5505830000000  0.5745360000000 1.0
C      1  0.4158510000000  0.4431610000000  0.5758290000000 1.0
C      1  0.4807720000000  0.3898810000000  0.5395420000000 1.0
C      1  0.4800730000000  0.4279360000000  0.4067990000000 1.0
C      1  0.4806860000000  0.5658390000000  0.4015570000000 1.0
C      1  0.4798640000000  0.6124960000000  0.5332940000000 1.0
C      1  0.4814280000000  0.5029490000000  0.6185270000000 1.0
C      1  0.4611550000000  0.4635030000000  0.5537370000000 1.0
C      1  0.4613070000000  0.4406740000000  0.4822600000000 1.0
C      1  0.4604300000000  0.4978270000000  0.4348710000000 1.0
C      1  0.4632880000000  0.5605680000000  0.4780820000000 1.0
C      1  0.4626350000000  0.5368170000000  0.5520760000000 1.0
C      1  0.4263420000000  0.5693700000000  0.5552890000000 1.0
C      1  0.4268050000000  0.4680240000000  0.5875350000000 1.0
C      1  0.4251310000000  0.4107230000000  0.4981970000000 1.0
C      1  0.4260630000000  0.4755400000000  0.4123170000000 1.0
C      1  0.4264430000000  0.5745830000000  0.4482720000000 1.0
C      1  0.4111220000000  0.4775680000000  0.5402860000000 1.0
C      1  0.4112900000000  0.4705130000000  0.4902680000000 1.0
C      1  0.4082600000000  0.4951400000000  0.4477300000000 1.0
C      1  0.4163370000000  0.5325600000000  0.4817180000000 1.0
C      1  0.4136590000000  0.5279990000000  0.5305340000000 1.0
C      1  0.4528940000000  0.5461220000000  0.5795430000000 1.0
C      1  0.4540250000000  0.4392380000000  0.5711600000000 1.0
C      1  0.4515840000000  0.4169920000000  0.4651550000000 1.0
C      1  0.4537240000000  0.5078630000000  0.4066050000000 1.0
C      1  0.4532550000000  0.5894320000000  0.4781730000000 1.0
C      1  0.5642530000000  0.5961070000000  0.4911910000000 1.0
C      1  0.5630610000000  0.5384510000000  0.5881600000000 1.0
C      1  0.5639900000000  0.4282860000000  0.5630650000000 1.0
C      1  0.5623460000000  0.4181470000000  0.4512440000000 1.0
C      1  0.5629330000000  0.5207810000000  0.4083510000000 1.0
C      1  0.5473330000000  0.3908120000000  0.5189710000000 1.0
C      1  0.5475810000000  0.4473360000000  0.4020590000000 1.0
C      1  0.5471830000000  0.5769090000000  0.4191490000000 1.0
C      1  0.5467600000000  0.5999080000000  0.5491070000000 1.0
C      1  0.5482600000000  0.4845300000000  0.6100520000000 1.0
C      1  0.4750860000000  0.5186820000000  0.3883290000000 1.0
C      1  0.4747520000000  0.6102900000000  0.4833790000000 1.0
C      1  0.4741940000000  0.5485090000000  0.6010120000000 1.0
C      1  0.4755330000000  0.4194960000000  0.5783310000000 1.0
C      1  0.4727390000000  0.4026190000000  0.4483910000000 1.0
C      1  0.5930360000000  0.5540940000000  0.4785170000000 1.0
C      1  0.5931380000000  0.5378790000000  0.5447550000000 1.0
C      1  0.5937640000000  0.4688210000000  0.5490010000000 1.0
C      1  0.5940060000000  0.4430320000000  0.4848850000000 1.0
C      1  0.5935520000000  0.4967200000000  0.4426740000000 1.0
C      1  0.5058990000000  0.4837930000000  0.4473150000000 1.0
C      1  0.5066870000000  0.5473940000000  0.4676640000000 1.0
C      1  0.5040640000000  0.5450510000000  0.5387470000000 1.0
C      1  0.5075890000000  0.4823750000000  0.5512880000000 1.0
C      1  0.5060660000000  0.4451560000000  0.4976850000000 1.0
C      1  0.5267400000000  0.4301620000000  0.5101800000000 1.0
C      1  0.5263890000000  0.4677560000000  0.4355760000000 1.0
C      1  0.5259530000000  0.5499590000000  0.4474510000000 1.0
C      1  0.5256360000000  0.5631050000000  0.5344880000000 1.0
C      1  0.5273710000000  0.4884560000000  0.5707620000000 1.0
C      1  0.5195440000000  0.4337670000000  0.5823730000000 1.0
C      1  0.5178630000000  0.3998630000000  0.4620620000000 1.0
C      1  0.5191930000000  0.5046540000000  0.3928240000000 1.0
C      1  0.5191100000000  0.5971950000000  0.4741970000000 1.0
C      1  0.5191600000000  0.5596390000000  0.5924200000000 1.0
C      1  0.3984670000000  0.5275550000000  0.5041370000000 1.0
C      1  0.3951940000000  0.5043620000000  0.5354540000000 1.0
C      1  0.3971420000000  0.4710720000000  0.5156560000000 1.0
C      1  0.3954020000000  0.4785980000000  0.4684240000000 1.0
C      1  0.3951780000000  0.5172990000000  0.4650700000000 1.0
C      1  0.5221740000000  0.4046240000000  0.5253090000000 1.0
C      1  0.5216170000000  0.4457770000000  0.4160330000000 1.0
C      1  0.5217550000000  0.5624470000000  0.4211080000000 1.0
C      1  0.5213730000000  0.5924720000000  0.5363640000000 1.0
C      1  0.5225280000000  0.4943540000000  0.5998710000000 1.0
C      1  0.4983470000000  0.4804190000000  0.6128630000000 1.0
C      1  0.4973860000000  0.3885710000000  0.5162740000000 1.0
C      1  0.4971780000000  0.4491430000000  0.3975960000000 1.0
C      1  0.4974470000000  0.5809350000000  0.4193030000000 1.0
C      1  0.4969880000000  0.6004400000000  0.5531990000000 1.0
C      1  0.5101170000000  0.5326700000000  0.5657690000000 1.0
C      1  0.5108170000000  0.4528760000000  0.5497890000000 1.0
C      1  0.5100850000000  0.4372170000000  0.4694250000000 1.0
C      1  0.5097940000000  0.5081460000000  0.4302770000000 1.0
C      1  0.5112180000000  0.5679060000000  0.4882150000000 1.0
C      1  0.5467870000000  0.6099480000000  0.5123430000000 1.0
C      1  0.5470320000000  0.5228500000000  0.6091750000000 1.0
C      1  0.5473340000000  0.4040190000000  0.5549290000000 1.0
C      1  0.5459180000000  0.4171700000000  0.4254900000000 1.0
C      1  0.5474780000000  0.5450840000000  0.3980670000000 1.0
C      1  0.5885820000000  0.5794310000000  0.4929990000000 1.0
C      1  0.5885170000000  0.5325250000000  0.5737420000000 1.0
C      1  0.5889320000000  0.4396340000000  0.5520560000000 1.0
C      1  0.5879060000000  0.4314870000000  0.4582670000000 1.0
C      1  0.5876670000000  0.5189360000000  0.4242280000000 1.0
C      1  0.6056510000000  0.5259250000000  0.4897860000000 1.0
C      1  0.6069890000000  0.5178110000000  0.5221280000000 1.0
C      1  0.6066930000000  0.4849530000000  0.5231430000000 1.0
C      1  0.6051580000000  0.4741480000000  0.4917160000000 1.0
C      1  0.6051440000000  0.4992810000000  0.4719900000000 1.0
C      1  0.4499680000000  0.5863810000000  0.5616500000000 1.0
C      1  0.4507820000000  0.4667360000000  0.6056190000000 1.0
C      1  0.4490900000000  0.3930990000000  0.5022770000000 1.0
C      1  0.4496780000000  0.4649510000000  0.3968930000000 1.0
C      1  0.4502660000000  0.5861910000000  0.4342790000000 1.0
C      1  0.5448320000000  0.5564360000000  0.5739100000000 1.0
C      1  0.5461090000000  0.4484440000000  0.5743900000000 1.0
C      1  0.5446710000000  0.4121810000000  0.4737910000000 1.0
C      1  0.5455470000000  0.4971150000000  0.4083390000000 1.0
C      1  0.5498080000000  0.5969730000000  0.4655610000000 1.0
C      1  0.4810460000000  0.5197200000000  0.4406680000000 1.0
C      1  0.4832250000000  0.5653620000000  0.5006050000000 1.0
C      1  0.4823060000000  0.5164200000000  0.5639330000000 1.0
C      1  0.4814650000000  0.4513120000000  0.5339520000000 1.0
C      1  0.4821140000000  0.4489360000000  0.4607220000000 1.0
C      1  0.5197760000000  0.6143490000000  0.4994130000000 1.0
C      1  0.5198360000000  0.5361120000000  0.6112740000000 1.0
C      1  0.5205190000000  0.4069270000000  0.5684280000000 1.0
C      1  0.5185200000000  0.4058230000000  0.4324430000000 1.0
C      1  0.5205260000000  0.5346360000000  0.3880690000000 1.0
C      1  0.4688090000000  0.5163890000000  0.4777500000000 1.0
C      1  0.4697940000000  0.5243220000000  0.5100180000000 1.0
C      1  0.4585450000000  0.5014400000000  0.5231560000000 1.0
C      1  0.4688860000000  0.4771490000000  0.5074450000000 1.0
C      1  0.4592280000000  0.4869670000000  0.4811400000000 1.0
C      1  0.4545010000000  0.3975270000000  0.5309490000000 1.0
C      1  0.4537510000000  0.4390580000000  0.4099010000000 1.0
C      1  0.4547280000000  0.5653750000000  0.4139260000000 1.0
C      1  0.4543040000000  0.5997720000000  0.5361620000000 1.0
C      1  0.4548690000000  0.4954990000000  0.6101550000000 1.0
C      1  0.4925640000000  0.6062090000000  0.4603910000000 1.0
C      1  0.4903930000000  0.5702690000000  0.5910770000000 1.0
C      1  0.4920100000000  0.4356770000000  0.5954280000000 1.0
C      1  0.4893960000000  0.3907590000000  0.4687360000000 1.0
C      1  0.4912050000000  0.4952270000000  0.3846340000000 1.0
C      1  0.4295950000000  0.5892450000000  0.4988060000000 1.0
C      1  0.4290160000000  0.5271030000000  0.5866490000000 1.0
C      1  0.4305260000000  0.4256550000000  0.5555250000000 1.0
C      1  0.4278820000000  0.4286000000000  0.4484830000000 1.0
C      1  0.4303560000000  0.5284830000000  0.4113530000000 1.0
C      1  0.5103000000000  0.4942030000000  0.5243640000000 1.0
C      1  0.5004680000000  0.4759720000000  0.5016300000000 1.0
C      1  0.5095480000000  0.4913780000000  0.4757820000000 1.0
C      1  0.5011090000000  0.5199640000000  0.4800400000000 1.0
C      1  0.5011600000000  0.5230940000000  0.5166910000000 1.0
C      1  0.5611400000000  0.5759530000000  0.5578600000000 1.0
C      1  0.5623270000000  0.4685210000000  0.5896920000000 1.0
C      1  0.5613070000000  0.4050840000000  0.4975460000000 1.0
C      1  0.5619190000000  0.4721630000000  0.4092470000000 1.0
C      1  0.5607390000000  0.5775400000000  0.4455800000000 1.0
C      1  0.4646780000000  0.4630130000000  0.4377340000000 1.0
C      1  0.4641150000000  0.5464750000000  0.4461070000000 1.0
C      1  0.4663480000000  0.5641470000000  0.5277800000000 1.0
C      1  0.4642740000000  0.4922850000000  0.5730480000000 1.0
C      1  0.4637070000000  0.4318680000000  0.5157370000000 1.0
C      1  0.5782730000000  0.4720040000000  0.4352920000000 1.0
C      1  0.5719960000000  0.5521310000000  0.4583070000000 1.0
C      1  0.5766270000000  0.5610840000000  0.5360810000000 1.0
C      1  0.5791140000000  0.4841690000000  0.5698210000000 1.0
C      1  0.5778470000000  0.4293340000000  0.5057780000000 1.0
C      1  0.4916700000000  0.6083710000000  0.5073740000000 1.0
C      1  0.4926530000000  0.5263270000000  0.6057230000000 1.0
C      1  0.4928470000000  0.4074530000000  0.5585220000000 1.0
C      1  0.4912370000000  0.4172720000000  0.4310290000000 1.0
C      1  0.4926680000000  0.5402160000000  0.3963390000000 1.0
END
