TITL C-3577082-504-441 -2.12573610158959e-06 125000 -968.158614438379 0 0 155 (C1) n - 1
REM
REM in /home/bkarasulu/work/CARBON/AIRSS/Generating-Clusters/EDIP-Nigel-Params/with-SteepDescent/Higher-Symm/SD-CG/HFTN-CG
REM
REM
REM
REM
REM
REM ./C.cell (12c818d87b63d06a65506943cc24bca4)
REM
REM compiler GCC version 9.2.1 20190827 (Red Hat 9.2.1-1)
REM options -cpp -mtune=generic -march=x86-64 -g -O0 -fpre-include=/usr/include/finclude/math-vector-fortran.h
REM seed -921620512 -355655488 2136778035 654186235 -2051069159 -558272033 -2106515862 1457606547 1344763923 300892810 872681666 90830419 881417687 -46938118 295926400 -3807354 -140980069 -1144165474 -1520545053 859764927 -1277767257 52123275 -886978176 -703850459 -1693807007 666911483 -995581607 -1142663315 -245410395 435722729 318827730 103788695 1797595511
REM
CELL 1.54180   50.00000   50.00000   50.00000   90.00000   90.00000   90.00000
LATT -1
SFAC C  
C      1  0.4302530000000  0.4441320000000  0.4432580000000 1.0
C      1  0.4301460000000  0.5571520000000  0.5563510000000 1.0
C      1  0.5777390000000  0.5307110000000  0.4550930000000 1.0
C      1  0.5809400000000  0.4690090000000  0.5482510000000 1.0
C      1  0.5633550000000  0.5326740000000  0.5718270000000 1.0
C      1  0.5654110000000  0.4641580000000  0.4265160000000 1.0
C      1  0.4384630000000  0.5825730000000  0.5457610000000 1.0
C      1  0.4388820000000  0.4190150000000  0.4543650000000 1.0
C      1  0.5547830000000  0.4309830000000  0.5241660000000 1.0
C      1  0.5460480000000  0.5629110000000  0.4756120000000 1.0
C      1  0.5591200000000  0.5849900000000  0.5178330000000 1.0
C      1  0.5641170000000  0.4114610000000  0.4801110000000 1.0
C      1  0.5575030000000  0.5066830000000  0.5288220000000 1.0
C      1  0.5588330000000  0.4911340000000  0.4536050000000 1.0
C      1  0.5888680000000  0.4633910000000  0.4699100000000 1.0
C      1  0.5923510000000  0.5405670000000  0.5309890000000 1.0
C      1  0.4569000000000  0.4855280000000  0.5344170000000 1.0
C      1  0.4585070000000  0.5157620000000  0.4665500000000 1.0
C      1  0.4604480000000  0.5276730000000  0.5153280000000 1.0
C      1  0.4629350000000  0.4737630000000  0.4859550000000 1.0
C      1  0.5333800000000  0.4709350000000  0.4559850000000 1.0
C      1  0.5374440000000  0.5256780000000  0.5434120000000 1.0
C      1  0.4515820000000  0.4936500000000  0.4103600000000 1.0
C      1  0.4507990000000  0.5064850000000  0.5898640000000 1.0
C      1  0.5215300000000  0.4564810000000  0.5363360000000 1.0
C      1  0.5237190000000  0.5437500000000  0.4614060000000 1.0
C      1  0.4772310000000  0.4963010000000  0.5983290000000 1.0
C      1  0.4779540000000  0.5035740000000  0.4017260000000 1.0
C      1  0.5098310000000  0.4062160000000  0.5317330000000 1.0
C      1  0.5107250000000  0.5935040000000  0.4680370000000 1.0
C      1  0.5154020000000  0.6081660000000  0.4918930000000 1.0
C      1  0.5133210000000  0.3899210000000  0.5086050000000 1.0
C      1  0.4414390000000  0.4343840000000  0.5244550000000 1.0
C      1  0.4410260000000  0.5663770000000  0.4745650000000 1.0
C      1  0.4387590000000  0.4848210000000  0.5057370000000 1.0
C      1  0.4392140000000  0.5159660000000  0.4945700000000 1.0
C      1  0.4104680000000  0.5344050000000  0.4771330000000 1.0
C      1  0.4097750000000  0.4653140000000  0.5228810000000 1.0
C      1  0.5237220000000  0.4312240000000  0.5723500000000 1.0
C      1  0.5240570000000  0.5695120000000  0.4257420000000 1.0
C      1  0.5295470000000  0.4772560000000  0.6072520000000 1.0
C      1  0.5296690000000  0.5213740000000  0.3920410000000 1.0
C      1  0.4081110000000  0.5383900000000  0.5161830000000 1.0
C      1  0.4082060000000  0.4634380000000  0.4834770000000 1.0
C      1  0.6008340000000  0.4859570000000  0.4576250000000 1.0
C      1  0.6025960000000  0.5183900000000  0.5460690000000 1.0
C      1  0.3998210000000  0.5091150000000  0.5124000000000 1.0
C      1  0.3994560000000  0.4927600000000  0.4878010000000 1.0
C      1  0.4449370000000  0.4666530000000  0.5573940000000 1.0
C      1  0.4459610000000  0.5333930000000  0.4428780000000 1.0
C      1  0.4968270000000  0.4798810000000  0.3972970000000 1.0
C      1  0.4959730000000  0.5198180000000  0.6026530000000 1.0
C      1  0.5657030000000  0.5022660000000  0.4168890000000 1.0
C      1  0.5648200000000  0.4964130000000  0.5842700000000 1.0
C      1  0.5251910000000  0.5199100000000  0.5963190000000 1.0
C      1  0.5264030000000  0.4786460000000  0.4027400000000 1.0
C      1  0.4980000000000  0.4334890000000  0.4956180000000 1.0
C      1  0.4968350000000  0.5647780000000  0.5037700000000 1.0
C      1  0.5409800000000  0.5671020000000  0.5047590000000 1.0
C      1  0.5474280000000  0.4286080000000  0.4958740000000 1.0
C      1  0.4454170000000  0.4662710000000  0.4015740000000 1.0
C      1  0.4447700000000  0.5342250000000  0.5980150000000 1.0
C      1  0.6005270000000  0.4861950000000  0.5120160000000 1.0
C      1  0.6094760000000  0.5217610000000  0.4871600000000 1.0
C      1  0.4490690000000  0.5777900000000  0.5186710000000 1.0
C      1  0.4497330000000  0.4241410000000  0.4812690000000 1.0
C      1  0.4843200000000  0.4742690000000  0.4430970000000 1.0
C      1  0.4844110000000  0.5269910000000  0.5575540000000 1.0
C      1  0.5333450000000  0.5406230000000  0.4330170000000 1.0
C      1  0.5325670000000  0.4586610000000  0.5642990000000 1.0
C      1  0.4070110000000  0.4571770000000  0.4534700000000 1.0
C      1  0.4068910000000  0.5445650000000  0.5459850000000 1.0
C      1  0.5389720000000  0.5415860000000  0.5846980000000 1.0
C      1  0.5400610000000  0.4567920000000  0.4146260000000 1.0
C      1  0.6010220000000  0.5141400000000  0.4605040000000 1.0
C      1  0.5859470000000  0.4964260000000  0.5358930000000 1.0
C      1  0.4599830000000  0.5145110000000  0.5424890000000 1.0
C      1  0.4613300000000  0.4867500000000  0.4591150000000 1.0
C      1  0.5171220000000  0.4797740000000  0.5795810000000 1.0
C      1  0.5174850000000  0.5185680000000  0.4199060000000 1.0
C      1  0.4676200000000  0.5706650000000  0.4610870000000 1.0
C      1  0.4687570000000  0.4322290000000  0.5370540000000 1.0
C      1  0.5722320000000  0.5509300000000  0.5494970000000 1.0
C      1  0.5716090000000  0.4490880000000  0.4510810000000 1.0
C      1  0.5542170000000  0.4856840000000  0.4860710000000 1.0
C      1  0.5557190000000  0.5116680000000  0.5004040000000 1.0
C      1  0.4650000000000  0.4420730000000  0.5642920000000 1.0
C      1  0.4653010000000  0.5579690000000  0.4346610000000 1.0
C      1  0.4723390000000  0.4441740000000  0.4813090000000 1.0
C      1  0.4709290000000  0.5569050000000  0.5190950000000 1.0
C      1  0.4906010000000  0.5543520000000  0.4208790000000 1.0
C      1  0.4896150000000  0.4450380000000  0.5791460000000 1.0
C      1  0.5320200000000  0.4151570000000  0.5486640000000 1.0
C      1  0.5322590000000  0.5856460000000  0.4499920000000 1.0
C      1  0.4977560000000  0.4321010000000  0.4155740000000 1.0
C      1  0.4972390000000  0.5678060000000  0.5850140000000 1.0
C      1  0.5735720000000  0.5509980000000  0.4750600000000 1.0
C      1  0.5752520000000  0.4517030000000  0.5248490000000 1.0
C      1  0.4900830000000  0.5254810000000  0.4173640000000 1.0
C      1  0.4894120000000  0.4739300000000  0.5830300000000 1.0
C      1  0.5383340000000  0.5858270000000  0.5619690000000 1.0
C      1  0.5387300000000  0.4134190000000  0.4388220000000 1.0
C      1  0.4298160000000  0.4352110000000  0.4980360000000 1.0
C      1  0.4294360000000  0.5665770000000  0.5011640000000 1.0
C      1  0.4419880000000  0.4422180000000  0.4167210000000 1.0
C      1  0.4418570000000  0.5585080000000  0.5829000000000 1.0
C      1  0.5279570000000  0.5194560000000  0.4980310000000 1.0
C      1  0.5252370000000  0.4753810000000  0.4967440000000 1.0
C      1  0.5242020000000  0.5433180000000  0.5164880000000 1.0
C      1  0.5243710000000  0.4471700000000  0.4849970000000 1.0
C      1  0.5259500000000  0.4337540000000  0.4225720000000 1.0
C      1  0.5253770000000  0.5653750000000  0.5779120000000 1.0
C      1  0.5884250000000  0.4628380000000  0.5000440000000 1.0
C      1  0.5862570000000  0.5360680000000  0.4999030000000 1.0
C      1  0.5119800000000  0.4915170000000  0.4471910000000 1.0
C      1  0.5133300000000  0.5086060000000  0.5552210000000 1.0
C      1  0.4328930000000  0.5119070000000  0.4250830000000 1.0
C      1  0.4318410000000  0.4874760000000  0.5762590000000 1.0
C      1  0.5245830000000  0.3903430000000  0.4467000000000 1.0
C      1  0.5240010000000  0.6092290000000  0.5549160000000 1.0
C      1  0.4858510000000  0.5255130000000  0.4762510000000 1.0
C      1  0.4839380000000  0.4770220000000  0.5252720000000 1.0
C      1  0.5117640000000  0.4838410000000  0.5333330000000 1.0
C      1  0.5139080000000  0.5171700000000  0.4705350000000 1.0
C      1  0.4853870000000  0.5796330000000  0.5599020000000 1.0
C      1  0.4855800000000  0.4209140000000  0.4405430000000 1.0
C      1  0.4839960000000  0.5544120000000  0.5448680000000 1.0
C      1  0.4844850000000  0.4466050000000  0.4553150000000 1.0
C      1  0.4809930000000  0.5403820000000  0.5869290000000 1.0
C      1  0.4814570000000  0.4596500000000  0.4130970000000 1.0
C      1  0.5592340000000  0.5762790000000  0.5441690000000 1.0
C      1  0.5616210000000  0.4221180000000  0.4544470000000 1.0
C      1  0.4877780000000  0.4868920000000  0.4980700000000 1.0
C      1  0.4840940000000  0.5161370000000  0.5030800000000 1.0
C      1  0.4049160000000  0.4911320000000  0.5335880000000 1.0
C      1  0.4000660000000  0.5102990000000  0.4652350000000 1.0
C      1  0.3977450000000  0.4753000000000  0.4339340000000 1.0
C      1  0.3995920000000  0.5251120000000  0.5647120000000 1.0
C      1  0.4086880000000  0.4990570000000  0.5612600000000 1.0
C      1  0.4104010000000  0.4993740000000  0.4401860000000 1.0
C      1  0.5013110000000  0.5992140000000  0.5418440000000 1.0
C      1  0.5010960000000  0.4004800000000  0.4582790000000 1.0
C      1  0.5461060000000  0.4985790000000  0.3943070000000 1.0
C      1  0.5452180000000  0.5005630000000  0.6055570000000 1.0
C      1  0.4585650000000  0.4118330000000  0.4336170000000 1.0
C      1  0.4584170000000  0.5892600000000  0.5665620000000 1.0
C      1  0.4248830000000  0.4499630000000  0.5420490000000 1.0
C      1  0.4253250000000  0.5495680000000  0.4575240000000 1.0
C      1  0.5009690000000  0.4050520000000  0.4880520000000 1.0
C      1  0.5050520000000  0.5919730000000  0.5128540000000 1.0
C      1  0.5617520000000  0.4704310000000  0.5698960000000 1.0
C      1  0.5618310000000  0.5286350000000  0.4314140000000 1.0
C      1  0.4982760000000  0.4334420000000  0.5263730000000 1.0
C      1  0.4960590000000  0.5681230000000  0.4728000000000 1.0
C      1  0.6217890000000  0.5004910000000  0.5005120000000 1.0
END
