TITL C-3577084-3642-332 1.63003507861574e-06 125000 -1193.07165732205 0 0 194 (C1) n - 1
REM
REM in /home/bkarasulu/work/CARBON/AIRSS/Generating-Clusters/EDIP-Nigel-Params/with-SteepDescent/Higher-Symm/SD-CG/HFTN-CG
REM
REM
REM
REM
REM
REM ./C.cell (12c818d87b63d06a65506943cc24bca4)
REM
REM compiler GCC version 9.2.1 20190827 (Red Hat 9.2.1-1)
REM options -cpp -mtune=generic -march=x86-64 -g -O0 -fpre-include=/usr/include/finclude/math-vector-fortran.h
REM seed 346088095 -1024784108 1597373102 513927175 849105091 144956490 463908121 -1883700698 939536034 -760804936 -307530270 309842895 1091772963 969647022 -169180184 401055917 -538384354 -2065445303 435681990 1509347300 119755769 798037435 -522988895 363339546 -1843594698 118718770 906629095 1364766702 1666916220 -747512393 1005645419 -1420307965 -242951259
REM
CELL 1.54180   50.00000   50.00000   50.00000   90.00000   90.00000   90.00000
LATT -1
SFAC C  
C      1  0.3867630000000  0.5094380000000  0.5100380000000 1.0
C      1  0.4704750000000  0.5112210000000  0.6125100000000 1.0
C      1  0.5970660000000  0.5020340000000  0.5617710000000 1.0
C      1  0.5873380000000  0.5102140000000  0.4273850000000 1.0
C      1  0.4561950000000  0.5085750000000  0.3924270000000 1.0
C      1  0.4391360000000  0.5105520000000  0.5029260000000 1.0
C      1  0.4814130000000  0.5003720000000  0.5646700000000 1.0
C      1  0.5480890000000  0.5131970000000  0.5358990000000 1.0
C      1  0.5508180000000  0.5060940000000  0.4613140000000 1.0
C      1  0.4774480000000  0.5049550000000  0.4407870000000 1.0
C      1  0.4908520000000  0.4529120000000  0.5931490000000 1.0
C      1  0.5623930000000  0.4593290000000  0.5354150000000 1.0
C      1  0.5592280000000  0.4569770000000  0.4490370000000 1.0
C      1  0.4691380000000  0.4538140000000  0.4321930000000 1.0
C      1  0.4284670000000  0.4576890000000  0.5124570000000 1.0
C      1  0.4824140000000  0.4725600000000  0.4811010000000 1.0
C      1  0.4754440000000  0.4769340000000  0.5121070000000 1.0
C      1  0.5021180000000  0.4769630000000  0.5271020000000 1.0
C      1  0.5258320000000  0.4783720000000  0.5067720000000 1.0
C      1  0.5141200000000  0.4733240000000  0.4778490000000 1.0
C      1  0.5968270000000  0.4878480000000  0.4427860000000 1.0
C      1  0.4736620000000  0.4851090000000  0.3931680000000 1.0
C      1  0.3918960000000  0.4862630000000  0.4936790000000 1.0
C      1  0.4622060000000  0.4829990000000  0.6063270000000 1.0
C      1  0.5813050000000  0.4810320000000  0.5730920000000 1.0
C      1  0.4798430000000  0.5957110000000  0.5658230000000 1.0
C      1  0.5585480000000  0.5951610000000  0.5419650000000 1.0
C      1  0.5570360000000  0.5938490000000  0.4553050000000 1.0
C      1  0.4771390000000  0.5939300000000  0.4305340000000 1.0
C      1  0.4287860000000  0.5948880000000  0.4989860000000 1.0
C      1  0.4635960000000  0.4051230000000  0.5708280000000 1.0
C      1  0.5511220000000  0.4073140000000  0.5419210000000 1.0
C      1  0.5648370000000  0.4013440000000  0.4552310000000 1.0
C      1  0.4845450000000  0.4062590000000  0.4188860000000 1.0
C      1  0.4248970000000  0.4099510000000  0.4915980000000 1.0
C      1  0.5156850000000  0.5271680000000  0.6071440000000 1.0
C      1  0.6010880000000  0.5215420000000  0.5201130000000 1.0
C      1  0.5457250000000  0.5234890000000  0.4112660000000 1.0
C      1  0.4284460000000  0.5236910000000  0.4274600000000 1.0
C      1  0.4127800000000  0.5249090000000  0.5459280000000 1.0
C      1  0.5063420000000  0.5635030000000  0.4097510000000 1.0
C      1  0.4173420000000  0.5640260000000  0.4654090000000 1.0
C      1  0.4426500000000  0.5662510000000  0.5663730000000 1.0
C      1  0.5445490000000  0.5580890000000  0.5695020000000 1.0
C      1  0.5823040000000  0.5637860000000  0.4810560000000 1.0
C      1  0.4938070000000  0.4271850000000  0.4566450000000 1.0
C      1  0.4701510000000  0.4286920000000  0.4997050000000 1.0
C      1  0.4752120000000  0.4374210000000  0.5427750000000 1.0
C      1  0.5199360000000  0.4332430000000  0.5255950000000 1.0
C      1  0.5520480000000  0.4416380000000  0.4894660000000 1.0
C      1  0.5547150000000  0.5315590000000  0.5757390000000 1.0
C      1  0.5946990000000  0.5404320000000  0.4697530000000 1.0
C      1  0.4990530000000  0.5382370000000  0.3970540000000 1.0
C      1  0.4029350000000  0.5389540000000  0.4695150000000 1.0
C      1  0.4404850000000  0.5416980000000  0.5826580000000 1.0
C      1  0.5329420000000  0.4763870000000  0.5699770000000 1.0
C      1  0.5889530000000  0.4744880000000  0.4859720000000 1.0
C      1  0.5117860000000  0.4758760000000  0.4204420000000 1.0
C      1  0.4278010000000  0.4774040000000  0.4669040000000 1.0
C      1  0.4375720000000  0.4735350000000  0.5631110000000 1.0
C      1  0.4151890000000  0.4712390000000  0.5388000000000 1.0
C      1  0.5070800000000  0.4775610000000  0.6084350000000 1.0
C      1  0.5900760000000  0.4627140000000  0.5227620000000 1.0
C      1  0.5555950000000  0.4686380000000  0.4210980000000 1.0
C      1  0.4413420000000  0.4636730000000  0.4198200000000 1.0
C      1  0.6258480000000  0.4816760000000  0.4417930000000 1.0
C      1  0.4834960000000  0.4732260000000  0.3678530000000 1.0
C      1  0.3699630000000  0.4753820000000  0.4769720000000 1.0
C      1  0.4384210000000  0.4723510000000  0.6199130000000 1.0
C      1  0.5789800000000  0.4791960000000  0.6007200000000 1.0
C      1  0.4372730000000  0.5456640000000  0.5095000000000 1.0
C      1  0.4874470000000  0.5436510000000  0.5594710000000 1.0
C      1  0.5586400000000  0.5446840000000  0.5252250000000 1.0
C      1  0.5445330000000  0.5436630000000  0.4546810000000 1.0
C      1  0.4707340000000  0.5435850000000  0.4411220000000 1.0
C      1  0.5020740000000  0.5503260000000  0.5952070000000 1.0
C      1  0.5870960000000  0.5413160000000  0.5367130000000 1.0
C      1  0.5534510000000  0.5475330000000  0.4258200000000 1.0
C      1  0.4455360000000  0.5472660000000  0.4243770000000 1.0
C      1  0.4134580000000  0.5485620000000  0.5283720000000 1.0
C      1  0.4697600000000  0.5691040000000  0.5532940000000 1.0
C      1  0.5434480000000  0.5671640000000  0.5410810000000 1.0
C      1  0.5544550000000  0.5680660000000  0.4719990000000 1.0
C      1  0.4914540000000  0.5669580000000  0.4353620000000 1.0
C      1  0.4379070000000  0.5679880000000  0.4865690000000 1.0
C      1  0.4629290000000  0.5160380000000  0.5481440000000 1.0
C      1  0.5196030000000  0.5180260000000  0.5428030000000 1.0
C      1  0.5529540000000  0.5184220000000  0.4897380000000 1.0
C      1  0.5054700000000  0.5139020000000  0.4472720000000 1.0
C      1  0.4530800000000  0.5156300000000  0.4769750000000 1.0
C      1  0.5573620000000  0.4838820000000  0.5540150000000 1.0
C      1  0.5723530000000  0.4818890000000  0.4612450000000 1.0
C      1  0.4824400000000  0.4806160000000  0.4224430000000 1.0
C      1  0.4225260000000  0.4834760000000  0.4953200000000 1.0
C      1  0.4665450000000  0.4780790000000  0.5762900000000 1.0
C      1  0.5561670000000  0.4736420000000  0.6137760000000 1.0
C      1  0.6280260000000  0.4981400000000  0.4636640000000 1.0
C      1  0.5048750000000  0.4902610000000  0.3708410000000 1.0
C      1  0.3795280000000  0.4918110000000  0.4571540000000 1.0
C      1  0.4244780000000  0.4924570000000  0.6076410000000 1.0
C      1  0.4346580000000  0.5193910000000  0.5643200000000 1.0
C      1  0.5402700000000  0.5165090000000  0.5969140000000 1.0
C      1  0.5919240000000  0.5193430000000  0.4915780000000 1.0
C      1  0.5171340000000  0.5187080000000  0.4106410000000 1.0
C      1  0.4210330000000  0.5195440000000  0.4553790000000 1.0
C      1  0.5100020000000  0.4116430000000  0.5565150000000 1.0
C      1  0.5719690000000  0.4199260000000  0.4979090000000 1.0
C      1  0.5215670000000  0.4131790000000  0.4419680000000 1.0
C      1  0.4409660000000  0.4091970000000  0.4435660000000 1.0
C      1  0.4287820000000  0.4079080000000  0.5400350000000 1.0
C      1  0.4685240000000  0.5648250000000  0.5214290000000 1.0
C      1  0.5097840000000  0.5636490000000  0.5326630000000 1.0
C      1  0.5320410000000  0.5655880000000  0.4978640000000 1.0
C      1  0.5118220000000  0.5623470000000  0.4607400000000 1.0
C      1  0.4682350000000  0.5626910000000  0.4731500000000 1.0
C      1  0.5125710000000  0.6067730000000  0.5391010000000 1.0
C      1  0.5481390000000  0.6062970000000  0.5010460000000 1.0
C      1  0.5151600000000  0.6060760000000  0.4582980000000 1.0
C      1  0.4646130000000  0.6062510000000  0.4705750000000 1.0
C      1  0.4630450000000  0.6084350000000  0.5227350000000 1.0
C      1  0.5375550000000  0.3988770000000  0.4627680000000 1.0
C      1  0.4685320000000  0.4024770000000  0.4421290000000 1.0
C      1  0.4419970000000  0.4061030000000  0.5140070000000 1.0
C      1  0.4838070000000  0.4005740000000  0.5515040000000 1.0
C      1  0.5533270000000  0.4018080000000  0.5127930000000 1.0
C      1  0.5612450000000  0.4993500000000  0.4187150000000 1.0
C      1  0.4369060000000  0.4993060000000  0.4128110000000 1.0
C      1  0.4017150000000  0.5009940000000  0.5343150000000 1.0
C      1  0.4987160000000  0.5053500000000  0.6172020000000 1.0
C      1  0.6039920000000  0.4958880000000  0.5340520000000 1.0
C      1  0.5138970000000  0.4477120000000  0.4120770000000 1.0
C      1  0.4213050000000  0.4494820000000  0.4635530000000 1.0
C      1  0.4343510000000  0.4453250000000  0.5703730000000 1.0
C      1  0.5355940000000  0.4464530000000  0.5721350000000 1.0
C      1  0.6007740000000  0.4476760000000  0.4782850000000 1.0
C      1  0.4078620000000  0.4936290000000  0.4526550000000 1.0
C      1  0.4251310000000  0.4947340000000  0.5792860000000 1.0
C      1  0.5350040000000  0.4863740000000  0.5984920000000 1.0
C      1  0.6088050000000  0.4959170000000  0.4848560000000 1.0
C      1  0.5173770000000  0.4928150000000  0.3967400000000 1.0
C      1  0.4294520000000  0.3985540000000  0.4665420000000 1.0
C      1  0.4397850000000  0.3938130000000  0.5618080000000 1.0
C      1  0.5318180000000  0.3923170000000  0.5566170000000 1.0
C      1  0.5826270000000  0.4031260000000  0.4761910000000 1.0
C      1  0.5104150000000  0.3947220000000  0.4218170000000 1.0
C      1  0.4187950000000  0.4378840000000  0.4902750000000 1.0
C      1  0.4631670000000  0.4352210000000  0.5721860000000 1.0
C      1  0.5551630000000  0.4352190000000  0.5524320000000 1.0
C      1  0.5816860000000  0.4360210000000  0.4566660000000 1.0
C      1  0.4863940000000  0.4354890000000  0.4142640000000 1.0
C      1  0.4502990000000  0.5926980000000  0.4456930000000 1.0
C      1  0.4353280000000  0.5934670000000  0.5288350000000 1.0
C      1  0.5098550000000  0.5920470000000  0.5665730000000 1.0
C      1  0.5744200000000  0.5953290000000  0.5155410000000 1.0
C      1  0.5336160000000  0.5924200000000  0.4362710000000 1.0
C      1  0.4882060000000  0.6143830000000  0.4521220000000 1.0
C      1  0.4516850000000  0.6158160000000  0.4944520000000 1.0
C      1  0.4828910000000  0.6169030000000  0.5421270000000 1.0
C      1  0.5379920000000  0.6158610000000  0.5292400000000 1.0
C      1  0.5425590000000  0.6143770000000  0.4735200000000 1.0
C      1  0.5967490000000  0.4369480000000  0.5069230000000 1.0
C      1  0.5363740000000  0.4352840000000  0.4258540000000 1.0
C      1  0.4337280000000  0.4384280000000  0.4393010000000 1.0
C      1  0.4193780000000  0.4336400000000  0.5487810000000 1.0
C      1  0.5107320000000  0.4330940000000  0.5790280000000 1.0
C      1  0.5256200000000  0.5353410000000  0.4951140000000 1.0
C      1  0.5046480000000  0.5335900000000  0.4714070000000 1.0
C      1  0.4762760000000  0.5350640000000  0.4843160000000 1.0
C      1  0.4796940000000  0.5374160000000  0.5142320000000 1.0
C      1  0.5085970000000  0.5351360000000  0.5212600000000 1.0
C      1  0.5849130000000  0.5687980000000  0.5093600000000 1.0
C      1  0.5346470000000  0.5699470000000  0.4167180000000 1.0
C      1  0.4318800000000  0.5699300000000  0.4398560000000 1.0
C      1  0.4227030000000  0.5720310000000  0.5451580000000 1.0
C      1  0.5189860000000  0.5670160000000  0.5782830000000 1.0
C      1  0.5013380000000  0.4510750000000  0.5395640000000 1.0
C      1  0.5409780000000  0.4535980000000  0.5143620000000 1.0
C      1  0.5244900000000  0.4440630000000  0.4736330000000 1.0
C      1  0.4759490000000  0.4436300000000  0.4746410000000 1.0
C      1  0.4599110000000  0.4508780000000  0.5184120000000 1.0
C      1  0.4678810000000  0.5328520000000  0.5911940000000 1.0
C      1  0.5809990000000  0.5268600000000  0.5623480000000 1.0
C      1  0.5854970000000  0.5360590000000  0.4415680000000 1.0
C      1  0.4695170000000  0.5341110000000  0.3986050000000 1.0
C      1  0.3955700000000  0.5352410000000  0.4984480000000 1.0
C      1  0.5468070000000  0.4991650000000  0.5101940000000 1.0
C      1  0.5239460000000  0.4911380000000  0.4541740000000 1.0
C      1  0.4638390000000  0.4909590000000  0.4639540000000 1.0
C      1  0.4587950000000  0.5001630000000  0.5219320000000 1.0
C      1  0.5072970000000  0.4934080000000  0.5520400000000 1.0
C      1  0.5148250000000  0.3756260000000  0.4982140000000 1.0
C      1  0.4972110000000  0.5727060000000  0.4957130000000 1.0
C      1  0.5087030000000  0.4241780000000  0.4970630000000 1.0
C      1  0.5283240000000  0.3986470000000  0.4927360000000 1.0
END
