TITL C-3577088-510-478 -1.57311034160905e-06 125000 -814.408137259548 0 0 130 (C1) n - 1
REM
REM in /home/bkarasulu/work/CARBON/AIRSS/Generating-Clusters/EDIP-Nigel-Params/with-SteepDescent/Higher-Symm/SD-CG/HFTN-CG
REM
REM
REM
REM
REM
REM ./C.cell (12c818d87b63d06a65506943cc24bca4)
REM
REM compiler GCC version 9.2.1 20190827 (Red Hat 9.2.1-1)
REM options -cpp -mtune=generic -march=x86-64 -g -O0 -fpre-include=/usr/include/finclude/math-vector-fortran.h
REM seed 845404332 788392963 2016839923 1756971217 -1170391965 -1659258184 -1817964922 1999737565 -1410346860 287753185 1292229134 -2141461814 1378859265 1310224505 481847479 -960228037 2087419623 -1970012962 -1767759431 2062932811 -1915024783 -1562415810 482501386 483390298 1597727694 1558989893 1582960339 1569322754 -1343847300 -582273263 627089365 1485508007 1878729499
REM
CELL 1.54180   50.00000   50.00000   50.00000   90.00000   90.00000   90.00000
LATT -1
SFAC C  
C      1  0.4864770000000  0.4518960000000  0.5242540000000 1.0
C      1  0.4927960000000  0.5687470000000  0.4830620000000 1.0
C      1  0.5074190000000  0.4317060000000  0.5175940000000 1.0
C      1  0.5143150000000  0.5489000000000  0.4766660000000 1.0
C      1  0.4917010000000  0.4321850000000  0.4823220000000 1.0
C      1  0.4876530000000  0.5487700000000  0.5260160000000 1.0
C      1  0.5125750000000  0.4523870000000  0.4755540000000 1.0
C      1  0.5083600000000  0.5689730000000  0.5184290000000 1.0
C      1  0.4649860000000  0.4476910000000  0.4824510000000 1.0
C      1  0.4612130000000  0.5477080000000  0.5129930000000 1.0
C      1  0.5394960000000  0.4515590000000  0.4877190000000 1.0
C      1  0.5352860000000  0.5537140000000  0.5178120000000 1.0
C      1  0.4597350000000  0.4520840000000  0.5115120000000 1.0
C      1  0.4668520000000  0.5521610000000  0.4836710000000 1.0
C      1  0.5341290000000  0.4473330000000  0.5169000000000 1.0
C      1  0.5409820000000  0.5496790000000  0.4886850000000 1.0
C      1  0.5025600000000  0.4782420000000  0.4689110000000 1.0
C      1  0.5281770000000  0.5240630000000  0.5302730000000 1.0
C      1  0.4722370000000  0.4768910000000  0.4686990000000 1.0
C      1  0.4980720000000  0.5226430000000  0.5312180000000 1.0
C      1  0.5271960000000  0.4770040000000  0.5295050000000 1.0
C      1  0.5052950000000  0.5225790000000  0.4708230000000 1.0
C      1  0.4968930000000  0.4782440000000  0.5295530000000 1.0
C      1  0.4754450000000  0.5240870000000  0.4699360000000 1.0
C      1  0.4463830000000  0.5201550000000  0.5190270000000 1.0
C      1  0.4248570000000  0.4828280000000  0.4626170000000 1.0
C      1  0.5743350000000  0.5150270000000  0.5353780000000 1.0
C      1  0.5547820000000  0.4782620000000  0.4837360000000 1.0
C      1  0.4322830000000  0.5103940000000  0.4683080000000 1.0
C      1  0.4442870000000  0.4792980000000  0.5158450000000 1.0
C      1  0.5559170000000  0.5229680000000  0.4845400000000 1.0
C      1  0.5742680000000  0.4858960000000  0.5352420000000 1.0
C      1  0.5559810000000  0.4355390000000  0.4444780000000 1.0
C      1  0.5574340000000  0.5727310000000  0.5574130000000 1.0
C      1  0.4436310000000  0.4271370000000  0.4426940000000 1.0
C      1  0.4463810000000  0.5660680000000  0.5547990000000 1.0
C      1  0.5562150000000  0.4282940000000  0.5565900000000 1.0
C      1  0.5568010000000  0.5650750000000  0.4451360000000 1.0
C      1  0.4453140000000  0.4353600000000  0.5537890000000 1.0
C      1  0.4438560000000  0.5693430000000  0.4436890000000 1.0
C      1  0.5573820000000  0.4303750000000  0.4745170000000 1.0
C      1  0.5582200000000  0.5714990000000  0.5281660000000 1.0
C      1  0.4421220000000  0.4295690000000  0.4720770000000 1.0
C      1  0.4428910000000  0.5691000000000  0.5247920000000 1.0
C      1  0.5570810000000  0.4296610000000  0.5273160000000 1.0
C      1  0.5586520000000  0.5707590000000  0.4751590000000 1.0
C      1  0.4421640000000  0.4305270000000  0.5241140000000 1.0
C      1  0.4428540000000  0.5679790000000  0.4729200000000 1.0
C      1  0.5291060000000  0.5721030000000  0.5655260000000 1.0
C      1  0.5289610000000  0.4319130000000  0.4329170000000 1.0
C      1  0.4746210000000  0.5686780000000  0.5634630000000 1.0
C      1  0.4721870000000  0.4278450000000  0.4351160000000 1.0
C      1  0.5296290000000  0.5680970000000  0.4333510000000 1.0
C      1  0.5279170000000  0.4292530000000  0.5648250000000 1.0
C      1  0.4723280000000  0.5705890000000  0.4356120000000 1.0
C      1  0.4734750000000  0.4332270000000  0.5624640000000 1.0
C      1  0.4870860000000  0.5929700000000  0.5567570000000 1.0
C      1  0.4897210000000  0.4151070000000  0.4562990000000 1.0
C      1  0.5113170000000  0.5856270000000  0.5449240000000 1.0
C      1  0.5146560000000  0.4108430000000  0.4445290000000 1.0
C      1  0.4898560000000  0.5845850000000  0.4562040000000 1.0
C      1  0.4858900000000  0.4087190000000  0.5565360000000 1.0
C      1  0.5146750000000  0.5891420000000  0.4441890000000 1.0
C      1  0.5101150000000  0.4155910000000  0.5444640000000 1.0
C      1  0.5206070000000  0.5435000000000  0.5750180000000 1.0
C      1  0.5144330000000  0.4585800000000  0.4256100000000 1.0
C      1  0.4881660000000  0.5421020000000  0.5738420000000 1.0
C      1  0.4809200000000  0.4563630000000  0.4248780000000 1.0
C      1  0.5155020000000  0.5411510000000  0.4262880000000 1.0
C      1  0.5193850000000  0.4579430000000  0.5741700000000 1.0
C      1  0.4821350000000  0.5426750000000  0.4254210000000 1.0
C      1  0.4867250000000  0.4597970000000  0.5725940000000 1.0
C      1  0.4084850000000  0.4668880000000  0.4809650000000 1.0
C      1  0.4178310000000  0.5278630000000  0.5141670000000 1.0
C      1  0.5837540000000  0.4699350000000  0.4881520000000 1.0
C      1  0.5911650000000  0.5321710000000  0.5184520000000 1.0
C      1  0.4153920000000  0.4699370000000  0.5108150000000 1.0
C      1  0.4124850000000  0.5271880000000  0.4844620000000 1.0
C      1  0.5904320000000  0.4687160000000  0.5176300000000 1.0
C      1  0.5849160000000  0.5310000000000  0.4890100000000 1.0
C      1  0.4287750000000  0.4471570000000  0.4297450000000 1.0
C      1  0.4365660000000  0.5410990000000  0.5633970000000 1.0
C      1  0.5656220000000  0.4612880000000  0.4380540000000 1.0
C      1  0.5719900000000  0.5513260000000  0.5679580000000 1.0
C      1  0.4348450000000  0.4605100000000  0.5610050000000 1.0
C      1  0.4300150000000  0.5474720000000  0.4327650000000 1.0
C      1  0.5712030000000  0.4492290000000  0.5674440000000 1.0
C      1  0.5670340000000  0.5394740000000  0.4390300000000 1.0
C      1  0.4151840000000  0.4384510000000  0.5141410000000 1.0
C      1  0.4157070000000  0.5591690000000  0.4833270000000 1.0
C      1  0.5846940000000  0.4364680000000  0.5168230000000 1.0
C      1  0.5853160000000  0.5621610000000  0.4863550000000 1.0
C      1  0.4141470000000  0.4359530000000  0.4826730000000 1.0
C      1  0.4163020000000  0.5590620000000  0.5148960000000 1.0
C      1  0.5840810000000  0.4387980000000  0.4855710000000 1.0
C      1  0.5857920000000  0.5644480000000  0.5176830000000 1.0
C      1  0.5211960000000  0.4840820000000  0.4452440000000 1.0
C      1  0.5359090000000  0.5191840000000  0.5600600000000 1.0
C      1  0.4648450000000  0.4800970000000  0.4387770000000 1.0
C      1  0.4805780000000  0.5165690000000  0.5558840000000 1.0
C      1  0.5351540000000  0.4817700000000  0.5593900000000 1.0
C      1  0.5227370000000  0.5169300000000  0.4465900000000 1.0
C      1  0.4789450000000  0.4842140000000  0.5537680000000 1.0
C      1  0.4681800000000  0.5186240000000  0.4403960000000 1.0
C      1  0.4832020000000  0.4622650000000  0.3942330000000 1.0
C      1  0.4880460000000  0.5376770000000  0.6046380000000 1.0
C      1  0.5132720000000  0.4633180000000  0.3951800000000 1.0
C      1  0.5185160000000  0.5379300000000  0.6059400000000 1.0
C      1  0.4865930000000  0.4646640000000  0.6033760000000 1.0
C      1  0.4843660000000  0.5366400000000  0.3948700000000 1.0
C      1  0.5169370000000  0.4635340000000  0.6049230000000 1.0
C      1  0.5145020000000  0.5355950000000  0.3958010000000 1.0
C      1  0.4757650000000  0.4879570000000  0.6136390000000 1.0
C      1  0.4732110000000  0.5130080000000  0.3852710000000 1.0
C      1  0.5279170000000  0.4870570000000  0.6148790000000 1.0
C      1  0.5255380000000  0.5126400000000  0.3851450000000 1.0
C      1  0.4725040000000  0.4862320000000  0.3849290000000 1.0
C      1  0.4766530000000  0.5145440000000  0.6146600000000 1.0
C      1  0.5244850000000  0.4861030000000  0.3843260000000 1.0
C      1  0.5286250000000  0.5137950000000  0.6153450000000 1.0
C      1  0.5514930000000  0.5220930000000  0.4546640000000 1.0
C      1  0.5642570000000  0.4754000000000  0.5604780000000 1.0
C      1  0.4389830000000  0.5223490000000  0.4410010000000 1.0
C      1  0.4497690000000  0.4787780000000  0.5458280000000 1.0
C      1  0.5649990000000  0.5251830000000  0.5609780000000 1.0
C      1  0.5498130000000  0.4784500000000  0.4536790000000 1.0
C      1  0.4516690000000  0.5224500000000  0.5488030000000 1.0
C      1  0.4354350000000  0.4733220000000  0.4372440000000 1.0
C      1  0.5418170000000  0.5005730000000  0.5094340000000 1.0
C      1  0.4589880000000  0.5017170000000  0.4842090000000 1.0
END
