TITL C-3578202-4305-676 -8.69496302579821e-08 125000 -71.6893308525927 0 0 13 (S4) n - 1
REM
REM in /home/bkarasulu/work/CARBON/AIRSS/Generating-Clusters/EDIP-Nigel-Params/with-SteepDescent/Higher-Symm/SD-CG/HFTN-CG
REM
REM
REM
REM
REM
REM ./C.cell (12c818d87b63d06a65506943cc24bca4)
REM
REM compiler GCC version 9.2.1 20190827 (Red Hat 9.2.1-1)
REM options -cpp -mtune=generic -march=x86-64 -g -O0 -fpre-include=/usr/include/finclude/math-vector-fortran.h
REM seed -1007459536 -553054639 -1341280385 -1143037444 937675979 -1973365594 -819361950 502988445 -2094446431 636103865 1290469334 -230762822 -722765850 284684450 485380993 -115011945 1297773395 861804974 814330629 1187982631 -1393567521 795000867 -338528800 123784738 1591674944 2122280942 356846930 -363686812 -599522641 -957771558 639983364 -1563253440 -515512474
REM
CELL 1.54180   50.00000   50.00000   50.00000   90.00000   90.00000   90.00000
LATT -1
SFAC C  
C      1  0.4962510000000  0.5297640000000  0.5033080000000 1.0
C      1  0.5150010000000  0.4899890000000  0.5256270000000 1.0
C      1  0.5243540000000  0.4980200000000  0.4781230000000 1.0
C      1  0.4789220000000  0.4851720000000  0.4923570000000 1.0
C      1  0.5003600000000  0.4722450000000  0.5422930000000 1.0
C      1  0.5048850000000  0.5449250000000  0.5257250000000 1.0
C      1  0.4788410000000  0.4664230000000  0.4710170000000 1.0
C      1  0.5485970000000  0.5127500000000  0.4790440000000 1.0
C      1  0.4657230000000  0.4896180000000  0.4676270000000 1.0
C      1  0.5304420000000  0.5193520000000  0.4603790000000 1.0
C      1  0.5212620000000  0.4624610000000  0.5285490000000 1.0
C      1  0.4789450000000  0.5381170000000  0.5241950000000 1.0
C      1  0.5036320000000  0.5007360000000  0.4998540000000 1.0
END
