TITL C-3578197-9521-335 6.22763909657751e-07 125000 -460.51048973631 0 0 75 (C1) n - 1
REM
REM in /home/bkarasulu/work/CARBON/AIRSS/Generating-Clusters/EDIP-Nigel-Params/with-SteepDescent/Higher-Symm/SD-CG/HFTN-CG
REM
REM
REM
REM
REM
REM ./C.cell (12c818d87b63d06a65506943cc24bca4)
REM
REM compiler GCC version 9.2.1 20190827 (Red Hat 9.2.1-1)
REM options -cpp -mtune=generic -march=x86-64 -g -O0 -fpre-include=/usr/include/finclude/math-vector-fortran.h
REM seed -858993432 809531998 1735548386 686127428 -800895377 -716761966 -1506305911 1060570250 1673658036 408927316 1927903654 -1346464030 -711034673 -1982523030 -1647967337 1210092695 1651907067 720481978 854917782 -2010328024 -660564829 1851762142 1164591158 798873747 -131776268 255467467 -2082363620 -1469714372 -1739935943 1010921811 1167951068 -138910302 382771316
REM
CELL 1.54180   50.00000   50.00000   50.00000   90.00000   90.00000   90.00000
LATT -1
SFAC C  
C      1  0.4994160000000  0.5328850000000  0.5520270000000 1.0
C      1  0.5489560000000  0.5321400000000  0.4835920000000 1.0
C      1  0.4522030000000  0.5292710000000  0.4695180000000 1.0
C      1  0.5599080000000  0.4910020000000  0.4996080000000 1.0
C      1  0.4700060000000  0.4915870000000  0.4510050000000 1.0
C      1  0.4751180000000  0.4940530000000  0.5474230000000 1.0
C      1  0.4624760000000  0.5575450000000  0.4323820000000 1.0
C      1  0.4626070000000  0.5637230000000  0.5635810000000 1.0
C      1  0.5720040000000  0.5553940000000  0.5207200000000 1.0
C      1  0.4747630000000  0.4129760000000  0.5105230000000 1.0
C      1  0.5247590000000  0.4102940000000  0.5166170000000 1.0
C      1  0.5055030000000  0.4137180000000  0.4724540000000 1.0
C      1  0.5317060000000  0.4323860000000  0.4710680000000 1.0
C      1  0.4612030000000  0.4317490000000  0.4882190000000 1.0
C      1  0.5103570000000  0.4319270000000  0.5385630000000 1.0
C      1  0.4335530000000  0.5069910000000  0.4763140000000 1.0
C      1  0.5136210000000  0.5099850000000  0.5665610000000 1.0
C      1  0.5523120000000  0.5125640000000  0.4599440000000 1.0
C      1  0.4334670000000  0.4755650000000  0.5231200000000 1.0
C      1  0.5554120000000  0.4728470000000  0.5481470000000 1.0
C      1  0.5147370000000  0.4746840000000  0.4292780000000 1.0
C      1  0.5315660000000  0.5171870000000  0.5053490000000 1.0
C      1  0.4805860000000  0.5166220000000  0.4670670000000 1.0
C      1  0.4850340000000  0.5241940000000  0.5243860000000 1.0
C      1  0.4835780000000  0.5662680000000  0.4493850000000 1.0
C      1  0.4681520000000  0.5684430000000  0.5362810000000 1.0
C      1  0.5457570000000  0.5688130000000  0.5239730000000 1.0
C      1  0.4918650000000  0.4713200000000  0.4484380000000 1.0
C      1  0.4612990000000  0.4720910000000  0.5334130000000 1.0
C      1  0.5512970000000  0.4701110000000  0.5184340000000 1.0
C      1  0.5387580000000  0.5316500000000  0.5311330000000 1.0
C      1  0.4934630000000  0.5360340000000  0.4453270000000 1.0
C      1  0.4613280000000  0.5437240000000  0.5196450000000 1.0
C      1  0.5156290000000  0.5587260000000  0.5464620000000 1.0
C      1  0.5333080000000  0.5574810000000  0.4780510000000 1.0
C      1  0.4565830000000  0.5514340000000  0.4900710000000 1.0
C      1  0.4963740000000  0.5771340000000  0.5322630000000 1.0
C      1  0.5331200000000  0.5787570000000  0.4991910000000 1.0
C      1  0.4794750000000  0.5683920000000  0.4797880000000 1.0
C      1  0.4811780000000  0.4258110000000  0.5373550000000 1.0
C      1  0.5430000000000  0.4250030000000  0.4974000000000 1.0
C      1  0.4793780000000  0.4267950000000  0.4657140000000 1.0
C      1  0.5794340000000  0.5104740000000  0.5115050000000 1.0
C      1  0.4648300000000  0.5086240000000  0.4257790000000 1.0
C      1  0.4567250000000  0.5157570000000  0.5581880000000 1.0
C      1  0.4742910000000  0.4756180000000  0.5066870000000 1.0
C      1  0.5218340000000  0.4766500000000  0.5197400000000 1.0
C      1  0.5087650000000  0.4759550000000  0.4729020000000 1.0
C      1  0.4508220000000  0.4625460000000  0.4915860000000 1.0
C      1  0.5183300000000  0.4641630000000  0.5473800000000 1.0
C      1  0.5339360000000  0.4643950000000  0.4604880000000 1.0
C      1  0.5384430000000  0.5148290000000  0.4358160000000 1.0
C      1  0.4134530000000  0.5095860000000  0.4957210000000 1.0
C      1  0.5404000000000  0.5085340000000  0.5742690000000 1.0
C      1  0.4456600000000  0.4813870000000  0.4675840000000 1.0
C      1  0.5000450000000  0.4848500000000  0.5616840000000 1.0
C      1  0.5561770000000  0.4850260000000  0.4698110000000 1.0
C      1  0.4650180000000  0.4464980000000  0.5452040000000 1.0
C      1  0.5583520000000  0.4443140000000  0.5092490000000 1.0
C      1  0.4803910000000  0.4456130000000  0.4458970000000 1.0
C      1  0.4496860000000  0.5327940000000  0.4384270000000 1.0
C      1  0.4739030000000  0.5382450000000  0.5681430000000 1.0
C      1  0.5753680000000  0.5368680000000  0.4980990000000 1.0
C      1  0.4410550000000  0.5253370000000  0.5343640000000 1.0
C      1  0.5676940000000  0.5209330000000  0.5384530000000 1.0
C      1  0.4928950000000  0.5197150000000  0.4192100000000 1.0
C      1  0.4260990000000  0.5034530000000  0.5198740000000 1.0
C      1  0.5614640000000  0.4990650000000  0.5587520000000 1.0
C      1  0.5181620000000  0.5023390000000  0.4207660000000 1.0
C      1  0.5034970000000  0.5838880000000  0.5043550000000 1.0
C      1  0.5017300000000  0.4689240000000  0.5000160000000 1.0
C      1  0.5018040000000  0.4403400000000  0.5013780000000 1.0
C      1  0.5046700000000  0.5489550000000  0.4842460000000 1.0
C      1  0.5019090000000  0.5217620000000  0.4989790000000 1.0
C      1  0.5014980000000  0.3977280000000  0.4996440000000 1.0
END
