TITL C-3577086-586-458 -3.85988163658748e-06 125000 -953.503883376425 0 0 152 (C1) n - 1
REM
REM in /home/bkarasulu/work/CARBON/AIRSS/Generating-Clusters/EDIP-Nigel-Params/with-SteepDescent/Higher-Symm/SD-CG/HFTN-CG
REM
REM
REM
REM
REM
REM ./C.cell (12c818d87b63d06a65506943cc24bca4)
REM
REM compiler GCC version 9.2.1 20190827 (Red Hat 9.2.1-1)
REM options -cpp -mtune=generic -march=x86-64 -g -O0 -fpre-include=/usr/include/finclude/math-vector-fortran.h
REM seed -805252249 -1719390579 -678826308 1231769143 1281889900 -237523645 -1707779217 652865546 -62017599 1770009690 13028005 -2097892085 1647068353 985872232 -1362391084 -749966436 751607623 2046150533 247556228 1844169711 -517896794 734882512 341593147 -720049947 1702003541 749278370 1131332603 -453911324 -41495665 -1714197236 1896589068 -49111052 -188727237
REM
CELL 1.54180   50.00000   50.00000   50.00000   90.00000   90.00000   90.00000
LATT -1
SFAC C  
C      1  0.4303340000000  0.4300480000000  0.4686070000000 1.0
C      1  0.4233800000000  0.4281300000000  0.5125860000000 1.0
C      1  0.4436020000000  0.4283920000000  0.5523270000000 1.0
C      1  0.4785210000000  0.4218280000000  0.5799530000000 1.0
C      1  0.5219470000000  0.4307030000000  0.5702960000000 1.0
C      1  0.5595210000000  0.4314880000000  0.5463050000000 1.0
C      1  0.5856880000000  0.4239560000000  0.5095110000000 1.0
C      1  0.5693210000000  0.4290140000000  0.4668860000000 1.0
C      1  0.5401370000000  0.4273390000000  0.4331720000000 1.0
C      1  0.4966970000000  0.4292480000000  0.4232120000000 1.0
C      1  0.4515300000000  0.4226880000000  0.4284460000000 1.0
C      1  0.4165820000000  0.4805350000000  0.5146310000000 1.0
C      1  0.4352760000000  0.4780830000000  0.5598410000000 1.0
C      1  0.4755110000000  0.4785510000000  0.5876790000000 1.0
C      1  0.5241150000000  0.4802230000000  0.5830590000000 1.0
C      1  0.5651810000000  0.4808560000000  0.5521360000000 1.0
C      1  0.5873280000000  0.4821830000000  0.5085880000000 1.0
C      1  0.5770720000000  0.4793460000000  0.4618810000000 1.0
C      1  0.5436980000000  0.4809730000000  0.4270030000000 1.0
C      1  0.4971990000000  0.4794360000000  0.4150540000000 1.0
C      1  0.4518640000000  0.4816320000000  0.4288780000000 1.0
C      1  0.4227600000000  0.4800290000000  0.4663410000000 1.0
C      1  0.4472230000000  0.5200320000000  0.5855790000000 1.0
C      1  0.4999650000000  0.5240480000000  0.5943820000000 1.0
C      1  0.5494790000000  0.5240390000000  0.5759170000000 1.0
C      1  0.5847740000000  0.5253200000000  0.5352450000000 1.0
C      1  0.5932100000000  0.5239290000000  0.4823090000000 1.0
C      1  0.5690950000000  0.5230320000000  0.4359080000000 1.0
C      1  0.5238260000000  0.5229520000000  0.4088030000000 1.0
C      1  0.4715900000000  0.5233010000000  0.4104620000000 1.0
C      1  0.4297180000000  0.5244100000000  0.4416300000000 1.0
C      1  0.4112180000000  0.5238660000000  0.4903880000000 1.0
C      1  0.4167690000000  0.5232470000000  0.5418470000000 1.0
C      1  0.4482730000000  0.4639960000000  0.5854310000000 1.0
C      1  0.5010080000000  0.4648760000000  0.5988250000000 1.0
C      1  0.5522380000000  0.4681080000000  0.5775700000000 1.0
C      1  0.5893970000000  0.4685110000000  0.5363050000000 1.0
C      1  0.5960970000000  0.4670910000000  0.4831680000000 1.0
C      1  0.5705730000000  0.4667570000000  0.4347650000000 1.0
C      1  0.5240240000000  0.4668390000000  0.4072650000000 1.0
C      1  0.4697060000000  0.4669890000000  0.4085980000000 1.0
C      1  0.4264430000000  0.4675420000000  0.4382720000000 1.0
C      1  0.4055790000000  0.4674820000000  0.4885060000000 1.0
C      1  0.4132300000000  0.4660290000000  0.5423060000000 1.0
C      1  0.5218840000000  0.4034940000000  0.5547500000000 1.0
C      1  0.5485920000000  0.4030590000000  0.5393430000000 1.0
C      1  0.5588080000000  0.4082410000000  0.5066610000000 1.0
C      1  0.5546820000000  0.4009490000000  0.4701210000000 1.0
C      1  0.5329160000000  0.3983430000000  0.4460970000000 1.0
C      1  0.5010270000000  0.4010790000000  0.4384340000000 1.0
C      1  0.4677870000000  0.4087140000000  0.4522480000000 1.0
C      1  0.4436150000000  0.4014960000000  0.4760430000000 1.0
C      1  0.4444030000000  0.3987940000000  0.5081390000000 1.0
C      1  0.4550480000000  0.4012550000000  0.5384400000000 1.0
C      1  0.4855260000000  0.4093210000000  0.5513070000000 1.0
C      1  0.4197780000000  0.5515690000000  0.5400740000000 1.0
C      1  0.4460240000000  0.5478990000000  0.5864790000000 1.0
C      1  0.4991620000000  0.5520770000000  0.5888050000000 1.0
C      1  0.5488830000000  0.5519070000000  0.5764410000000 1.0
C      1  0.5844730000000  0.5532720000000  0.5361350000000 1.0
C      1  0.5955030000000  0.5516230000000  0.4807510000000 1.0
C      1  0.5706850000000  0.5508520000000  0.4348010000000 1.0
C      1  0.5239410000000  0.5507550000000  0.4066150000000 1.0
C      1  0.4713580000000  0.5508980000000  0.4071930000000 1.0
C      1  0.4291110000000  0.5523500000000  0.4419320000000 1.0
C      1  0.4097610000000  0.5517730000000  0.4909460000000 1.0
C      1  0.5263040000000  0.5097810000000  0.5892550000000 1.0
C      1  0.5690010000000  0.5105860000000  0.5566850000000 1.0
C      1  0.5942700000000  0.5113400000000  0.5096430000000 1.0
C      1  0.5821230000000  0.5089670000000  0.4588110000000 1.0
C      1  0.5485560000000  0.5092400000000  0.4189150000000 1.0
C      1  0.4974800000000  0.5087860000000  0.4085400000000 1.0
C      1  0.4477250000000  0.5102140000000  0.4224440000000 1.0
C      1  0.4178230000000  0.5097740000000  0.4647670000000 1.0
C      1  0.4096070000000  0.5093620000000  0.5163380000000 1.0
C      1  0.4302660000000  0.5073810000000  0.5641660000000 1.0
C      1  0.4733920000000  0.5077900000000  0.5951800000000 1.0
C      1  0.5664620000000  0.5746690000000  0.4489410000000 1.0
C      1  0.5132260000000  0.5745170000000  0.4168750000000 1.0
C      1  0.4821890000000  0.5744560000000  0.4174320000000 1.0
C      1  0.4324100000000  0.5762420000000  0.4562740000000 1.0
C      1  0.4208060000000  0.5763610000000  0.4831060000000 1.0
C      1  0.4413340000000  0.5696410000000  0.5440670000000 1.0
C      1  0.4604270000000  0.5554740000000  0.5622140000000 1.0
C      1  0.4855650000000  0.5693090000000  0.5708460000000 1.0
C      1  0.5497410000000  0.5757390000000  0.5617000000000 1.0
C      1  0.5687750000000  0.5762410000000  0.5395640000000 1.0
C      1  0.5806740000000  0.5748270000000  0.4764370000000 1.0
C      1  0.4691530000000  0.4877010000000  0.4542210000000 1.0
C      1  0.4512620000000  0.4762490000000  0.4775130000000 1.0
C      1  0.4472940000000  0.4868490000000  0.5099230000000 1.0
C      1  0.4593200000000  0.4766380000000  0.5406140000000 1.0
C      1  0.4819870000000  0.4829820000000  0.5594560000000 1.0
C      1  0.5106730000000  0.4791930000000  0.5554800000000 1.0
C      1  0.5461960000000  0.4761480000000  0.5288560000000 1.0
C      1  0.5573030000000  0.4871260000000  0.5039610000000 1.0
C      1  0.5499040000000  0.4755290000000  0.4762550000000 1.0
C      1  0.5274660000000  0.4871040000000  0.4539320000000 1.0
C      1  0.4974180000000  0.4761030000000  0.4458360000000 1.0
C      1  0.5020050000000  0.4355490000000  0.5924560000000 1.0
C      1  0.5511910000000  0.4391270000000  0.5749950000000 1.0
C      1  0.5868960000000  0.4387060000000  0.5357000000000 1.0
C      1  0.5928650000000  0.4374250000000  0.4839980000000 1.0
C      1  0.5692910000000  0.4373000000000  0.4370050000000 1.0
C      1  0.5229790000000  0.4373640000000  0.4092040000000 1.0
C      1  0.4704930000000  0.4371300000000  0.4102490000000 1.0
C      1  0.4278160000000  0.4377050000000  0.4395920000000 1.0
C      1  0.4075820000000  0.4380230000000  0.4880240000000 1.0
C      1  0.4156450000000  0.4365980000000  0.5412530000000 1.0
C      1  0.4511690000000  0.4344930000000  0.5809120000000 1.0
C      1  0.4543880000000  0.4465400000000  0.4797110000000 1.0
C      1  0.4501850000000  0.4424260000000  0.5088040000000 1.0
C      1  0.4616720000000  0.4474120000000  0.5355210000000 1.0
C      1  0.4893550000000  0.4358460000000  0.5355000000000 1.0
C      1  0.5140150000000  0.4492970000000  0.5469520000000 1.0
C      1  0.5389480000000  0.4477040000000  0.5294910000000 1.0
C      1  0.5379540000000  0.4308810000000  0.5032420000000 1.0
C      1  0.5454120000000  0.4456490000000  0.4776370000000 1.0
C      1  0.5259430000000  0.4405190000000  0.4566520000000 1.0
C      1  0.4981590000000  0.4462180000000  0.4494990000000 1.0
C      1  0.4779490000000  0.4330090000000  0.4666950000000 1.0
C      1  0.4987310000000  0.5826980000000  0.5487520000000 1.0
C      1  0.5269890000000  0.5885730000000  0.5480770000000 1.0
C      1  0.5512310000000  0.5869830000000  0.5188250000000 1.0
C      1  0.5540230000000  0.5798000000000  0.4908630000000 1.0
C      1  0.5393210000000  0.5802790000000  0.4623430000000 1.0
C      1  0.5141020000000  0.5805370000000  0.4471200000000 1.0
C      1  0.4822120000000  0.5801790000000  0.4475960000000 1.0
C      1  0.4586350000000  0.5873320000000  0.4627010000000 1.0
C      1  0.4429450000000  0.5898420000000  0.4971820000000 1.0
C      1  0.4553220000000  0.5831880000000  0.5223830000000 1.0
C      1  0.4816830000000  0.5942030000000  0.5281750000000 1.0
C      1  0.4959580000000  0.5228360000000  0.4571980000000 1.0
C      1  0.4698500000000  0.5229560000000  0.4678770000000 1.0
C      1  0.4552450000000  0.5193870000000  0.4931600000000 1.0
C      1  0.4610360000000  0.5280170000000  0.5191260000000 1.0
C      1  0.4702450000000  0.5319840000000  0.5453590000000 1.0
C      1  0.4964740000000  0.5240160000000  0.5500000000000 1.0
C      1  0.5153040000000  0.5056350000000  0.5407550000000 1.0
C      1  0.5364520000000  0.5193010000000  0.5280590000000 1.0
C      1  0.5503920000000  0.5159240000000  0.5041890000000 1.0
C      1  0.5369450000000  0.5252960000000  0.4814780000000 1.0
C      1  0.5231660000000  0.5159830000000  0.4590070000000 1.0
C      1  0.5111650000000  0.5905310000000  0.4950900000000 1.0
C      1  0.4940440000000  0.4348290000000  0.5075080000000 1.0
C      1  0.4964290000000  0.4602450000000  0.4961790000000 1.0
C      1  0.4977090000000  0.5411670000000  0.4974580000000 1.0
C      1  0.4985650000000  0.5128110000000  0.5004230000000 1.0
C      1  0.4943770000000  0.4866200000000  0.4921000000000 1.0
C      1  0.4947570000000  0.6080940000000  0.5076830000000 1.0
C      1  0.5131750000000  0.4165620000000  0.5001290000000 1.0
C      1  0.5127880000000  0.5634820000000  0.4936800000000 1.0
END
