TITL C-3577077-324-462 2.78019429489312e-07 125000 -198.388509708167 0 0 33 (C1) n - 1
REM
REM in /home/bkarasulu/work/CARBON/AIRSS/Generating-Clusters/EDIP-Nigel-Params/with-SteepDescent/Higher-Symm/SD-CG/HFTN-CG
REM
REM
REM
REM
REM
REM ./C.cell (12c818d87b63d06a65506943cc24bca4)
REM
REM compiler GCC version 9.2.1 20190827 (Red Hat 9.2.1-1)
REM options -cpp -mtune=generic -march=x86-64 -g -O0 -fpre-include=/usr/include/finclude/math-vector-fortran.h
REM seed 108255411 -870970894 131665102 89257433 -1421793256 1074326718 520877228 -710056066 219674709 -1785313282 1368800634 50448431 1838027718 -695877510 358788665 1185355793 -669099925 -602938792 -1987459176 1306388639 1680428898 1925752180 1388565174 2120515663 -145167587 21825920 1615907814 1969261530 -1597604882 277136575 -66288692 355471929 251554367
REM
CELL 1.54180   50.00000   50.00000   50.00000   90.00000   90.00000   90.00000
LATT -1
SFAC C  
C      1  0.5144870000000  0.5133470000000  0.5250070000000 1.0
C      1  0.5143410000000  0.4719020000000  0.5505470000000 1.0
C      1  0.4707970000000  0.4942950000000  0.5415250000000 1.0
C      1  0.5147590000000  0.5144870000000  0.4763840000000 1.0
C      1  0.5144270000000  0.4696150000000  0.4525990000000 1.0
C      1  0.4715820000000  0.4940480000000  0.4610460000000 1.0
C      1  0.4855040000000  0.5142110000000  0.5259550000000 1.0
C      1  0.4863210000000  0.4718830000000  0.5508690000000 1.0
C      1  0.5296240000000  0.4947350000000  0.5415800000000 1.0
C      1  0.4861280000000  0.5128000000000  0.4777920000000 1.0
C      1  0.4858880000000  0.4693030000000  0.4560220000000 1.0
C      1  0.5301100000000  0.4964750000000  0.4587830000000 1.0
C      1  0.5146080000000  0.5677650000000  0.4820810000000 1.0
C      1  0.5359590000000  0.4613970000000  0.4747540000000 1.0
C      1  0.4465320000000  0.4873980000000  0.4763910000000 1.0
C      1  0.5140220000000  0.5671190000000  0.5210750000000 1.0
C      1  0.5489530000000  0.4596830000000  0.5185600000000 1.0
C      1  0.4463550000000  0.4867690000000  0.5257510000000 1.0
C      1  0.4861930000000  0.5668630000000  0.4810250000000 1.0
C      1  0.4585050000000  0.4576190000000  0.4804120000000 1.0
C      1  0.5553430000000  0.4886300000000  0.4760180000000 1.0
C      1  0.4856000000000  0.5677410000000  0.5200230000000 1.0
C      1  0.4490040000000  0.4585470000000  0.5180900000000 1.0
C      1  0.5535860000000  0.4868460000000  0.5256370000000 1.0
C      1  0.4453280000000  0.5051380000000  0.5012190000000 1.0
C      1  0.5552140000000  0.5054100000000  0.5013440000000 1.0
C      1  0.5263500000000  0.4539730000000  0.5027190000000 1.0
C      1  0.4739400000000  0.4489160000000  0.5060170000000 1.0
C      1  0.5312750000000  0.5536870000000  0.5016260000000 1.0
C      1  0.4690020000000  0.5534940000000  0.5005580000000 1.0
C      1  0.4708750000000  0.5229070000000  0.5014010000000 1.0
C      1  0.5293740000000  0.5231200000000  0.5009780000000 1.0
C      1  0.5000110000000  0.4598760000000  0.5164150000000 1.0
END
