TITL C-3578206-1180-545 1.12993515772654e-06 125000 -576.283287184662 0 0 93 (C1) n - 1
REM
REM in /home/bkarasulu/work/CARBON/AIRSS/Generating-Clusters/EDIP-Nigel-Params/with-SteepDescent/Higher-Symm/SD-CG/HFTN-CG
REM
REM
REM
REM
REM
REM ./C.cell (12c818d87b63d06a65506943cc24bca4)
REM
REM compiler GCC version 9.2.1 20190827 (Red Hat 9.2.1-1)
REM options -cpp -mtune=generic -march=x86-64 -g -O0 -fpre-include=/usr/include/finclude/math-vector-fortran.h
REM seed 356818904 -968544020 -1116731089 1218473688 1224687625 -1461600598 82211944 790792926 1667529286 823562927 -741410861 -489933048 -1516667807 862665708 -1002110866 -1490737189 1703779484 -893117545 1768231342 991963844 206831600 1259075167 -1795916320 -791493729 -756359356 -308567899 1097388728 1775918488 -1871324211 768368893 -2055786711 343262696 -813917173
REM
CELL 1.54180   50.00000   50.00000   50.00000   90.00000   90.00000   90.00000
LATT -1
SFAC C  
C      1  0.4336240000000  0.5376370000000  0.5186930000000 1.0
C      1  0.4859250000000  0.5382640000000  0.4224430000000 1.0
C      1  0.5771520000000  0.5437640000000  0.4861770000000 1.0
C      1  0.5188280000000  0.5329200000000  0.5775490000000 1.0
C      1  0.5614710000000  0.4777340000000  0.5146610000000 1.0
C      1  0.5187620000000  0.4736010000000  0.4364750000000 1.0
C      1  0.4326760000000  0.4736860000000  0.4821070000000 1.0
C      1  0.4781960000000  0.4702010000000  0.5666340000000 1.0
C      1  0.4438200000000  0.4889940000000  0.4374980000000 1.0
C      1  0.5646500000000  0.4935320000000  0.4424680000000 1.0
C      1  0.5523380000000  0.4873190000000  0.5574040000000 1.0
C      1  0.4382930000000  0.4887160000000  0.5582400000000 1.0
C      1  0.5589700000000  0.5223760000000  0.4421100000000 1.0
C      1  0.4424940000000  0.5180710000000  0.4431250000000 1.0
C      1  0.4449350000000  0.5181960000000  0.5609040000000 1.0
C      1  0.5545370000000  0.5167670000000  0.5568180000000 1.0
C      1  0.5266130000000  0.4729150000000  0.5663530000000 1.0
C      1  0.4329860000000  0.4766770000000  0.5300050000000 1.0
C      1  0.4714740000000  0.4764470000000  0.4342860000000 1.0
C      1  0.5719870000000  0.4820330000000  0.4691920000000 1.0
C      1  0.4755970000000  0.5232000000000  0.5556850000000 1.0
C      1  0.5593250000000  0.5327660000000  0.5308720000000 1.0
C      1  0.5291180000000  0.5279250000000  0.4466890000000 1.0
C      1  0.4458990000000  0.5244770000000  0.4737480000000 1.0
C      1  0.5017490000000  0.4854150000000  0.5786000000000 1.0
C      1  0.4213110000000  0.4904120000000  0.5049230000000 1.0
C      1  0.4970100000000  0.4898220000000  0.4243430000000 1.0
C      1  0.5743550000000  0.4961710000000  0.4961060000000 1.0
C      1  0.4959680000000  0.5143200000000  0.5774440000000 1.0
C      1  0.5700580000000  0.5233780000000  0.5046850000000 1.0
C      1  0.5058830000000  0.5179160000000  0.4271490000000 1.0
C      1  0.4257600000000  0.5189030000000  0.4976960000000 1.0
C      1  0.4853670000000  0.5779000000000  0.5365600000000 1.0
C      1  0.4590100000000  0.5753160000000  0.4613590000000 1.0
C      1  0.5313610000000  0.5823530000000  0.4604180000000 1.0
C      1  0.5388510000000  0.5799400000000  0.5349590000000 1.0
C      1  0.5235820000000  0.4219630000000  0.5423570000000 1.0
C      1  0.5416210000000  0.4266710000000  0.4751100000000 1.0
C      1  0.4708840000000  0.4250850000000  0.4575220000000 1.0
C      1  0.4525070000000  0.4239420000000  0.5279910000000 1.0
C      1  0.5189630000000  0.5466510000000  0.5190420000000 1.0
C      1  0.4887390000000  0.5481960000000  0.5051080000000 1.0
C      1  0.5010060000000  0.5565690000000  0.4800570000000 1.0
C      1  0.5294980000000  0.5643870000000  0.4841640000000 1.0
C      1  0.4802470000000  0.4310120000000  0.5380420000000 1.0
C      1  0.5423710000000  0.4362910000000  0.5044780000000 1.0
C      1  0.5142770000000  0.4329890000000  0.4639680000000 1.0
C      1  0.4583890000000  0.4324250000000  0.4846210000000 1.0
C      1  0.5199680000000  0.4581520000000  0.5085740000000 1.0
C      1  0.4866700000000  0.4558910000000  0.5216840000000 1.0
C      1  0.4773100000000  0.4563170000000  0.4921230000000 1.0
C      1  0.5065520000000  0.4580040000000  0.4807190000000 1.0
C      1  0.4819790000000  0.5061830000000  0.5324000000000 1.0
C      1  0.5199260000000  0.5128000000000  0.5021070000000 1.0
C      1  0.5215900000000  0.5099010000000  0.4721080000000 1.0
C      1  0.4701090000000  0.5078610000000  0.4833200000000 1.0
C      1  0.4466350000000  0.5601290000000  0.5056910000000 1.0
C      1  0.4971380000000  0.5633510000000  0.4322960000000 1.0
C      1  0.5654790000000  0.5670430000000  0.4977530000000 1.0
C      1  0.5140890000000  0.5506890000000  0.5564060000000 1.0
C      1  0.5664250000000  0.4518020000000  0.5014690000000 1.0
C      1  0.5099340000000  0.4448850000000  0.4361230000000 1.0
C      1  0.4311990000000  0.4453370000000  0.4906860000000 1.0
C      1  0.4875220000000  0.4418230000000  0.5657210000000 1.0
C      1  0.5459070000000  0.4787080000000  0.4272090000000 1.0
C      1  0.5721480000000  0.4757280000000  0.5414060000000 1.0
C      1  0.4517790000000  0.4734310000000  0.5782800000000 1.0
C      1  0.4247200000000  0.4767930000000  0.4543440000000 1.0
C      1  0.4587140000000  0.5329480000000  0.4258880000000 1.0
C      1  0.4279300000000  0.5344920000000  0.5456650000000 1.0
C      1  0.5456800000000  0.5268720000000  0.5816240000000 1.0
C      1  0.5755570000000  0.5373910000000  0.4590990000000 1.0
C      1  0.4878220000000  0.5740260000000  0.4591020000000 1.0
C      1  0.5060510000000  0.5979660000000  0.4606220000000 1.0
C      1  0.5121990000000  0.5865170000000  0.5310200000000 1.0
C      1  0.4662360000000  0.5785160000000  0.5155070000000 1.0
C      1  0.4947010000000  0.4112170000000  0.4653590000000 1.0
C      1  0.4585350000000  0.4100040000000  0.5037010000000 1.0
C      1  0.4998900000000  0.4099610000000  0.5328090000000 1.0
C      1  0.5463660000000  0.4181550000000  0.5268960000000 1.0
C      1  0.4866980000000  0.5514730000000  0.5490670000000 1.0
C      1  0.4492670000000  0.5546130000000  0.4776350000000 1.0
C      1  0.5262180000000  0.5599610000000  0.4401190000000 1.0
C      1  0.5591190000000  0.5622690000000  0.5255710000000 1.0
C      1  0.5177640000000  0.4440590000000  0.5617660000000 1.0
C      1  0.5684390000000  0.4530810000000  0.4724010000000 1.0
C      1  0.4792610000000  0.4468610000000  0.4374290000000 1.0
C      1  0.4332490000000  0.4467780000000  0.5212210000000 1.0
C      1  0.4764630000000  0.4785020000000  0.5377690000000 1.0
C      1  0.5161180000000  0.4819270000000  0.4647990000000 1.0
C      1  0.5314220000000  0.4854100000000  0.5144400000000 1.0
C      1  0.4616320000000  0.4801370000000  0.4850430000000 1.0
C      1  0.4884360000000  0.5171270000000  0.5056520000000 1.0
END
