TITL C-3578199-7832-124 8.78065084663935e-07 125000 -738.346548250528 0 0 119 (C1) n - 1
REM
REM in /home/bkarasulu/work/CARBON/AIRSS/Generating-Clusters/EDIP-Nigel-Params/with-SteepDescent/Higher-Symm/SD-CG/HFTN-CG
REM
REM
REM
REM
REM
REM ./C.cell (12c818d87b63d06a65506943cc24bca4)
REM
REM compiler GCC version 9.2.1 20190827 (Red Hat 9.2.1-1)
REM options -cpp -mtune=generic -march=x86-64 -g -O0 -fpre-include=/usr/include/finclude/math-vector-fortran.h
REM seed -555559953 1584361217 1334424331 1520950610 -1394132906 -1764525506 1776416486 1389114988 85913150 -767038462 -1867302386 1052158567 1768151583 -525630300 -1866190106 601252191 816373837 -719953304 1356893730 992218337 -737369585 2019010271 -1903223708 -1459334975 887017500 1192596307 -1197208132 1476346279 -145280153 1118318977 -1639964262 345982783 1939570695
REM
CELL 1.54180   50.00000   50.00000   50.00000   90.00000   90.00000   90.00000
LATT -1
SFAC C  
C      1  0.5801410000000  0.5617500000000  0.5090720000000 1.0
C      1  0.4225750000000  0.4428020000000  0.5059290000000 1.0
C      1  0.4367020000000  0.5699550000000  0.4504660000000 1.0
C      1  0.5622890000000  0.4318240000000  0.4467530000000 1.0
C      1  0.4647990000000  0.4916850000000  0.5347300000000 1.0
C      1  0.5342290000000  0.5143760000000  0.5378680000000 1.0
C      1  0.4422480000000  0.5273710000000  0.4295210000000 1.0
C      1  0.5454100000000  0.4760050000000  0.4358610000000 1.0
C      1  0.5147480000000  0.4981810000000  0.4853760000000 1.0
C      1  0.4922780000000  0.5002180000000  0.4672400000000 1.0
C      1  0.5052800000000  0.4918190000000  0.4112210000000 1.0
C      1  0.4873320000000  0.5146980000000  0.4118920000000 1.0
C      1  0.5518160000000  0.4677760000000  0.5719150000000 1.0
C      1  0.4516110000000  0.5281920000000  0.5697150000000 1.0
C      1  0.4174510000000  0.4897360000000  0.5142760000000 1.0
C      1  0.5795660000000  0.5135090000000  0.5175710000000 1.0
C      1  0.5191180000000  0.5499720000000  0.4857890000000 1.0
C      1  0.4812390000000  0.4531400000000  0.4768170000000 1.0
C      1  0.5470130000000  0.4388450000000  0.5651500000000 1.0
C      1  0.4560900000000  0.5565660000000  0.5654820000000 1.0
C      1  0.4365450000000  0.4749710000000  0.4702450000000 1.0
C      1  0.5677790000000  0.5297520000000  0.4740060000000 1.0
C      1  0.4497050000000  0.4630490000000  0.4155350000000 1.0
C      1  0.5503360000000  0.5274460000000  0.4172090000000 1.0
C      1  0.4624100000000  0.4357610000000  0.4484610000000 1.0
C      1  0.5327950000000  0.5645340000000  0.4377890000000 1.0
C      1  0.5363290000000  0.5372810000000  0.5123790000000 1.0
C      1  0.4624250000000  0.4693810000000  0.5132400000000 1.0
C      1  0.4985490000000  0.4488650000000  0.5691840000000 1.0
C      1  0.5037260000000  0.5544440000000  0.5779560000000 1.0
C      1  0.4649180000000  0.5656320000000  0.4505890000000 1.0
C      1  0.5342050000000  0.4336010000000  0.4511120000000 1.0
C      1  0.5694650000000  0.4363290000000  0.4944430000000 1.0
C      1  0.4380930000000  0.5553360000000  0.4976830000000 1.0
C      1  0.4755480000000  0.4839600000000  0.5875130000000 1.0
C      1  0.5274930000000  0.5126220000000  0.5914810000000 1.0
C      1  0.5243900000000  0.5809790000000  0.4842440000000 1.0
C      1  0.4773720000000  0.4155970000000  0.4830050000000 1.0
C      1  0.5288380000000  0.5403020000000  0.4578230000000 1.0
C      1  0.4844340000000  0.4741510000000  0.4526080000000 1.0
C      1  0.5002100000000  0.5279520000000  0.5912870000000 1.0
C      1  0.5031070000000  0.4697630000000  0.5888260000000 1.0
C      1  0.5015920000000  0.5896720000000  0.4678820000000 1.0
C      1  0.5004190000000  0.4062610000000  0.4693150000000 1.0
C      1  0.4948110000000  0.5330950000000  0.5278270000000 1.0
C      1  0.5106600000000  0.4723410000000  0.5338770000000 1.0
C      1  0.4848170000000  0.5862390000000  0.5435410000000 1.0
C      1  0.5154230000000  0.4199050000000  0.5342240000000 1.0
C      1  0.4256070000000  0.4532620000000  0.4268550000000 1.0
C      1  0.5742720000000  0.5401120000000  0.4255750000000 1.0
C      1  0.4711390000000  0.4442000000000  0.4200750000000 1.0
C      1  0.5284150000000  0.5475610000000  0.4129610000000 1.0
C      1  0.5099410000000  0.4483480000000  0.4896140000000 1.0
C      1  0.4888500000000  0.5460890000000  0.4863320000000 1.0
C      1  0.4560110000000  0.5104920000000  0.5008700000000 1.0
C      1  0.5527500000000  0.4744030000000  0.5083950000000 1.0
C      1  0.4951330000000  0.5839020000000  0.5175060000000 1.0
C      1  0.5029400000000  0.4444110000000  0.5203620000000 1.0
C      1  0.4339020000000  0.4485210000000  0.4537540000000 1.0
C      1  0.5663650000000  0.5499230000000  0.4515110000000 1.0
C      1  0.4253860000000  0.5125190000000  0.4979430000000 1.0
C      1  0.5756130000000  0.4917640000000  0.4992190000000 1.0
C      1  0.5722920000000  0.4491140000000  0.4671180000000 1.0
C      1  0.4282440000000  0.5505260000000  0.4698440000000 1.0
C      1  0.4998290000000  0.5407080000000  0.4191160000000 1.0
C      1  0.4985460000000  0.4554620000000  0.4220480000000 1.0
C      1  0.4741860000000  0.5138200000000  0.5839390000000 1.0
C      1  0.5282330000000  0.4840980000000  0.5830690000000 1.0
C      1  0.4934890000000  0.4135840000000  0.4423590000000 1.0
C      1  0.5076180000000  0.5820710000000  0.4397080000000 1.0
C      1  0.4683240000000  0.4008330000000  0.5045670000000 1.0
C      1  0.5207610000000  0.5944510000000  0.5101470000000 1.0
C      1  0.4575860000000  0.5882230000000  0.5278160000000 1.0
C      1  0.5424190000000  0.4121230000000  0.5245310000000 1.0
C      1  0.5618630000000  0.4279660000000  0.5413150000000 1.0
C      1  0.4399800000000  0.5682770000000  0.5432340000000 1.0
C      1  0.4287180000000  0.4210540000000  0.5202970000000 1.0
C      1  0.5661380000000  0.5820280000000  0.5191520000000 1.0
C      1  0.4555320000000  0.5793330000000  0.4979780000000 1.0
C      1  0.5471440000000  0.4167850000000  0.4953830000000 1.0
C      1  0.5557910000000  0.4745460000000  0.4631340000000 1.0
C      1  0.4411530000000  0.5257420000000  0.4587610000000 1.0
C      1  0.4721280000000  0.4441380000000  0.5274460000000 1.0
C      1  0.5246290000000  0.5583960000000  0.5347510000000 1.0
C      1  0.5678970000000  0.5226200000000  0.5638960000000 1.0
C      1  0.4327720000000  0.4765100000000  0.5589890000000 1.0
C      1  0.4307730000000  0.5240990000000  0.5472880000000 1.0
C      1  0.5726990000000  0.4750490000000  0.5508870000000 1.0
C      1  0.4564960000000  0.4677710000000  0.5707880000000 1.0
C      1  0.5450570000000  0.5314180000000  0.5769150000000 1.0
C      1  0.4348200000000  0.4681480000000  0.5012080000000 1.0
C      1  0.5668040000000  0.5370660000000  0.5035410000000 1.0
C      1  0.5211370000000  0.4910050000000  0.4350840000000 1.0
C      1  0.4612350000000  0.5079090000000  0.4236350000000 1.0
C      1  0.5234580000000  0.4239180000000  0.4770120000000 1.0
C      1  0.4777170000000  0.5721190000000  0.4765360000000 1.0
C      1  0.5056600000000  0.5175060000000  0.5538510000000 1.0
C      1  0.4906840000000  0.4889410000000  0.5518620000000 1.0
C      1  0.5389220000000  0.4839880000000  0.5334350000000 1.0
C      1  0.4642070000000  0.5236960000000  0.5274450000000 1.0
C      1  0.4833580000000  0.5621720000000  0.5592250000000 1.0
C      1  0.5189640000000  0.4295530000000  0.5620230000000 1.0
C      1  0.4720230000000  0.4473630000000  0.5576690000000 1.0
C      1  0.5294790000000  0.5535240000000  0.5650410000000 1.0
C      1  0.5755110000000  0.4476130000000  0.5233380000000 1.0
C      1  0.4277130000000  0.5475360000000  0.5253870000000 1.0
C      1  0.5136940000000  0.4310780000000  0.4305800000000 1.0
C      1  0.4851790000000  0.5653130000000  0.4286350000000 1.0
C      1  0.5415790000000  0.5138010000000  0.4427030000000 1.0
C      1  0.4577530000000  0.4817880000000  0.4381810000000 1.0
C      1  0.5310470000000  0.4731080000000  0.4850370000000 1.0
C      1  0.4725290000000  0.5215350000000  0.4765980000000 1.0
C      1  0.4564550000000  0.4190160000000  0.5216600000000 1.0
C      1  0.5404120000000  0.5844420000000  0.5291840000000 1.0
C      1  0.5718630000000  0.5004530000000  0.4710270000000 1.0
C      1  0.4239660000000  0.5029810000000  0.4691360000000 1.0
C      1  0.4215610000000  0.4960870000000  0.5426900000000 1.0
C      1  0.5765380000000  0.5042490000000  0.5452940000000 1.0
C      1  0.5065550000000  0.5046580000000  0.5125750000000 1.0
END
