TITL C-3578201-9217-174 -7.97175849407734e-07 125000 -523.04489249955 0 0 85 (C1) n - 1
REM
REM in /home/bkarasulu/work/CARBON/AIRSS/Generating-Clusters/EDIP-Nigel-Params/with-SteepDescent/Higher-Symm/SD-CG/HFTN-CG
REM
REM
REM
REM
REM
REM ./C.cell (12c818d87b63d06a65506943cc24bca4)
REM
REM compiler GCC version 9.2.1 20190827 (Red Hat 9.2.1-1)
REM options -cpp -mtune=generic -march=x86-64 -g -O0 -fpre-include=/usr/include/finclude/math-vector-fortran.h
REM seed -1683410084 -1889160144 -2073561241 975160069 -135855459 -1992271941 622978233 1273242912 411306245 -385004254 -25495887 -2036307264 -870339807 1012825174 -678426782 -504738260 1850793757 -671094850 -150152299 -2092633260 -184809048 -1974228621 -1229388083 -1440783984 983892837 1502503627 -709520252 1128888753 -1305748563 -214387698 -1897625821 -443487140 -572543816
REM
CELL 1.54180   50.00000   50.00000   50.00000   90.00000   90.00000   90.00000
LATT -1
SFAC C  
C      1  0.4409140000000  0.4512710000000  0.5553870000000 1.0
C      1  0.4402080000000  0.4547150000000  0.4543260000000 1.0
C      1  0.4911800000000  0.5300180000000  0.4201590000000 1.0
C      1  0.4891130000000  0.5299770000000  0.5749690000000 1.0
C      1  0.4193440000000  0.4954270000000  0.4718380000000 1.0
C      1  0.4266980000000  0.4882280000000  0.5304420000000 1.0
C      1  0.4854460000000  0.4200290000000  0.4868190000000 1.0
C      1  0.4697460000000  0.4222180000000  0.5102030000000 1.0
C      1  0.5278100000000  0.4539170000000  0.4583440000000 1.0
C      1  0.5199450000000  0.4481610000000  0.5393770000000 1.0
C      1  0.4826190000000  0.4675040000000  0.4320650000000 1.0
C      1  0.4806970000000  0.4595370000000  0.5741560000000 1.0
C      1  0.4700830000000  0.4463720000000  0.4471540000000 1.0
C      1  0.4672920000000  0.4405650000000  0.5573980000000 1.0
C      1  0.5283300000000  0.4655410000000  0.4104620000000 1.0
C      1  0.5275740000000  0.4593410000000  0.5890780000000 1.0
C      1  0.5720440000000  0.4733860000000  0.5358470000000 1.0
C      1  0.5734970000000  0.4765550000000  0.4644570000000 1.0
C      1  0.5525480000000  0.5494730000000  0.4492010000000 1.0
C      1  0.5512250000000  0.5439880000000  0.5492370000000 1.0
C      1  0.4401300000000  0.4607880000000  0.5277830000000 1.0
C      1  0.4400910000000  0.4536540000000  0.4844640000000 1.0
C      1  0.5295490000000  0.5667580000000  0.5114470000000 1.0
C      1  0.5165250000000  0.5714270000000  0.4861810000000 1.0
C      1  0.4808220000000  0.5680480000000  0.4514610000000 1.0
C      1  0.4838090000000  0.5651730000000  0.5371090000000 1.0
C      1  0.4671940000000  0.4860300000000  0.5732710000000 1.0
C      1  0.4721150000000  0.4923270000000  0.4447300000000 1.0
C      1  0.5135360000000  0.5691690000000  0.5381160000000 1.0
C      1  0.5079220000000  0.5633660000000  0.4600010000000 1.0
C      1  0.4469820000000  0.5029650000000  0.4326540000000 1.0
C      1  0.4408870000000  0.5144000000000  0.5702370000000 1.0
C      1  0.4714300000000  0.4986790000000  0.5241380000000 1.0
C      1  0.4687760000000  0.4929480000000  0.4755830000000 1.0
C      1  0.4926540000000  0.5239700000000  0.4731390000000 1.0
C      1  0.4895000000000  0.5216260000000  0.5188580000000 1.0
C      1  0.5673120000000  0.5249280000000  0.5117300000000 1.0
C      1  0.5739800000000  0.5327480000000  0.4845130000000 1.0
C      1  0.5210320000000  0.5217080000000  0.4846340000000 1.0
C      1  0.5184310000000  0.5183210000000  0.5142390000000 1.0
C      1  0.4730740000000  0.5461650000000  0.5149090000000 1.0
C      1  0.4727750000000  0.5468750000000  0.4813400000000 1.0
C      1  0.4463030000000  0.5329470000000  0.4418070000000 1.0
C      1  0.4461900000000  0.5390530000000  0.5551880000000 1.0
C      1  0.5093920000000  0.4623550000000  0.5657310000000 1.0
C      1  0.5127480000000  0.4685870000000  0.4354120000000 1.0
C      1  0.5485000000000  0.5458290000000  0.4775900000000 1.0
C      1  0.5423700000000  0.5396730000000  0.5212030000000 1.0
C      1  0.4700160000000  0.4675450000000  0.5180540000000 1.0
C      1  0.4683410000000  0.4649810000000  0.4875890000000 1.0
C      1  0.4430080000000  0.5076200000000  0.4838800000000 1.0
C      1  0.4437600000000  0.5084490000000  0.5159750000000 1.0
C      1  0.5294620000000  0.4957120000000  0.4733600000000 1.0
C      1  0.5253530000000  0.4904210000000  0.5251580000000 1.0
C      1  0.5492130000000  0.4755020000000  0.5797100000000 1.0
C      1  0.5521930000000  0.4795290000000  0.4185780000000 1.0
C      1  0.5176930000000  0.5343000000000  0.5792990000000 1.0
C      1  0.5195640000000  0.5378340000000  0.4164340000000 1.0
C      1  0.5420950000000  0.5097790000000  0.4243790000000 1.0
C      1  0.5376340000000  0.5044860000000  0.5743850000000 1.0
C      1  0.5530260000000  0.4610330000000  0.5540300000000 1.0
C      1  0.5562050000000  0.4633360000000  0.4450550000000 1.0
C      1  0.4456250000000  0.5369190000000  0.5253940000000 1.0
C      1  0.4468520000000  0.5348020000000  0.4719910000000 1.0
C      1  0.5805270000000  0.5140440000000  0.4612020000000 1.0
C      1  0.5761690000000  0.5062400000000  0.5366960000000 1.0
C      1  0.5148450000000  0.4913340000000  0.5560450000000 1.0
C      1  0.5202230000000  0.4971370000000  0.4441060000000 1.0
C      1  0.5600710000000  0.5182030000000  0.5593960000000 1.0
C      1  0.5645340000000  0.5249480000000  0.4382690000000 1.0
C      1  0.4700520000000  0.5498940000000  0.4303820000000 1.0
C      1  0.4723290000000  0.5527370000000  0.5628040000000 1.0
C      1  0.4823830000000  0.4412750000000  0.5311850000000 1.0
C      1  0.4868230000000  0.4446900000000  0.4729340000000 1.0
C      1  0.5282840000000  0.5559210000000  0.5622610000000 1.0
C      1  0.5266520000000  0.5557240000000  0.4385340000000 1.0
C      1  0.5575760000000  0.4923900000000  0.4836160000000 1.0
C      1  0.5539590000000  0.4837180000000  0.5140290000000 1.0
C      1  0.5141500000000  0.4649970000000  0.5139270000000 1.0
C      1  0.5256300000000  0.4595280000000  0.4875440000000 1.0
C      1  0.4304290000000  0.4887700000000  0.5602720000000 1.0
C      1  0.4285090000000  0.4835410000000  0.4475090000000 1.0
C      1  0.4866220000000  0.5044530000000  0.5593640000000 1.0
C      1  0.4939340000000  0.5123630000000  0.4442290000000 1.0
C      1  0.4423070000000  0.4305920000000  0.5029480000000 1.0
END
