TITL C-3577078-809-217 1.51604507127698e-06 125000 -704.23392020853 0 0 113 (C1) n - 1
REM
REM in /home/bkarasulu/work/CARBON/AIRSS/Generating-Clusters/EDIP-Nigel-Params/with-SteepDescent/Higher-Symm/SD-CG/HFTN-CG
REM
REM
REM
REM
REM
REM ./C.cell (12c818d87b63d06a65506943cc24bca4)
REM
REM compiler GCC version 9.2.1 20190827 (Red Hat 9.2.1-1)
REM options -cpp -mtune=generic -march=x86-64 -g -O0 -fpre-include=/usr/include/finclude/math-vector-fortran.h
REM seed -184652651 -863279322 1815199110 1742251218 -810699068 -1442994838 -1885676705 -1364937134 -794076006 16198626 1166712939 356471535 -1426577503 -21077713 -1571351838 -253646526 1235371483 1581257155 -36518713 1066578347 -242283603 -247310345 184370926 1152031028 -1990156769 -1392833502 821177087 -1048140548 1420879637 -516963682 -1981506936 -1930492006 1345122713
REM
CELL 1.54180   50.00000   50.00000   50.00000   90.00000   90.00000   90.00000
LATT -1
SFAC C  
C      1  0.5303480000000  0.5244910000000  0.4403460000000 1.0
C      1  0.4704770000000  0.4762250000000  0.4426450000000 1.0
C      1  0.5222220000000  0.4691370000000  0.4439750000000 1.0
C      1  0.4760890000000  0.5308940000000  0.4444810000000 1.0
C      1  0.5265950000000  0.4845270000000  0.5203250000000 1.0
C      1  0.4805370000000  0.5101560000000  0.5188840000000 1.0
C      1  0.5110310000000  0.5097770000000  0.5171450000000 1.0
C      1  0.4668160000000  0.4816140000000  0.5187100000000 1.0
C      1  0.4469530000000  0.5752090000000  0.5204520000000 1.0
C      1  0.5571790000000  0.4232080000000  0.5198390000000 1.0
C      1  0.4437880000000  0.4198240000000  0.5137420000000 1.0
C      1  0.5594800000000  0.5802990000000  0.5116150000000 1.0
C      1  0.5620500000000  0.4412680000000  0.4483190000000 1.0
C      1  0.4386680000000  0.5616610000000  0.4491890000000 1.0
C      1  0.5598740000000  0.5576350000000  0.4404040000000 1.0
C      1  0.4486560000000  0.4376470000000  0.4430210000000 1.0
C      1  0.4074880000000  0.5526200000000  0.5385290000000 1.0
C      1  0.5870290000000  0.4567780000000  0.5388960000000 1.0
C      1  0.4089130000000  0.4484880000000  0.5303730000000 1.0
C      1  0.5918710000000  0.5508350000000  0.5305320000000 1.0
C      1  0.4322990000000  0.5109030000000  0.5627400000000 1.0
C      1  0.5543170000000  0.4933220000000  0.5589260000000 1.0
C      1  0.4335060000000  0.4800150000000  0.5587210000000 1.0
C      1  0.5581450000000  0.5163730000000  0.5732280000000 1.0
C      1  0.4136800000000  0.5338530000000  0.4923080000000 1.0
C      1  0.5817830000000  0.4713480000000  0.4926810000000 1.0
C      1  0.4153920000000  0.4687310000000  0.4866760000000 1.0
C      1  0.5889160000000  0.5292230000000  0.4871170000000 1.0
C      1  0.4914990000000  0.4003660000000  0.4535820000000 1.0
C      1  0.5115990000000  0.5971770000000  0.4514480000000 1.0
C      1  0.4878140000000  0.5821080000000  0.4498910000000 1.0
C      1  0.5134410000000  0.4174510000000  0.4501090000000 1.0
C      1  0.4500030000000  0.4346420000000  0.5590850000000 1.0
C      1  0.5517730000000  0.5639670000000  0.5559850000000 1.0
C      1  0.4571890000000  0.5513840000000  0.5605910000000 1.0
C      1  0.5457490000000  0.4426530000000  0.5624880000000 1.0
C      1  0.5138960000000  0.3993930000000  0.5238670000000 1.0
C      1  0.4901040000000  0.5973040000000  0.5255840000000 1.0
C      1  0.5160650000000  0.6021910000000  0.5209180000000 1.0
C      1  0.4871280000000  0.3966590000000  0.5223620000000 1.0
C      1  0.5291560000000  0.4182670000000  0.4745650000000 1.0
C      1  0.4738340000000  0.5811950000000  0.4751610000000 1.0
C      1  0.5276170000000  0.5811750000000  0.4692210000000 1.0
C      1  0.4758550000000  0.4140440000000  0.4732390000000 1.0
C      1  0.4744350000000  0.4662370000000  0.4933790000000 1.0
C      1  0.5333390000000  0.5331330000000  0.4898130000000 1.0
C      1  0.4708550000000  0.5290010000000  0.4949860000000 1.0
C      1  0.5280300000000  0.4692490000000  0.4931330000000 1.0
C      1  0.5174530000000  0.4383660000000  0.4956530000000 1.0
C      1  0.4853420000000  0.5597030000000  0.4953320000000 1.0
C      1  0.5183680000000  0.5620970000000  0.4921470000000 1.0
C      1  0.4858440000000  0.4372490000000  0.4948750000000 1.0
C      1  0.4322710000000  0.5150920000000  0.5321640000000 1.0
C      1  0.5545540000000  0.4930240000000  0.5290730000000 1.0
C      1  0.4366580000000  0.4856460000000  0.5267610000000 1.0
C      1  0.5572940000000  0.5198960000000  0.5166450000000 1.0
C      1  0.4842460000000  0.5183530000000  0.5505440000000 1.0
C      1  0.5172460000000  0.4723460000000  0.5470080000000 1.0
C      1  0.4743230000000  0.4689260000000  0.5460140000000 1.0
C      1  0.5237550000000  0.5310980000000  0.5328410000000 1.0
C      1  0.4412290000000  0.4753120000000  0.4462700000000 1.0
C      1  0.5601330000000  0.5277800000000  0.4443980000000 1.0
C      1  0.4462960000000  0.5347020000000  0.4504460000000 1.0
C      1  0.5525540000000  0.4675510000000  0.4491800000000 1.0
C      1  0.5857690000000  0.5274470000000  0.5160400000000 1.0
C      1  0.4138100000000  0.4716350000000  0.5150330000000 1.0
C      1  0.5773920000000  0.4760160000000  0.5207320000000 1.0
C      1  0.4110130000000  0.5299610000000  0.5214550000000 1.0
C      1  0.5043670000000  0.4443930000000  0.4462430000000 1.0
C      1  0.4948570000000  0.5547690000000  0.4458710000000 1.0
C      1  0.5219310000000  0.5518640000000  0.4365230000000 1.0
C      1  0.4760360000000  0.4484050000000  0.4383020000000 1.0
C      1  0.4331220000000  0.4280460000000  0.4872650000000 1.0
C      1  0.5701540000000  0.5692700000000  0.4863480000000 1.0
C      1  0.4319120000000  0.5740780000000  0.4948750000000 1.0
C      1  0.5712330000000  0.4284180000000  0.4938020000000 1.0
C      1  0.5265860000000  0.5591780000000  0.5402290000000 1.0
C      1  0.4764840000000  0.4373770000000  0.5452740000000 1.0
C      1  0.5203580000000  0.4410430000000  0.5467590000000 1.0
C      1  0.4831060000000  0.5538700000000  0.5466190000000 1.0
C      1  0.5269190000000  0.4249000000000  0.5219120000000 1.0
C      1  0.4769930000000  0.5720870000000  0.5225140000000 1.0
C      1  0.5296740000000  0.5770970000000  0.5164730000000 1.0
C      1  0.4737360000000  0.4220990000000  0.5195040000000 1.0
C      1  0.5129230000000  0.4827590000000  0.4181550000000 1.0
C      1  0.4852680000000  0.5170370000000  0.4184460000000 1.0
C      1  0.5176830000000  0.5124390000000  0.4162870000000 1.0
C      1  0.4817490000000  0.4874130000000  0.4178030000000 1.0
C      1  0.4069430000000  0.5614800000000  0.4899730000000 1.0
C      1  0.5935150000000  0.4455700000000  0.4894840000000 1.0
C      1  0.4092630000000  0.4417260000000  0.4801350000000 1.0
C      1  0.5952310000000  0.5566730000000  0.4823580000000 1.0
C      1  0.5584910000000  0.5428970000000  0.5730230000000 1.0
C      1  0.4476180000000  0.4601220000000  0.5728480000000 1.0
C      1  0.5462490000000  0.4699880000000  0.5728030000000 1.0
C      1  0.4549870000000  0.5249410000000  0.5729530000000 1.0
C      1  0.4812680000000  0.5151790000000  0.4702330000000 1.0
C      1  0.5139930000000  0.4843750000000  0.4691500000000 1.0
C      1  0.4833980000000  0.4840300000000  0.4698640000000 1.0
C      1  0.5203980000000  0.5152460000000  0.4674310000000 1.0
C      1  0.4312720000000  0.4884540000000  0.4704070000000 1.0
C      1  0.5642960000000  0.5165870000000  0.4730710000000 1.0
C      1  0.4375980000000  0.5195500000000  0.4764250000000 1.0
C      1  0.5599530000000  0.4832890000000  0.4750510000000 1.0
C      1  0.5685970000000  0.4358670000000  0.5439380000000 1.0
C      1  0.4349300000000  0.5609600000000  0.5423290000000 1.0
C      1  0.5731080000000  0.5712970000000  0.5360410000000 1.0
C      1  0.4292700000000  0.4296890000000  0.5370520000000 1.0
C      1  0.5558000000000  0.5763870000000  0.4624560000000 1.0
C      1  0.4485830000000  0.4192030000000  0.4648840000000 1.0
C      1  0.5572590000000  0.4229180000000  0.4691760000000 1.0
C      1  0.4455180000000  0.5790900000000  0.4703370000000 1.0
C      1  0.4934900000000  0.4880540000000  0.5594830000000 1.0
END
