TITL C-3577077-324-411 -2.42089007659998e-06 125000 -1100.20230286886 0 0 174 (C1) n - 1
REM
REM in /home/bkarasulu/work/CARBON/AIRSS/Generating-Clusters/EDIP-Nigel-Params/with-SteepDescent/Higher-Symm/SD-CG/HFTN-CG
REM
REM
REM
REM
REM
REM ./C.cell (12c818d87b63d06a65506943cc24bca4)
REM
REM compiler GCC version 9.2.1 20190827 (Red Hat 9.2.1-1)
REM options -cpp -mtune=generic -march=x86-64 -g -O0 -fpre-include=/usr/include/finclude/math-vector-fortran.h
REM seed -581490358 1869082950 227354415 1322452103 1822071843 1038252008 986423042 -737113871 503439850 -1552029878 -890475944 -806688112 867097302 1571095370 -2048964251 -1767942649 1756479791 -977300785 -1518755372 -1223259715 302573879 -560173143 -779206853 -711051851 -1909672329 -760298492 -42643277 -1549244158 -1565436068 -1621761795 754247819 -1983748388 1488353860
REM
CELL 1.54180   50.00000   50.00000   50.00000   90.00000   90.00000   90.00000
LATT -1
SFAC C  
C      1  0.4842140000000  0.4590380000000  0.4745370000000 1.0
C      1  0.5102560000000  0.4624600000000  0.5236910000000 1.0
C      1  0.5348390000000  0.4669730000000  0.4670350000000 1.0
C      1  0.5435540000000  0.4932070000000  0.5204320000000 1.0
C      1  0.5405620000000  0.5259740000000  0.4699230000000 1.0
C      1  0.5190640000000  0.5380120000000  0.5264240000000 1.0
C      1  0.4901140000000  0.5464380000000  0.4689250000000 1.0
C      1  0.4624600000000  0.5358580000000  0.5262060000000 1.0
C      1  0.4675570000000  0.4997630000000  0.4687340000000 1.0
C      1  0.4583380000000  0.4745040000000  0.5222780000000 1.0
C      1  0.4615820000000  0.5570660000000  0.5028680000000 1.0
C      1  0.4298550000000  0.5112840000000  0.5039520000000 1.0
C      1  0.4365040000000  0.4819680000000  0.5013390000000 1.0
C      1  0.4695220000000  0.4359640000000  0.5027850000000 1.0
C      1  0.5011070000000  0.4303450000000  0.5035660000000 1.0
C      1  0.5484630000000  0.4479880000000  0.4985810000000 1.0
C      1  0.5636120000000  0.4752730000000  0.5004780000000 1.0
C      1  0.5626860000000  0.5339540000000  0.5004950000000 1.0
C      1  0.5409680000000  0.5580530000000  0.5012820000000 1.0
C      1  0.4910570000000  0.5696580000000  0.5004020000000 1.0
C      1  0.4731320000000  0.4398840000000  0.5834930000000 1.0
C      1  0.5163760000000  0.4364070000000  0.4160060000000 1.0
C      1  0.5480560000000  0.4576710000000  0.5822640000000 1.0
C      1  0.5666310000000  0.4953860000000  0.4160420000000 1.0
C      1  0.5553460000000  0.5339980000000  0.5831670000000 1.0
C      1  0.5258590000000  0.5611150000000  0.4174930000000 1.0
C      1  0.4846150000000  0.5646190000000  0.5842540000000 1.0
C      1  0.4509190000000  0.5435200000000  0.4179160000000 1.0
C      1  0.4331670000000  0.5063540000000  0.5847560000000 1.0
C      1  0.4447880000000  0.4650300000000  0.4181590000000 1.0
C      1  0.5603320000000  0.4800120000000  0.4712400000000 1.0
C      1  0.5590060000000  0.5190600000000  0.5248150000000 1.0
C      1  0.5368430000000  0.5544440000000  0.4718030000000 1.0
C      1  0.5048040000000  0.5639960000000  0.5256980000000 1.0
C      1  0.4623000000000  0.5506210000000  0.4733550000000 1.0
C      1  0.4375730000000  0.5212920000000  0.5297610000000 1.0
C      1  0.4450090000000  0.4790070000000  0.4715710000000 1.0
C      1  0.4619840000000  0.4468860000000  0.5284040000000 1.0
C      1  0.5036640000000  0.4366750000000  0.4745430000000 1.0
C      1  0.5356450000000  0.4471790000000  0.5245560000000 1.0
C      1  0.4998870000000  0.5457010000000  0.4178920000000 1.0
C      1  0.4691300000000  0.5416510000000  0.5931970000000 1.0
C      1  0.4577360000000  0.5141490000000  0.4167670000000 1.0
C      1  0.4510070000000  0.4846340000000  0.5922610000000 1.0
C      1  0.4703000000000  0.4569230000000  0.4039270000000 1.0
C      1  0.4989610000000  0.4514110000000  0.5892490000000 1.0
C      1  0.5312790000000  0.4598790000000  0.4072640000000 1.0
C      1  0.5470400000000  0.4850480000000  0.5918190000000 1.0
C      1  0.5485180000000  0.5168570000000  0.4079380000000 1.0
C      1  0.5287400000000  0.5417410000000  0.5928880000000 1.0
C      1  0.4864790000000  0.4804000000000  0.3939430000000 1.0
C      1  0.4991760000000  0.4761060000000  0.6034160000000 1.0
C      1  0.5156720000000  0.4810030000000  0.3959170000000 1.0
C      1  0.5218660000000  0.4936190000000  0.6026130000000 1.0
C      1  0.5236980000000  0.5085720000000  0.3956780000000 1.0
C      1  0.5135040000000  0.5211060000000  0.6065040000000 1.0
C      1  0.4999050000000  0.5257900000000  0.3952570000000 1.0
C      1  0.4844000000000  0.5202700000000  0.6046190000000 1.0
C      1  0.4756760000000  0.5085810000000  0.3935180000000 1.0
C      1  0.4756850000000  0.4926690000000  0.6042760000000 1.0
C      1  0.4459930000000  0.4265450000000  0.4478020000000 1.0
C      1  0.4975860000000  0.4090690000000  0.5529620000000 1.0
C      1  0.5540450000000  0.4258070000000  0.4469800000000 1.0
C      1  0.5846300000000  0.4705790000000  0.5520140000000 1.0
C      1  0.5866740000000  0.5283380000000  0.4477970000000 1.0
C      1  0.5548940000000  0.5739330000000  0.5535330000000 1.0
C      1  0.5010000000000  0.5906590000000  0.4486090000000 1.0
C      1  0.4462090000000  0.5757650000000  0.5541570000000 1.0
C      1  0.4166340000000  0.5281640000000  0.4494840000000 1.0
C      1  0.4120260000000  0.4732420000000  0.5537670000000 1.0
C      1  0.3859520000000  0.5053140000000  0.5288000000000 1.0
C      1  0.4080920000000  0.4393700000000  0.4758000000000 1.0
C      1  0.4595960000000  0.3931640000000  0.5286000000000 1.0
C      1  0.5303700000000  0.3919710000000  0.4748710000000 1.0
C      1  0.5873680000000  0.4288660000000  0.5279280000000 1.0
C      1  0.6107720000000  0.4956330000000  0.4754910000000 1.0
C      1  0.5943240000000  0.5623490000000  0.5283980000000 1.0
C      1  0.5393990000000  0.6063070000000  0.4747900000000 1.0
C      1  0.4706350000000  0.6089570000000  0.5281330000000 1.0
C      1  0.4128690000000  0.5691080000000  0.4762750000000 1.0
C      1  0.5723130000000  0.5856220000000  0.4805880000000 1.0
C      1  0.5094040000000  0.6105660000000  0.5194120000000 1.0
C      1  0.4428080000000  0.5942590000000  0.4813760000000 1.0
C      1  0.3963150000000  0.5421860000000  0.5199560000000 1.0
C      1  0.3956680000000  0.4765270000000  0.4805810000000 1.0
C      1  0.4284330000000  0.4149710000000  0.5190600000000 1.0
C      1  0.4914700000000  0.3904850000000  0.4809080000000 1.0
C      1  0.5570780000000  0.4053700000000  0.5187640000000 1.0
C      1  0.6021320000000  0.4575230000000  0.4804170000000 1.0
C      1  0.6062330000000  0.5255090000000  0.5190960000000 1.0
C      1  0.5855910000000  0.4982570000000  0.5614360000000 1.0
C      1  0.5721480000000  0.5518440000000  0.4373770000000 1.0
C      1  0.5287890000000  0.5833730000000  0.5634830000000 1.0
C      1  0.4739880000000  0.5842480000000  0.4385450000000 1.0
C      1  0.4285770000000  0.5539770000000  0.5643900000000 1.0
C      1  0.4147830000000  0.5012850000000  0.4384170000000 1.0
C      1  0.4273540000000  0.4499260000000  0.5631560000000 1.0
C      1  0.4733640000000  0.4200450000000  0.4388640000000 1.0
C      1  0.5240270000000  0.4174360000000  0.5618320000000 1.0
C      1  0.5714260000000  0.4476080000000  0.4363170000000 1.0
C      1  0.5514640000000  0.5452180000000  0.4166220000000 1.0
C      1  0.5146480000000  0.5662640000000  0.5841470000000 1.0
C      1  0.4742670000000  0.5626310000000  0.4177370000000 1.0
C      1  0.4415920000000  0.5353900000000  0.5842490000000 1.0
C      1  0.4347050000000  0.4943810000000  0.4176960000000 1.0
C      1  0.4483000000000  0.4565550000000  0.5833430000000 1.0
C      1  0.4863390000000  0.4354360000000  0.4168830000000 1.0
C      1  0.5245330000000  0.4394890000000  0.5817560000000 1.0
C      1  0.5588440000000  0.4661220000000  0.4159330000000 1.0
C      1  0.5659470000000  0.5057800000000  0.5828190000000 1.0
C      1  0.4706780000000  0.4624430000000  0.4472600000000 1.0
C      1  0.5018480000000  0.4740970000000  0.5517720000000 1.0
C      1  0.5186980000000  0.4845410000000  0.4484940000000 1.0
C      1  0.5314750000000  0.4909420000000  0.5513250000000 1.0
C      1  0.5209730000000  0.5132800000000  0.4542120000000 1.0
C      1  0.5250670000000  0.5241250000000  0.5523390000000 1.0
C      1  0.4976990000000  0.5294000000000  0.4455710000000 1.0
C      1  0.4856640000000  0.5187860000000  0.5326760000000 1.0
C      1  0.4765770000000  0.5075760000000  0.4409730000000 1.0
C      1  0.4781200000000  0.4898700000000  0.5380130000000 1.0
C      1  0.4092350000000  0.4964820000000  0.5711440000000 1.0
C      1  0.4295450000000  0.4421890000000  0.4298840000000 1.0
C      1  0.4750060000000  0.4137500000000  0.5704540000000 1.0
C      1  0.5326910000000  0.4164250000000  0.4299840000000 1.0
C      1  0.5731510000000  0.4508790000000  0.5695310000000 1.0
C      1  0.5900940000000  0.5054450000000  0.4304140000000 1.0
C      1  0.5697030000000  0.5559460000000  0.5704790000000 1.0
C      1  0.5235270000000  0.5875880000000  0.4305580000000 1.0
C      1  0.4686190000000  0.5841860000000  0.5703740000000 1.0
C      1  0.4252870000000  0.5488710000000  0.4314850000000 1.0
C      1  0.4449390000000  0.5927200000000  0.5297820000000 1.0
C      1  0.4045010000000  0.5399250000000  0.4734160000000 1.0
C      1  0.3960850000000  0.4763900000000  0.5292240000000 1.0
C      1  0.4324730000000  0.4216500000000  0.4731600000000 1.0
C      1  0.4901800000000  0.3927910000000  0.5296940000000 1.0
C      1  0.5555340000000  0.4090320000000  0.4714310000000 1.0
C      1  0.5972220000000  0.4576470000000  0.5288750000000 1.0
C      1  0.6020210000000  0.5246380000000  0.4724540000000 1.0
C      1  0.5706920000000  0.5814240000000  0.5295920000000 1.0
C      1  0.5089710000000  0.6056720000000  0.4724300000000 1.0
C      1  0.4484500000000  0.4137440000000  0.4973600000000 1.0
C      1  0.5057740000000  0.3999540000000  0.5045830000000 1.0
C      1  0.5652780000000  0.4225780000000  0.4962900000000 1.0
C      1  0.5942970000000  0.4734280000000  0.5036620000000 1.0
C      1  0.5929180000000  0.5393670000000  0.4969550000000 1.0
C      1  0.5547310000000  0.5850900000000  0.5040390000000 1.0
C      1  0.4929110000000  0.6003490000000  0.4972420000000 1.0
C      1  0.4385910000000  0.5774790000000  0.5048100000000 1.0
C      1  0.4025980000000  0.5230440000000  0.4984380000000 1.0
C      1  0.4098520000000  0.4663160000000  0.5039840000000 1.0
C      1  0.4531210000000  0.5763190000000  0.4592790000000 1.0
C      1  0.4146710000000  0.5365090000000  0.5430310000000 1.0
C      1  0.4158800000000  0.4792910000000  0.4581700000000 1.0
C      1  0.4396570000000  0.4310610000000  0.5419870000000 1.0
C      1  0.4939100000000  0.4118500000000  0.4595100000000 1.0
C      1  0.5448940000000  0.4227600000000  0.5404820000000 1.0
C      1  0.5835550000000  0.4654910000000  0.4577180000000 1.0
C      1  0.5857270000000  0.5201960000000  0.5405140000000 1.0
C      1  0.5590270000000  0.5702260000000  0.4581140000000 1.0
C      1  0.5091020000000  0.5899840000000  0.5415540000000 1.0
C      1  0.4513180000000  0.4061930000000  0.5554750000000 1.0
C      1  0.5175520000000  0.3975280000000  0.4463350000000 1.0
C      1  0.5720810000000  0.4262950000000  0.5542930000000 1.0
C      1  0.6037360000000  0.4853890000000  0.4465290000000 1.0
C      1  0.5919650000000  0.5469370000000  0.5545600000000 1.0
C      1  0.5471840000000  0.5954870000000  0.4459030000000 1.0
C      1  0.4841710000000  0.6024460000000  0.5543630000000 1.0
C      1  0.4251010000000  0.5733300000000  0.4472030000000 1.0
C      1  0.3951180000000  0.5168790000000  0.5559210000000 1.0
C      1  0.4079530000000  0.4516950000000  0.4466920000000 1.0
C      1  0.5022950000000  0.5091240000000  0.5660550000000 1.0
C      1  0.4909730000000  0.4817380000000  0.4327040000000 1.0
C      1  0.4958890000000  0.4872170000000  0.4797460000000 1.0
C      1  0.5131660000000  0.4873740000000  0.5059780000000 1.0
END
