TITL C-3577080-309-56 1.77149685536306e-07 125000 -940.725490143813 0 0 151 (C1) n - 1
REM
REM in /home/bkarasulu/work/CARBON/AIRSS/Generating-Clusters/EDIP-Nigel-Params/with-SteepDescent/Higher-Symm/SD-CG/HFTN-CG
REM
REM
REM
REM
REM
REM ./C.cell (12c818d87b63d06a65506943cc24bca4)
REM
REM compiler GCC version 9.2.1 20190827 (Red Hat 9.2.1-1)
REM options -cpp -mtune=generic -march=x86-64 -g -O0 -fpre-include=/usr/include/finclude/math-vector-fortran.h
REM seed 633547541 -1244822084 1842338549 1110464615 -956859341 -1143261289 -942304528 1911965261 1875887140 -302006644 250371538 -1072872282 1435670662 -1165990861 -2111392530 -736892865 1264741469 -1707296442 568202033 -1987570649 1360140874 623292880 1437837596 1262456291 -353343093 1602268590 1760130911 -1813896018 1891681628 505639851 -1882361836 1655473735 333797575
REM
CELL 1.54180   50.00000   50.00000   50.00000   90.00000   90.00000   90.00000
LATT -1
SFAC C  
C      1  0.4305980000000  0.4148870000000  0.5030510000000 1.0
C      1  0.5686520000000  0.5026420000000  0.5890280000000 1.0
C      1  0.4334890000000  0.5856510000000  0.4990150000000 1.0
C      1  0.5680420000000  0.4984600000000  0.4165720000000 1.0
C      1  0.4930470000000  0.5317150000000  0.5454480000000 1.0
C      1  0.5142250000000  0.5477680000000  0.4690150000000 1.0
C      1  0.4930370000000  0.4726660000000  0.4582980000000 1.0
C      1  0.5040960000000  0.4587860000000  0.5313580000000 1.0
C      1  0.5222290000000  0.5203000000000  0.5835680000000 1.0
C      1  0.4789960000000  0.5808300000000  0.4825190000000 1.0
C      1  0.5220930000000  0.4840660000000  0.4187760000000 1.0
C      1  0.4772690000000  0.4187680000000  0.5178490000000 1.0
C      1  0.4135110000000  0.5188790000000  0.5033880000000 1.0
C      1  0.5853180000000  0.5011630000000  0.4855120000000 1.0
C      1  0.4194940000000  0.4900600000000  0.4993780000000 1.0
C      1  0.5817480000000  0.4973390000000  0.5148140000000 1.0
C      1  0.4606390000000  0.4434820000000  0.5192830000000 1.0
C      1  0.5401920000000  0.5222600000000  0.5584660000000 1.0
C      1  0.4600840000000  0.5499000000000  0.4819030000000 1.0
C      1  0.5408980000000  0.4819250000000  0.4519820000000 1.0
C      1  0.5979600000000  0.4569990000000  0.4964420000000 1.0
C      1  0.4055560000000  0.4963670000000  0.5438300000000 1.0
C      1  0.5896570000000  0.5427240000000  0.5061820000000 1.0
C      1  0.4019730000000  0.5088730000000  0.4589420000000 1.0
C      1  0.5895800000000  0.5296810000000  0.4796720000000 1.0
C      1  0.4078260000000  0.4826390000000  0.4726430000000 1.0
C      1  0.5946630000000  0.4714470000000  0.5224380000000 1.0
C      1  0.4068830000000  0.5237620000000  0.5314640000000 1.0
C      1  0.5397760000000  0.5299500000000  0.5104320000000 1.0
C      1  0.4623430000000  0.5062790000000  0.4756740000000 1.0
C      1  0.5409930000000  0.4698220000000  0.5031260000000 1.0
C      1  0.4607840000000  0.4967680000000  0.5303400000000 1.0
C      1  0.5846200000000  0.4577250000000  0.5445280000000 1.0
C      1  0.4172230000000  0.5459370000000  0.5451540000000 1.0
C      1  0.5780920000000  0.5436980000000  0.4580290000000 1.0
C      1  0.4178470000000  0.4613870000000  0.4573970000000 1.0
C      1  0.5592050000000  0.5117410000000  0.6138330000000 1.0
C      1  0.4411650000000  0.6105930000000  0.4886120000000 1.0
C      1  0.5614200000000  0.4878180000000  0.3912960000000 1.0
C      1  0.4392120000000  0.3894490000000  0.5116380000000 1.0
C      1  0.4841410000000  0.5743440000000  0.5537130000000 1.0
C      1  0.5173850000000  0.5536830000000  0.4166640000000 1.0
C      1  0.4791420000000  0.4195230000000  0.4439380000000 1.0
C      1  0.5190110000000  0.4457230000000  0.5796510000000 1.0
C      1  0.4572490000000  0.4875140000000  0.4005670000000 1.0
C      1  0.5357670000000  0.4257810000000  0.4869390000000 1.0
C      1  0.4596330000000  0.4942330000000  0.5907850000000 1.0
C      1  0.5486540000000  0.5836320000000  0.4858480000000 1.0
C      1  0.4612500000000  0.5108820000000  0.4205590000000 1.0
C      1  0.5468970000000  0.4224820000000  0.4600110000000 1.0
C      1  0.4614080000000  0.4696820000000  0.5753790000000 1.0
C      1  0.5385630000000  0.5434190000000  0.5368180000000 1.0
C      1  0.5518640000000  0.4806470000000  0.5748920000000 1.0
C      1  0.4515180000000  0.5743150000000  0.5210130000000 1.0
C      1  0.5489790000000  0.5205190000000  0.4263270000000 1.0
C      1  0.4469520000000  0.4282590000000  0.4798240000000 1.0
C      1  0.4912560000000  0.5003630000000  0.4723450000000 1.0
C      1  0.5106920000000  0.4698230000000  0.5039600000000 1.0
C      1  0.4898300000000  0.5036140000000  0.5322210000000 1.0
C      1  0.5103020000000  0.5303170000000  0.5013910000000 1.0
C      1  0.5758620000000  0.4227100000000  0.4659720000000 1.0
C      1  0.4315390000000  0.4603040000000  0.5708820000000 1.0
C      1  0.5578180000000  0.5650010000000  0.5377920000000 1.0
C      1  0.4242780000000  0.5271390000000  0.4173330000000 1.0
C      1  0.4615700000000  0.6036830000000  0.4704010000000 1.0
C      1  0.5399080000000  0.4705460000000  0.3974340000000 1.0
C      1  0.4605430000000  0.3954470000000  0.5292890000000 1.0
C      1  0.5391800000000  0.5304630000000  0.6069960000000 1.0
C      1  0.4860040000000  0.4606940000000  0.4031000000000 1.0
C      1  0.5214280000000  0.4088920000000  0.5282670000000 1.0
C      1  0.4794120000000  0.5334000000000  0.5956340000000 1.0
C      1  0.5165140000000  0.5992410000000  0.4619680000000 1.0
C      1  0.5872010000000  0.4675550000000  0.4494940000000 1.0
C      1  0.4144470000000  0.4508080000000  0.5310670000000 1.0
C      1  0.5876420000000  0.5297070000000  0.5535070000000 1.0
C      1  0.4117350000000  0.5534900000000  0.4701430000000 1.0
C      1  0.5176680000000  0.4063020000000  0.4982780000000 1.0
C      1  0.4834860000000  0.5045660000000  0.6021060000000 1.0
C      1  0.5213130000000  0.6000260000000  0.4926570000000 1.0
C      1  0.4865930000000  0.4898330000000  0.3909090000000 1.0
C      1  0.4915570000000  0.4571030000000  0.4832630000000 1.0
C      1  0.5080340000000  0.4839630000000  0.5464040000000 1.0
C      1  0.4923770000000  0.5463800000000  0.5200830000000 1.0
C      1  0.5095010000000  0.5201020000000  0.4580700000000 1.0
C      1  0.4583260000000  0.5623810000000  0.5652350000000 1.0
C      1  0.5383940000000  0.5640140000000  0.4356700000000 1.0
C      1  0.4584710000000  0.4410510000000  0.4373280000000 1.0
C      1  0.5430240000000  0.4386640000000  0.5604110000000 1.0
C      1  0.4704530000000  0.4107420000000  0.4705380000000 1.0
C      1  0.5270310000000  0.4718970000000  0.5911150000000 1.0
C      1  0.4774850000000  0.5898400000000  0.5291120000000 1.0
C      1  0.5252290000000  0.5269070000000  0.4071160000000 1.0
C      1  0.4691080000000  0.4424240000000  0.6012570000000 1.0
C      1  0.5268400000000  0.6008410000000  0.5563670000000 1.0
C      1  0.4703370000000  0.5432420000000  0.4014710000000 1.0
C      1  0.5259630000000  0.3932800000000  0.4453050000000 1.0
C      1  0.4495190000000  0.5045810000000  0.4490980000000 1.0
C      1  0.5521670000000  0.4404450000000  0.5065410000000 1.0
C      1  0.4467400000000  0.5063610000000  0.5574270000000 1.0
C      1  0.5439870000000  0.5516810000000  0.4829330000000 1.0
C      1  0.5453740000000  0.4249550000000  0.5337830000000 1.0
C      1  0.4562650000000  0.5364510000000  0.5785420000000 1.0
C      1  0.5409040000000  0.5894730000000  0.4493580000000 1.0
C      1  0.4576480000000  0.4560000000000  0.4123160000000 1.0
C      1  0.4348210000000  0.4311660000000  0.5283230000000 1.0
C      1  0.5666940000000  0.5278880000000  0.5726900000000 1.0
C      1  0.4365210000000  0.5676800000000  0.4745780000000 1.0
C      1  0.5635340000000  0.4739880000000  0.4345010000000 1.0
C      1  0.5018320000000  0.5408470000000  0.5775200000000 1.0
C      1  0.4982050000000  0.5756250000000  0.4606040000000 1.0
C      1  0.5037080000000  0.4626860000000  0.4284430000000 1.0
C      1  0.4982450000000  0.4255460000000  0.5376170000000 1.0
C      1  0.5360740000000  0.5097460000000  0.4513140000000 1.0
C      1  0.4620840000000  0.4571030000000  0.4934220000000 1.0
C      1  0.5382700000000  0.4936520000000  0.5479760000000 1.0
C      1  0.4644700000000  0.5495080000000  0.5102410000000 1.0
C      1  0.5790680000000  0.4342820000000  0.4930950000000 1.0
C      1  0.4228740000000  0.4893000000000  0.5666950000000 1.0
C      1  0.5688680000000  0.5633160000000  0.5110460000000 1.0
C      1  0.4254850000000  0.5199690000000  0.4447480000000 1.0
C      1  0.4795130000000  0.5766600000000  0.4374510000000 1.0
C      1  0.5220240000000  0.4396960000000  0.4286080000000 1.0
C      1  0.4821760000000  0.4174050000000  0.5621660000000 1.0
C      1  0.5193600000000  0.5646020000000  0.5866440000000 1.0
C      1  0.5658890000000  0.4561850000000  0.5650110000000 1.0
C      1  0.4367810000000  0.5660110000000  0.5459560000000 1.0
C      1  0.5616540000000  0.5462400000000  0.4353950000000 1.0
C      1  0.4348710000000  0.4397000000000  0.4546780000000 1.0
C      1  0.4001170000000  0.5299280000000  0.4799140000000 1.0
C      1  0.5966540000000  0.4768710000000  0.4740650000000 1.0
C      1  0.4067590000000  0.4760750000000  0.5227060000000 1.0
C      1  0.5929230000000  0.5223470000000  0.5271990000000 1.0
C      1  0.5477630000000  0.5554340000000  0.5931150000000 1.0
C      1  0.4532930000000  0.5872000000000  0.4467370000000 1.0
C      1  0.5470590000000  0.4471090000000  0.4145770000000 1.0
C      1  0.4539280000000  0.4100050000000  0.5546190000000 1.0
C      1  0.5489380000000  0.5900730000000  0.5456330000000 1.0
C      1  0.4425880000000  0.5425900000000  0.4036790000000 1.0
C      1  0.5537030000000  0.3943420000000  0.4528830000000 1.0
C      1  0.4406700000000  0.4439560000000  0.5947240000000 1.0
C      1  0.4898500000000  0.4368240000000  0.5816790000000 1.0
C      1  0.5080540000000  0.5840980000000  0.5684510000000 1.0
C      1  0.4883570000000  0.5579910000000  0.4176910000000 1.0
C      1  0.5090310000000  0.4157390000000  0.4381310000000 1.0
C      1  0.5038630000000  0.5060340000000  0.4086430000000 1.0
C      1  0.4898620000000  0.4138090000000  0.4921930000000 1.0
C      1  0.5082670000000  0.4948240000000  0.5890130000000 1.0
C      1  0.4966000000000  0.5879220000000  0.5057370000000 1.0
C      1  0.5507630000000  0.4951580000000  0.5181840000000 1.0
C      1  0.4512000000000  0.4883390000000  0.4999330000000 1.0
C      1  0.5013890000000  0.5003140000000  0.5019860000000 1.0
END
