TITL C-3577081-279-273 -3.75318618653288e-06 125000 -1254.22201516639 0 0 193 (C1) n - 1
REM
REM in /home/bkarasulu/work/CARBON/AIRSS/Generating-Clusters/EDIP-Nigel-Params/with-SteepDescent/Higher-Symm/SD-CG/HFTN-CG
REM
REM
REM
REM
REM
REM ./C.cell (12c818d87b63d06a65506943cc24bca4)
REM
REM compiler GCC version 9.2.1 20190827 (Red Hat 9.2.1-1)
REM options -cpp -mtune=generic -march=x86-64 -g -O0 -fpre-include=/usr/include/finclude/math-vector-fortran.h
REM seed 1938462793 1854303338 3997987 1776391308 -1973515019 -1436046856 854618265 820580297 775103372 813784571 -1615223324 -30185545 -1891708056 -1511009547 1387077923 -1656921844 1787479527 1009651128 -1492762706 1064166413 -1115160484 637606782 1239978368 -17307736 1699071560 -717306678 1875687052 555205236 -383304135 -1760502243 -1071122795 -1193951623 1123795298
REM
CELL 1.54180   50.00000   50.00000   50.00000   90.00000   90.00000   90.00000
LATT -1
SFAC C  
C      1  0.4487760000000  0.4526960000000  0.4089210000000 1.0
C      1  0.4423370000000  0.5746080000000  0.4259840000000 1.0
C      1  0.4421180000000  0.5972480000000  0.5489680000000 1.0
C      1  0.4439310000000  0.4846110000000  0.6067540000000 1.0
C      1  0.4455400000000  0.3961140000000  0.5181740000000 1.0
C      1  0.5585380000000  0.4509080000000  0.4050810000000 1.0
C      1  0.5582790000000  0.5733240000000  0.4239210000000 1.0
C      1  0.5515780000000  0.5914360000000  0.5440730000000 1.0
C      1  0.5535520000000  0.4840620000000  0.6029790000000 1.0
C      1  0.5552660000000  0.3949750000000  0.5177400000000 1.0
C      1  0.4825650000000  0.4524150000000  0.5584540000000 1.0
C      1  0.4856300000000  0.4282630000000  0.4724000000000 1.0
C      1  0.4887320000000  0.5056000000000  0.4240680000000 1.0
C      1  0.4833090000000  0.5726940000000  0.4802420000000 1.0
C      1  0.4799870000000  0.5377120000000  0.5620070000000 1.0
C      1  0.5138220000000  0.4523430000000  0.5563880000000 1.0
C      1  0.5159560000000  0.4256920000000  0.4719530000000 1.0
C      1  0.5203250000000  0.5048200000000  0.4208350000000 1.0
C      1  0.5147490000000  0.5696580000000  0.4777600000000 1.0
C      1  0.5125430000000  0.5348280000000  0.5597120000000 1.0
C      1  0.5314160000000  0.4511100000000  0.3922800000000 1.0
C      1  0.5313030000000  0.5857770000000  0.4189880000000 1.0
C      1  0.5269760000000  0.6008960000000  0.5561950000000 1.0
C      1  0.5286500000000  0.4762560000000  0.6160910000000 1.0
C      1  0.5296630000000  0.3811480000000  0.5145610000000 1.0
C      1  0.4737340000000  0.4518270000000  0.3938500000000 1.0
C      1  0.4695650000000  0.5855440000000  0.4204440000000 1.0
C      1  0.4699540000000  0.6030160000000  0.5576780000000 1.0
C      1  0.4709450000000  0.4771260000000  0.6168920000000 1.0
C      1  0.4719620000000  0.3828490000000  0.5146380000000 1.0
C      1  0.4852770000000  0.3837800000000  0.4878000000000 1.0
C      1  0.4882140000000  0.4772030000000  0.3899040000000 1.0
C      1  0.4851230000000  0.5967660000000  0.4430430000000 1.0
C      1  0.4832010000000  0.5839510000000  0.5764350000000 1.0
C      1  0.4841840000000  0.4523920000000  0.6061510000000 1.0
C      1  0.5152830000000  0.3849210000000  0.4889380000000 1.0
C      1  0.5182040000000  0.4772910000000  0.3859250000000 1.0
C      1  0.5155240000000  0.5966760000000  0.4422860000000 1.0
C      1  0.5117830000000  0.5805010000000  0.5709190000000 1.0
C      1  0.5136260000000  0.4544860000000  0.6028630000000 1.0
C      1  0.4412260000000  0.5666220000000  0.4551600000000 1.0
C      1  0.4386090000000  0.5674690000000  0.5504790000000 1.0
C      1  0.4420740000000  0.4744090000000  0.5786990000000 1.0
C      1  0.4454320000000  0.4196570000000  0.4997340000000 1.0
C      1  0.4454670000000  0.4776960000000  0.4247730000000 1.0
C      1  0.5588490000000  0.5637560000000  0.4521120000000 1.0
C      1  0.5550360000000  0.5619510000000  0.5461980000000 1.0
C      1  0.5558560000000  0.4733520000000  0.5747250000000 1.0
C      1  0.5577000000000  0.4184560000000  0.4988210000000 1.0
C      1  0.5613980000000  0.4763560000000  0.4209170000000 1.0
C      1  0.5177600000000  0.4548260000000  0.4395180000000 1.0
C      1  0.5144580000000  0.5410150000000  0.4307860000000 1.0
C      1  0.5131170000000  0.5633100000000  0.5113010000000 1.0
C      1  0.5148510000000  0.5049060000000  0.5687900000000 1.0
C      1  0.5163570000000  0.4366480000000  0.5292420000000 1.0
C      1  0.4912970000000  0.4560080000000  0.4510390000000 1.0
C      1  0.4830990000000  0.5394520000000  0.4338390000000 1.0
C      1  0.4839770000000  0.5747200000000  0.5193260000000 1.0
C      1  0.4865260000000  0.5040000000000  0.5785470000000 1.0
C      1  0.4883960000000  0.4270970000000  0.5294570000000 1.0
C      1  0.4691110000000  0.4815290000000  0.5638010000000 1.0
C      1  0.4734150000000  0.4343870000000  0.5018120000000 1.0
C      1  0.4783320000000  0.4830630000000  0.4448440000000 1.0
C      1  0.4677160000000  0.5513400000000  0.4632490000000 1.0
C      1  0.4625780000000  0.5544610000000  0.5346020000000 1.0
C      1  0.5291490000000  0.4806020000000  0.5568310000000 1.0
C      1  0.5306870000000  0.4366330000000  0.5020600000000 1.0
C      1  0.5352920000000  0.4825800000000  0.4376020000000 1.0
C      1  0.5279940000000  0.5473500000000  0.4579480000000 1.0
C      1  0.5312460000000  0.5459890000000  0.5319620000000 1.0
C      1  0.4217440000000  0.4762360000000  0.4423850000000 1.0
C      1  0.4174890000000  0.5489750000000  0.4600420000000 1.0
C      1  0.4129540000000  0.5589200000000  0.5370460000000 1.0
C      1  0.4178080000000  0.4857770000000  0.5645480000000 1.0
C      1  0.4228610000000  0.4381520000000  0.5059770000000 1.0
C      1  0.5849700000000  0.4741390000000  0.4397060000000 1.0
C      1  0.5844270000000  0.5478680000000  0.4563620000000 1.0
C      1  0.5801170000000  0.5532930000000  0.5323100000000 1.0
C      1  0.5804150000000  0.4843050000000  0.5617590000000 1.0
C      1  0.5819090000000  0.4349260000000  0.5051680000000 1.0
C      1  0.4727940000000  0.4006370000000  0.4659300000000 1.0
C      1  0.4741700000000  0.5026620000000  0.3974450000000 1.0
C      1  0.4717960000000  0.5989480000000  0.4701590000000 1.0
C      1  0.4704620000000  0.5578210000000  0.5830790000000 1.0
C      1  0.4717180000000  0.4379090000000  0.5831630000000 1.0
C      1  0.5294310000000  0.3983750000000  0.4657900000000 1.0
C      1  0.5327420000000  0.5026570000000  0.3931020000000 1.0
C      1  0.5281440000000  0.5960800000000  0.4692450000000 1.0
C      1  0.5241670000000  0.5551950000000  0.5800290000000 1.0
C      1  0.5260370000000  0.4381550000000  0.5809580000000 1.0
C      1  0.4151860000000  0.5150730000000  0.5662500000000 1.0
C      1  0.4210210000000  0.4466020000000  0.5335060000000 1.0
C      1  0.4224660000000  0.4532110000000  0.4596490000000 1.0
C      1  0.4173190000000  0.5256160000000  0.4425480000000 1.0
C      1  0.4138090000000  0.5669080000000  0.5076350000000 1.0
C      1  0.5808720000000  0.5133440000000  0.5621250000000 1.0
C      1  0.5819950000000  0.4436590000000  0.5329100000000 1.0
C      1  0.5850800000000  0.4500920000000  0.4568580000000 1.0
C      1  0.5868850000000  0.5243480000000  0.4391850000000 1.0
C      1  0.5809990000000  0.5623270000000  0.5048090000000 1.0
C      1  0.6134540000000  0.5235320000000  0.4927440000000 1.0
C      1  0.6090680000000  0.5139180000000  0.5209230000000 1.0
C      1  0.6074950000000  0.4847130000000  0.5198940000000 1.0
C      1  0.6095400000000  0.4750510000000  0.4924630000000 1.0
C      1  0.6134160000000  0.4983660000000  0.4741870000000 1.0
C      1  0.3901570000000  0.5235140000000  0.4932360000000 1.0
C      1  0.3869900000000  0.5146370000000  0.5217540000000 1.0
C      1  0.3912220000000  0.4845280000000  0.5220190000000 1.0
C      1  0.3948930000000  0.4760700000000  0.4937940000000 1.0
C      1  0.3932160000000  0.4995780000000  0.4766390000000 1.0
C      1  0.5615840000000  0.5003310000000  0.4023490000000 1.0
C      1  0.5567040000000  0.5882460000000  0.4697330000000 1.0
C      1  0.5533050000000  0.5533560000000  0.5749820000000 1.0
C      1  0.5550640000000  0.4431910000000  0.5756610000000 1.0
C      1  0.5574680000000  0.4089770000000  0.4700840000000 1.0
C      1  0.4455310000000  0.5016230000000  0.4071620000000 1.0
C      1  0.4425220000000  0.5914620000000  0.4725580000000 1.0
C      1  0.4413220000000  0.5562970000000  0.5788680000000 1.0
C      1  0.4430850000000  0.4439670000000  0.5781340000000 1.0
C      1  0.4449950000000  0.4100800000000  0.4710470000000 1.0
C      1  0.5450060000000  0.4992740000000  0.4639820000000 1.0
C      1  0.5578460000000  0.5301070000000  0.4853470000000 1.0
C      1  0.5506460000000  0.5244500000000  0.5165420000000 1.0
C      1  0.5573410000000  0.4863100000000  0.5109330000000 1.0
C      1  0.5455830000000  0.4781450000000  0.4840110000000 1.0
C      1  0.4576430000000  0.5027840000000  0.4783190000000 1.0
C      1  0.4631240000000  0.5313120000000  0.4867070000000 1.0
C      1  0.4453090000000  0.5414240000000  0.5100910000000 1.0
C      1  0.4388700000000  0.4923140000000  0.5225360000000 1.0
C      1  0.4468850000000  0.4798660000000  0.4962310000000 1.0
C      1  0.5944930000000  0.4989730000000  0.4511880000000 1.0
C      1  0.5950010000000  0.5464660000000  0.4841890000000 1.0
C      1  0.5890210000000  0.5264660000000  0.5377470000000 1.0
C      1  0.5885760000000  0.4714320000000  0.5372990000000 1.0
C      1  0.5918000000000  0.4534730000000  0.4849140000000 1.0
C      1  0.4125000000000  0.5004680000000  0.4551290000000 1.0
C      1  0.4083210000000  0.5455470000000  0.4872940000000 1.0
C      1  0.4079640000000  0.5291560000000  0.5403710000000 1.0
C      1  0.4164100000000  0.4761520000000  0.5364440000000 1.0
C      1  0.4209350000000  0.4615060000000  0.4881280000000 1.0
C      1  0.4846880000000  0.6044310000000  0.5312830000000 1.0
C      1  0.4863700000000  0.5022860000000  0.6104430000000 1.0
C      1  0.4874900000000  0.3961160000000  0.5369850000000 1.0
C      1  0.4883280000000  0.4284090000000  0.4035790000000 1.0
C      1  0.4811940000000  0.5606200000000  0.4089290000000 1.0
C      1  0.5127920000000  0.6157830000000  0.5350690000000 1.0
C      1  0.5144450000000  0.5012650000000  0.6231140000000 1.0
C      1  0.5152210000000  0.3830500000000  0.5401730000000 1.0
C      1  0.5163750000000  0.4359390000000  0.4137620000000 1.0
C      1  0.5190960000000  0.5616150000000  0.4064480000000 1.0
C      1  0.4664130000000  0.6211650000000  0.5152600000000 1.0
C      1  0.4682240000000  0.5235120000000  0.6200500000000 1.0
C      1  0.4687010000000  0.3936570000000  0.5597460000000 1.0
C      1  0.4707220000000  0.4110640000000  0.4174940000000 1.0
C      1  0.4611930000000  0.5512860000000  0.3892900000000 1.0
C      1  0.5301470000000  0.6204680000000  0.5130450000000 1.0
C      1  0.5323360000000  0.5231500000000  0.6213070000000 1.0
C      1  0.5333350000000  0.3907500000000  0.5604960000000 1.0
C      1  0.5337520000000  0.4123440000000  0.4180530000000 1.0
C      1  0.5387780000000  0.5504890000000  0.3875340000000 1.0
C      1  0.4378240000000  0.4322030000000  0.5518450000000 1.0
C      1  0.4400430000000  0.4315190000000  0.4520810000000 1.0
C      1  0.4362510000000  0.5261590000000  0.4208370000000 1.0
C      1  0.4342180000000  0.5873840000000  0.5005960000000 1.0
C      1  0.4348800000000  0.5277890000000  0.5830830000000 1.0
C      1  0.5630190000000  0.4304150000000  0.5506220000000 1.0
C      1  0.5656560000000  0.4295840000000  0.4503510000000 1.0
C      1  0.5686520000000  0.5249010000000  0.4167700000000 1.0
C      1  0.5634650000000  0.5840720000000  0.4974870000000 1.0
C      1  0.5618180000000  0.5260270000000  0.5799890000000 1.0
C      1  0.5548560000000  0.4026220000000  0.5460730000000 1.0
C      1  0.5587730000000  0.4259140000000  0.4222480000000 1.0
C      1  0.5617090000000  0.5505590000000  0.4047030000000 1.0
C      1  0.5508610000000  0.6014660000000  0.5171580000000 1.0
C      1  0.5533500000000  0.5131770000000  0.6048950000000 1.0
C      1  0.4449340000000  0.4041380000000  0.5469980000000 1.0
C      1  0.4490340000000  0.4280720000000  0.4245680000000 1.0
C      1  0.4383870000000  0.5513680000000  0.4069310000000 1.0
C      1  0.4416790000000  0.6073450000000  0.5205470000000 1.0
C      1  0.4437250000000  0.5145450000000  0.6077280000000 1.0
C      1  0.5215090000000  0.4619220000000  0.4825590000000 1.0
C      1  0.5222530000000  0.5189940000000  0.4689960000000 1.0
C      1  0.5165890000000  0.5214310000000  0.4979270000000 1.0
C      1  0.5086240000000  0.4953700000000  0.5129810000000 1.0
C      1  0.5326440000000  0.4864070000000  0.5280970000000 1.0
C      1  0.4716480000000  0.4634410000000  0.5018260000000 1.0
C      1  0.4846030000000  0.4957620000000  0.4704490000000 1.0
C      1  0.4875740000000  0.5334960000000  0.5052680000000 1.0
C      1  0.4865870000000  0.5100360000000  0.5285820000000 1.0
C      1  0.4638570000000  0.4945780000000  0.5382140000000 1.0
C      1  0.4262970000000  0.5192010000000  0.5178540000000 1.0
C      1  0.5782040000000  0.5063140000000  0.4909260000000 1.0
C      1  0.4962240000000  0.4776030000000  0.4918400000000 1.0
END
