TITL C-3578195-8548-562 2.23602685645986e-06 125000 -773.491018198751 0 0 125 (C1) n - 1
REM
REM in /home/bkarasulu/work/CARBON/AIRSS/Generating-Clusters/EDIP-Nigel-Params/with-SteepDescent/Higher-Symm/SD-CG/HFTN-CG
REM
REM
REM
REM
REM
REM ./C.cell (12c818d87b63d06a65506943cc24bca4)
REM
REM compiler GCC version 9.2.1 20190827 (Red Hat 9.2.1-1)
REM options -cpp -mtune=generic -march=x86-64 -g -O0 -fpre-include=/usr/include/finclude/math-vector-fortran.h
REM seed -1804406832 -863296934 131637277 -1119355609 -759816483 1338923688 -1661006373 -1696213383 1830198679 1729370020 -1846475644 2042562076 20557802 -563236600 235996744 -1436551319 421725761 1536832069 -1432471592 96655355 -2078395108 1742028704 1904783781 834646713 -1113947787 -576872248 1095276475 1966364095 -1043255557 -1535075116 294936899 -339595363 -385209138
REM
CELL 1.54180   50.00000   50.00000   50.00000   90.00000   90.00000   90.00000
LATT -1
SFAC C  
C      1  0.4915970000000  0.5889420000000  0.4776660000000 1.0
C      1  0.5094800000000  0.4106070000000  0.4764910000000 1.0
C      1  0.4534880000000  0.4719880000000  0.4273370000000 1.0
C      1  0.5510750000000  0.5358400000000  0.4290620000000 1.0
C      1  0.4581310000000  0.5250800000000  0.4713710000000 1.0
C      1  0.5406590000000  0.4766870000000  0.4714270000000 1.0
C      1  0.4295430000000  0.4313770000000  0.4709570000000 1.0
C      1  0.5741950000000  0.5691750000000  0.4693330000000 1.0
C      1  0.4022170000000  0.5255360000000  0.4586230000000 1.0
C      1  0.5938110000000  0.4738070000000  0.4610060000000 1.0
C      1  0.4681650000000  0.4215070000000  0.5071660000000 1.0
C      1  0.5312870000000  0.5790960000000  0.5084820000000 1.0
C      1  0.4546700000000  0.5860690000000  0.4891980000000 1.0
C      1  0.5458830000000  0.4118070000000  0.4892930000000 1.0
C      1  0.5216040000000  0.4720140000000  0.4274690000000 1.0
C      1  0.4731290000000  0.5284060000000  0.4285960000000 1.0
C      1  0.4318650000000  0.5649150000000  0.4513600000000 1.0
C      1  0.5640020000000  0.4351810000000  0.4520250000000 1.0
C      1  0.4831800000000  0.5032570000000  0.5478390000000 1.0
C      1  0.5162450000000  0.4961600000000  0.5472450000000 1.0
C      1  0.5672310000000  0.4295390000000  0.4807600000000 1.0
C      1  0.4330590000000  0.5684950000000  0.4804310000000 1.0
C      1  0.4985010000000  0.4859370000000  0.4441670000000 1.0
C      1  0.4987280000000  0.5152050000000  0.4436950000000 1.0
C      1  0.5655660000000  0.4572640000000  0.4925590000000 1.0
C      1  0.4342450000000  0.5414720000000  0.4926580000000 1.0
C      1  0.5287770000000  0.4654530000000  0.5951380000000 1.0
C      1  0.4725890000000  0.5340700000000  0.5963840000000 1.0
C      1  0.4758900000000  0.4510220000000  0.4760330000000 1.0
C      1  0.5268700000000  0.5516950000000  0.4749210000000 1.0
C      1  0.6037060000000  0.5074930000000  0.5001600000000 1.0
C      1  0.3929510000000  0.4910920000000  0.4950840000000 1.0
C      1  0.5551940000000  0.5321330000000  0.5509690000000 1.0
C      1  0.4439360000000  0.4678740000000  0.5524940000000 1.0
C      1  0.6037220000000  0.4798410000000  0.4870000000000 1.0
C      1  0.3933450000000  0.5187820000000  0.4846920000000 1.0
C      1  0.4823950000000  0.5191140000000  0.4022280000000 1.0
C      1  0.5173410000000  0.4777130000000  0.3987090000000 1.0
C      1  0.5433770000000  0.4132880000000  0.5180460000000 1.0
C      1  0.4554810000000  0.5852240000000  0.5189360000000 1.0
C      1  0.4831950000000  0.4336450000000  0.5595750000000 1.0
C      1  0.5158010000000  0.5659260000000  0.5606260000000 1.0
C      1  0.4908670000000  0.4701770000000  0.3953510000000 1.0
C      1  0.5105950000000  0.5204800000000  0.4065940000000 1.0
C      1  0.4723570000000  0.5028950000000  0.4861370000000 1.0
C      1  0.5273250000000  0.4987930000000  0.4866730000000 1.0
C      1  0.4935460000000  0.4644960000000  0.5083580000000 1.0
C      1  0.5036280000000  0.5326230000000  0.5056270000000 1.0
C      1  0.5310170000000  0.5194090000000  0.5634880000000 1.0
C      1  0.4685620000000  0.4802870000000  0.5648830000000 1.0
C      1  0.4832170000000  0.5319680000000  0.5690900000000 1.0
C      1  0.5166290000000  0.4673140000000  0.5683950000000 1.0
C      1  0.5054920000000  0.5628900000000  0.4333320000000 1.0
C      1  0.4919410000000  0.4366330000000  0.4313030000000 1.0
C      1  0.4233250000000  0.5367990000000  0.4435280000000 1.0
C      1  0.5733060000000  0.4628620000000  0.4445550000000 1.0
C      1  0.4480460000000  0.4528420000000  0.4668090000000 1.0
C      1  0.5541590000000  0.5483100000000  0.4638410000000 1.0
C      1  0.5496310000000  0.4816530000000  0.4425500000000 1.0
C      1  0.4473020000000  0.5190150000000  0.4439830000000 1.0
C      1  0.5107910000000  0.5226500000000  0.4764690000000 1.0
C      1  0.4895750000000  0.4805860000000  0.4731410000000 1.0
C      1  0.4333020000000  0.5117560000000  0.5679570000000 1.0
C      1  0.5686100000000  0.4930200000000  0.5734980000000 1.0
C      1  0.4806880000000  0.5504350000000  0.5043000000000 1.0
C      1  0.5180190000000  0.4488490000000  0.5037780000000 1.0
C      1  0.4910660000000  0.5732020000000  0.5495480000000 1.0
C      1  0.5079740000000  0.4259160000000  0.5485040000000 1.0
C      1  0.4137020000000  0.4944540000000  0.5265690000000 1.0
C      1  0.5865800000000  0.5039060000000  0.5271290000000 1.0
C      1  0.5204140000000  0.4416070000000  0.4285140000000 1.0
C      1  0.4768240000000  0.5578230000000  0.4290920000000 1.0
C      1  0.5237820000000  0.5419480000000  0.4203100000000 1.0
C      1  0.4764480000000  0.4587630000000  0.4170110000000 1.0
C      1  0.4120040000000  0.4429040000000  0.4904330000000 1.0
C      1  0.5884020000000  0.5565760000000  0.4905990000000 1.0
C      1  0.5146670000000  0.4218600000000  0.5193340000000 1.0
C      1  0.4849300000000  0.5772100000000  0.5204800000000 1.0
C      1  0.5716550000000  0.4626340000000  0.5518300000000 1.0
C      1  0.4266020000000  0.5353830000000  0.5507750000000 1.0
C      1  0.4398890000000  0.4865200000000  0.5103380000000 1.0
C      1  0.5609760000000  0.5120990000000  0.5105670000000 1.0
C      1  0.5605350000000  0.5101750000000  0.4427470000000 1.0
C      1  0.4400390000000  0.4901250000000  0.4442540000000 1.0
C      1  0.4271270000000  0.4368340000000  0.5161050000000 1.0
C      1  0.5721000000000  0.5619790000000  0.5151980000000 1.0
C      1  0.5636840000000  0.5198170000000  0.4725370000000 1.0
C      1  0.4374070000000  0.4794830000000  0.4725590000000 1.0
C      1  0.5115080000000  0.5730590000000  0.4604950000000 1.0
C      1  0.4888130000000  0.4286360000000  0.4604060000000 1.0
C      1  0.5116450000000  0.5402850000000  0.5709810000000 1.0
C      1  0.4882210000000  0.4589620000000  0.5708110000000 1.0
C      1  0.4091860000000  0.5235200000000  0.5300520000000 1.0
C      1  0.5891750000000  0.4747240000000  0.5320920000000 1.0
C      1  0.5327130000000  0.4319710000000  0.4536090000000 1.0
C      1  0.4581800000000  0.5737690000000  0.4432570000000 1.0
C      1  0.5780670000000  0.5141920000000  0.5551170000000 1.0
C      1  0.4227370000000  0.4876650000000  0.5548190000000 1.0
C      1  0.5051990000000  0.5935970000000  0.5045720000000 1.0
C      1  0.4940710000000  0.4062460000000  0.5033530000000 1.0
C      1  0.4096460000000  0.4718490000000  0.4814600000000 1.0
C      1  0.5913770000000  0.5274100000000  0.4818520000000 1.0
C      1  0.4723510000000  0.4478220000000  0.5190340000000 1.0
C      1  0.5270850000000  0.5499890000000  0.5143600000000 1.0
C      1  0.4576460000000  0.4928880000000  0.5894350000000 1.0
C      1  0.5449010000000  0.5062090000000  0.5861450000000 1.0
C      1  0.5579770000000  0.5871490000000  0.5144670000000 1.0
C      1  0.4420970000000  0.4120420000000  0.5140710000000 1.0
C      1  0.5916830000000  0.4617940000000  0.5061220000000 1.0
C      1  0.4071870000000  0.5359260000000  0.5038380000000 1.0
C      1  0.5539450000000  0.5389160000000  0.5225470000000 1.0
C      1  0.4457870000000  0.4596610000000  0.5241710000000 1.0
C      1  0.5275680000000  0.4911730000000  0.6041500000000 1.0
C      1  0.4753280000000  0.5084610000000  0.6058790000000 1.0
C      1  0.5356030000000  0.4925060000000  0.5166900000000 1.0
C      1  0.4644100000000  0.5066640000000  0.5167320000000 1.0
C      1  0.5514360000000  0.4445180000000  0.5384910000000 1.0
C      1  0.4475330000000  0.5550100000000  0.5387290000000 1.0
C      1  0.4558120000000  0.5374820000000  0.5151590000000 1.0
C      1  0.5431660000000  0.4615790000000  0.5145750000000 1.0
C      1  0.4740540000000  0.5539220000000  0.4731160000000 1.0
C      1  0.5234480000000  0.4524750000000  0.4739740000000 1.0
C      1  0.5287550000000  0.4434530000000  0.5566490000000 1.0
C      1  0.4701660000000  0.5555400000000  0.5575130000000 1.0
C      1  0.5017680000000  0.5003780000000  0.6088740000000 1.0
END
