TITL C-3578196-9646-404 -1.03744117404328e-06 125000 -289.992723928417 0 0 48 (C1) n - 1
REM
REM in /home/bkarasulu/work/CARBON/AIRSS/Generating-Clusters/EDIP-Nigel-Params/with-SteepDescent/Higher-Symm/SD-CG/HFTN-CG
REM
REM
REM
REM
REM
REM ./C.cell (12c818d87b63d06a65506943cc24bca4)
REM
REM compiler GCC version 9.2.1 20190827 (Red Hat 9.2.1-1)
REM options -cpp -mtune=generic -march=x86-64 -g -O0 -fpre-include=/usr/include/finclude/math-vector-fortran.h
REM seed -1630715709 1588087129 -1926283393 1093521978 846536153 864150881 -2079934925 -975917762 -820925338 -850792640 -726787866 -551718136 762877963 1928435386 -1584170036 948526343 500094938 1459581031 -762846944 -215379658 349127451 -2007071836 1504675978 1165021753 1013833074 333536679 302053591 82533027 244685271 1101354948 -116811717 1600665991 789518998
REM
CELL 1.54180   50.00000   50.00000   50.00000   90.00000   90.00000   90.00000
LATT -1
SFAC C  
C      1  0.5339650000000  0.5420710000000  0.5353860000000 1.0
C      1  0.5587850000000  0.5002060000000  0.5338480000000 1.0
C      1  0.5360460000000  0.4574670000000  0.5350450000000 1.0
C      1  0.4879940000000  0.4468460000000  0.5353620000000 1.0
C      1  0.4485250000000  0.4745350000000  0.5339510000000 1.0
C      1  0.4475900000000  0.5229670000000  0.5334850000000 1.0
C      1  0.4857370000000  0.5535070000000  0.5351340000000 1.0
C      1  0.4642280000000  0.4828860000000  0.5583280000000 1.0
C      1  0.4612520000000  0.5153220000000  0.5597070000000 1.0
C      1  0.4878940000000  0.5374930000000  0.5608440000000 1.0
C      1  0.5257210000000  0.5265710000000  0.5610260000000 1.0
C      1  0.5427510000000  0.4991860000000  0.5595960000000 1.0
C      1  0.5262690000000  0.4734580000000  0.5582460000000 1.0
C      1  0.4898920000000  0.4658980000000  0.5585870000000 1.0
C      1  0.4644480000000  0.4545250000000  0.5179830000000 1.0
C      1  0.4417260000000  0.4985540000000  0.5170800000000 1.0
C      1  0.4631300000000  0.5435750000000  0.5180750000000 1.0
C      1  0.5113180000000  0.5543870000000  0.5195460000000 1.0
C      1  0.5515260000000  0.5249270000000  0.5180960000000 1.0
C      1  0.5530280000000  0.4752530000000  0.5176160000000 1.0
C      1  0.5135340000000  0.4451230000000  0.5190280000000 1.0
C      1  0.5359380000000  0.4561210000000  0.4537950000000 1.0
C      1  0.4885710000000  0.4444330000000  0.4544690000000 1.0
C      1  0.4500860000000  0.4745070000000  0.4523430000000 1.0
C      1  0.4493620000000  0.5235040000000  0.4536840000000 1.0
C      1  0.4867580000000  0.5551150000000  0.4533560000000 1.0
C      1  0.5344120000000  0.5446390000000  0.4548740000000 1.0
C      1  0.5560560000000  0.5007170000000  0.4532720000000 1.0
C      1  0.5509670000000  0.4763040000000  0.4661910000000 1.0
C      1  0.5136930000000  0.4450720000000  0.4668220000000 1.0
C      1  0.4654670000000  0.4553100000000  0.4659680000000 1.0
C      1  0.4439790000000  0.4986280000000  0.4654350000000 1.0
C      1  0.4643850000000  0.5437090000000  0.4660020000000 1.0
C      1  0.5114700000000  0.5554510000000  0.4667790000000 1.0
C      1  0.5501820000000  0.5247010000000  0.4666370000000 1.0
C      1  0.4734170000000  0.4675750000000  0.4918520000000 1.0
C      1  0.4581310000000  0.4978190000000  0.4915040000000 1.0
C      1  0.4741690000000  0.5328350000000  0.4918340000000 1.0
C      1  0.5071880000000  0.5408870000000  0.4923660000000 1.0
C      1  0.5373830000000  0.5172270000000  0.4923080000000 1.0
C      1  0.5378230000000  0.4825290000000  0.4921810000000 1.0
C      1  0.5105380000000  0.4599120000000  0.4923430000000 1.0
C      1  0.4998960000000  0.5087670000000  0.5574430000000 1.0
C      1  0.5000910000000  0.4999590000000  0.4509950000000 1.0
C      1  0.5003460000000  0.4999710000000  0.4252730000000 1.0
C      1  0.4997570000000  0.4999920000000  0.4778860000000 1.0
C      1  0.5015060000000  0.4985550000000  0.5312590000000 1.0
C      1  0.4994940000000  0.5000010000000  0.5050740000000 1.0
END
