TITL C-3577076-40-582 5.05788965047244e-06 125000 -1197.61891511586 0 0 190 (C1) n - 1
REM
REM in /home/bkarasulu/work/CARBON/AIRSS/Generating-Clusters/EDIP-Nigel-Params/with-SteepDescent/Higher-Symm/SD-CG/HFTN-CG
REM
REM
REM
REM
REM
REM ./C.cell (12c818d87b63d06a65506943cc24bca4)
REM
REM compiler GCC version 9.2.1 20190827 (Red Hat 9.2.1-1)
REM options -cpp -mtune=generic -march=x86-64 -g -O0 -fpre-include=/usr/include/finclude/math-vector-fortran.h
REM seed 46062135 157268892 1655900018 -1310943783 -132217234 538290998 560631753 -717580010 -233184343 2075034078 -305003423 1411515843 -1347928561 -399719055 -2137437359 66854078 -368504497 -1697044647 -945098362 1897721839 874197588 -674774293 1746123840 1148322405 -649965791 1513587797 215067182 -1473622643 1956157873 -226985357 -1392935701 -1680584951 829940116
REM
CELL 1.54180   50.00000   50.00000   50.00000   90.00000   90.00000   90.00000
LATT -1
SFAC C  
C      1  0.4619290000000  0.3975910000000  0.4789030000000 1.0
C      1  0.4486340000000  0.4645380000000  0.5115120000000 1.0
C      1  0.5599080000000  0.4091130000000  0.4412940000000 1.0
C      1  0.5560180000000  0.4717810000000  0.4724410000000 1.0
C      1  0.5597610000000  0.4700720000000  0.5226270000000 1.0
C      1  0.4972820000000  0.5277200000000  0.5001100000000 1.0
C      1  0.4663170000000  0.5841140000000  0.5798290000000 1.0
C      1  0.4349050000000  0.5725630000000  0.5121770000000 1.0
C      1  0.5067690000000  0.4390220000000  0.5942020000000 1.0
C      1  0.4750590000000  0.5903130000000  0.5294950000000 1.0
C      1  0.4429790000000  0.5129610000000  0.5944080000000 1.0
C      1  0.4132010000000  0.5719790000000  0.4902940000000 1.0
C      1  0.5963560000000  0.4827820000000  0.5133360000000 1.0
C      1  0.5240470000000  0.4291370000000  0.4117980000000 1.0
C      1  0.4026240000000  0.4284360000000  0.5104130000000 1.0
C      1  0.4266890000000  0.4596590000000  0.5385960000000 1.0
C      1  0.6277180000000  0.5059600000000  0.4817330000000 1.0
C      1  0.5532570000000  0.4254180000000  0.4833230000000 1.0
C      1  0.4708450000000  0.4219190000000  0.4334700000000 1.0
C      1  0.5994490000000  0.5340420000000  0.5082680000000 1.0
C      1  0.3911020000000  0.5528200000000  0.4930660000000 1.0
C      1  0.4899450000000  0.5068770000000  0.3797820000000 1.0
C      1  0.5816970000000  0.4289670000000  0.4746560000000 1.0
C      1  0.5406930000000  0.5095810000000  0.5606640000000 1.0
C      1  0.5149130000000  0.4025810000000  0.5451710000000 1.0
C      1  0.5501120000000  0.4552090000000  0.5835980000000 1.0
C      1  0.4588490000000  0.5731280000000  0.5525680000000 1.0
C      1  0.4882670000000  0.4339160000000  0.5283040000000 1.0
C      1  0.5209460000000  0.6003890000000  0.5502820000000 1.0
C      1  0.4631750000000  0.4917480000000  0.5624730000000 1.0
C      1  0.4760460000000  0.4973630000000  0.6064990000000 1.0
C      1  0.4653660000000  0.3960040000000  0.5323640000000 1.0
C      1  0.5903190000000  0.4798490000000  0.5787870000000 1.0
C      1  0.4261200000000  0.5213530000000  0.4394120000000 1.0
C      1  0.4465230000000  0.5394060000000  0.5823590000000 1.0
C      1  0.4696350000000  0.5626290000000  0.3943080000000 1.0
C      1  0.4504520000000  0.5717560000000  0.4134650000000 1.0
C      1  0.4580050000000  0.4743390000000  0.4640340000000 1.0
C      1  0.5629340000000  0.5204900000000  0.5448440000000 1.0
C      1  0.4459410000000  0.5254520000000  0.3917630000000 1.0
C      1  0.4502250000000  0.5449230000000  0.4733780000000 1.0
C      1  0.5071940000000  0.5291770000000  0.3919240000000 1.0
C      1  0.5195330000000  0.3979590000000  0.4903210000000 1.0
C      1  0.4775320000000  0.5466560000000  0.4584540000000 1.0
C      1  0.5695310000000  0.4355790000000  0.4327460000000 1.0
C      1  0.4775530000000  0.4950830000000  0.4666840000000 1.0
C      1  0.4812840000000  0.4044990000000  0.4571490000000 1.0
C      1  0.4163880000000  0.5503210000000  0.5517950000000 1.0
C      1  0.5252790000000  0.4613240000000  0.5545200000000 1.0
C      1  0.5235070000000  0.4860930000000  0.4042280000000 1.0
C      1  0.4317520000000  0.4236730000000  0.5089840000000 1.0
C      1  0.4037430000000  0.5048010000000  0.5338420000000 1.0
C      1  0.4769760000000  0.5439840000000  0.5142170000000 1.0
C      1  0.5299670000000  0.4075850000000  0.5170430000000 1.0
C      1  0.4303090000000  0.5724020000000  0.5425230000000 1.0
C      1  0.4903490000000  0.5910110000000  0.4391650000000 1.0
C      1  0.5313980000000  0.4118410000000  0.4347820000000 1.0
C      1  0.6116880000000  0.5290910000000  0.4814290000000 1.0
C      1  0.5124860000000  0.5316300000000  0.6144650000000 1.0
C      1  0.5552170000000  0.5673380000000  0.5776470000000 1.0
C      1  0.3983220000000  0.5034040000000  0.4795570000000 1.0
C      1  0.3909160000000  0.4469460000000  0.4888890000000 1.0
C      1  0.4708440000000  0.3899690000000  0.5048650000000 1.0
C      1  0.4904990000000  0.4778050000000  0.5300900000000 1.0
C      1  0.5617090000000  0.4218420000000  0.5451550000000 1.0
C      1  0.4285090000000  0.4923760000000  0.5797210000000 1.0
C      1  0.3907110000000  0.5327070000000  0.4710670000000 1.0
C      1  0.4459830000000  0.5889490000000  0.4588320000000 1.0
C      1  0.5865090000000  0.5267730000000  0.5853580000000 1.0
C      1  0.5041260000000  0.5027240000000  0.6176710000000 1.0
C      1  0.5477620000000  0.4551920000000  0.4957150000000 1.0
C      1  0.4835110000000  0.5051720000000  0.5787220000000 1.0
C      1  0.4917870000000  0.5490650000000  0.4099900000000 1.0
C      1  0.4401260000000  0.4362830000000  0.5544620000000 1.0
C      1  0.4679600000000  0.4391990000000  0.5062360000000 1.0
C      1  0.6025550000000  0.4323220000000  0.5065210000000 1.0
C      1  0.4783310000000  0.5048270000000  0.4936800000000 1.0
C      1  0.4934830000000  0.4424100000000  0.4175850000000 1.0
C      1  0.5719240000000  0.5772310000000  0.5566400000000 1.0
C      1  0.4548710000000  0.5096540000000  0.5358050000000 1.0
C      1  0.6000280000000  0.4538710000000  0.5258720000000 1.0
C      1  0.4813030000000  0.4668900000000  0.5570320000000 1.0
C      1  0.5862600000000  0.4949260000000  0.4235390000000 1.0
C      1  0.5642360000000  0.5209560000000  0.4781510000000 1.0
C      1  0.4643670000000  0.5038180000000  0.3931460000000 1.0
C      1  0.5019310000000  0.4796040000000  0.3856560000000 1.0
C      1  0.4334840000000  0.5208770000000  0.5147490000000 1.0
C      1  0.5169500000000  0.5668990000000  0.5257140000000 1.0
C      1  0.5362000000000  0.4851970000000  0.5407940000000 1.0
C      1  0.6001560000000  0.5171600000000  0.4353500000000 1.0
C      1  0.5745530000000  0.4494590000000  0.5424270000000 1.0
C      1  0.5893970000000  0.5291100000000  0.5542370000000 1.0
C      1  0.4640520000000  0.5592290000000  0.5973460000000 1.0
C      1  0.4273320000000  0.5650280000000  0.4644670000000 1.0
C      1  0.5537650000000  0.5478010000000  0.4305830000000 1.0
C      1  0.5228070000000  0.4855320000000  0.6011370000000 1.0
C      1  0.4689410000000  0.4430960000000  0.5961140000000 1.0
C      1  0.4641400000000  0.5401790000000  0.5561000000000 1.0
C      1  0.3897050000000  0.4944400000000  0.5084010000000 1.0
C      1  0.5205170000000  0.5168000000000  0.4536750000000 1.0
C      1  0.4948540000000  0.5961060000000  0.4700600000000 1.0
C      1  0.5030290000000  0.4176900000000  0.4733600000000 1.0
C      1  0.4814460000000  0.4603450000000  0.3963490000000 1.0
C      1  0.5911030000000  0.5578180000000  0.5488880000000 1.0
C      1  0.5771750000000  0.5539280000000  0.4479690000000 1.0
C      1  0.4769210000000  0.5317970000000  0.4319170000000 1.0
C      1  0.5418670000000  0.5198990000000  0.4305550000000 1.0
C      1  0.5462070000000  0.5025760000000  0.5906570000000 1.0
C      1  0.5278730000000  0.5642740000000  0.5662790000000 1.0
C      1  0.4932860000000  0.5490000000000  0.5952000000000 1.0
C      1  0.4676640000000  0.4890850000000  0.5168280000000 1.0
C      1  0.5216760000000  0.4607990000000  0.4474390000000 1.0
C      1  0.5165960000000  0.4426800000000  0.5272460000000 1.0
C      1  0.5108830000000  0.6090930000000  0.5025720000000 1.0
C      1  0.5591060000000  0.4939740000000  0.4345750000000 1.0
C      1  0.4754740000000  0.4520230000000  0.4572970000000 1.0
C      1  0.4075470000000  0.5436570000000  0.4489560000000 1.0
C      1  0.4208500000000  0.4866070000000  0.5519630000000 1.0
C      1  0.4271890000000  0.4447210000000  0.4157180000000 1.0
C      1  0.5779180000000  0.4545240000000  0.4582460000000 1.0
C      1  0.5696720000000  0.5771390000000  0.4651500000000 1.0
C      1  0.4938560000000  0.5941360000000  0.5774220000000 1.0
C      1  0.5359260000000  0.4191200000000  0.5593190000000 1.0
C      1  0.5644080000000  0.5455560000000  0.5957000000000 1.0
C      1  0.5071250000000  0.4666460000000  0.5813770000000 1.0
C      1  0.5495460000000  0.4465840000000  0.4135800000000 1.0
C      1  0.5346450000000  0.5691370000000  0.4346450000000 1.0
C      1  0.5611680000000  0.4056070000000  0.5217650000000 1.0
C      1  0.4892550000000  0.5676460000000  0.5207350000000 1.0
C      1  0.5071520000000  0.5707550000000  0.4252310000000 1.0
C      1  0.5702710000000  0.5404460000000  0.5008720000000 1.0
C      1  0.4163700000000  0.4920330000000  0.4325460000000 1.0
C      1  0.5255370000000  0.4312760000000  0.4569300000000 1.0
C      1  0.4565580000000  0.5461880000000  0.3754290000000 1.0
C      1  0.5622980000000  0.5924450000000  0.5118070000000 1.0
C      1  0.5448750000000  0.5875380000000  0.4538790000000 1.0
C      1  0.4998610000000  0.6097350000000  0.5296030000000 1.0
C      1  0.3984640000000  0.4493540000000  0.5319810000000 1.0
C      1  0.5750270000000  0.4586910000000  0.5704510000000 1.0
C      1  0.5137030000000  0.4943870000000  0.5246950000000 1.0
C      1  0.4704960000000  0.4689470000000  0.6068280000000 1.0
C      1  0.4493310000000  0.5456980000000  0.5044010000000 1.0
C      1  0.6039130000000  0.4684110000000  0.4608670000000 1.0
C      1  0.4935680000000  0.5033040000000  0.4420830000000 1.0
C      1  0.5412960000000  0.5002270000000  0.4748720000000 1.0
C      1  0.4401000000000  0.4162040000000  0.4816620000000 1.0
C      1  0.4907960000000  0.5320480000000  0.5700270000000 1.0
C      1  0.5410160000000  0.5284130000000  0.6038840000000 1.0
C      1  0.4576080000000  0.4776090000000  0.4016350000000 1.0
C      1  0.4364430000000  0.4740320000000  0.4849340000000 1.0
C      1  0.4404450000000  0.4123150000000  0.5353880000000 1.0
C      1  0.5089200000000  0.5723830000000  0.5867050000000 1.0
C      1  0.5395060000000  0.4717040000000  0.4251850000000 1.0
C      1  0.4660780000000  0.5919520000000  0.4798280000000 1.0
C      1  0.4128410000000  0.4574210000000  0.4710270000000 1.0
C      1  0.4279090000000  0.5039830000000  0.4873640000000 1.0
C      1  0.5264680000000  0.5838310000000  0.5023390000000 1.0
C      1  0.5446410000000  0.3964010000000  0.4743720000000 1.0
C      1  0.4854930000000  0.4120290000000  0.5475420000000 1.0
C      1  0.5175640000000  0.4584610000000  0.4991880000000 1.0
C      1  0.5771020000000  0.4996540000000  0.5930900000000 1.0
C      1  0.4950900000000  0.4658650000000  0.4383010000000 1.0
C      1  0.4674650000000  0.4397140000000  0.5663460000000 1.0
C      1  0.4284510000000  0.4324380000000  0.4607590000000 1.0
C      1  0.6088090000000  0.4794670000000  0.4350840000000 1.0
C      1  0.5287380000000  0.5140900000000  0.4046500000000 1.0
C      1  0.5863090000000  0.4085780000000  0.5073730000000 1.0
C      1  0.4422210000000  0.4326110000000  0.4357560000000 1.0
C      1  0.4404710000000  0.5188290000000  0.4651680000000 1.0
C      1  0.6093150000000  0.4849310000000  0.4852030000000 1.0
C      1  0.5513720000000  0.5895460000000  0.5388670000000 1.0
C      1  0.3839200000000  0.5452010000000  0.5189220000000 1.0
C      1  0.5196110000000  0.4897440000000  0.4966410000000 1.0
C      1  0.4470730000000  0.5342830000000  0.4203090000000 1.0
C      1  0.3810770000000  0.4667810000000  0.5112900000000 1.0
C      1  0.5171090000000  0.5731850000000  0.4749120000000 1.0
C      1  0.5673540000000  0.5701950000000  0.4935380000000 1.0
C      1  0.5520500000000  0.5333910000000  0.5222140000000 1.0
C      1  0.6026480000000  0.5106830000000  0.5278640000000 1.0
C      1  0.5337760000000  0.4314340000000  0.5856590000000 1.0
C      1  0.4897080000000  0.4433190000000  0.4837240000000 1.0
C      1  0.5889300000000  0.5289100000000  0.4603170000000 1.0
C      1  0.5192940000000  0.5338650000000  0.5558000000000 1.0
C      1  0.3986480000000  0.5333980000000  0.5390220000000 1.0
C      1  0.5043040000000  0.5424140000000  0.4725450000000 1.0
C      1  0.5227070000000  0.5374780000000  0.5247090000000 1.0
C      1  0.4609700000000  0.5885080000000  0.4340580000000 1.0
C      1  0.4557350000000  0.5937890000000  0.5070000000000 1.0
C      1  0.4332280000000  0.4718150000000  0.4168290000000 1.0
C      1  0.4004450000000  0.4818240000000  0.4557500000000 1.0
END
