TITL C-3577081-279-493 -3.46277260323124e-06 125000 -927.167631544089 0 0 150 (C1) n - 1
REM
REM in /home/bkarasulu/work/CARBON/AIRSS/Generating-Clusters/EDIP-Nigel-Params/with-SteepDescent/Higher-Symm/SD-CG/HFTN-CG
REM
REM
REM
REM
REM
REM ./C.cell (12c818d87b63d06a65506943cc24bca4)
REM
REM compiler GCC version 9.2.1 20190827 (Red Hat 9.2.1-1)
REM options -cpp -mtune=generic -march=x86-64 -g -O0 -fpre-include=/usr/include/finclude/math-vector-fortran.h
REM seed -83745496 1563275424 -1041633458 -1618952984 416253089 -1385793482 1379803820 2112442125 1641234630 -1180681213 1385242634 -1394877092 -1379055359 -1818001268 2120982073 2123280705 1649561661 -156497728 1746555375 -412555439 -1335933454 696294329 1564941448 1531869553 -1929513124 -590227773 211405068 -869011768 -1221760880 -1369770925 -502339873 -83428112 551318993
REM
CELL 1.54180   50.00000   50.00000   50.00000   90.00000   90.00000   90.00000
LATT -1
SFAC C  
C      1  0.5267860000000  0.5574100000000  0.4715460000000 1.0
C      1  0.4737770000000  0.4435680000000  0.4715560000000 1.0
C      1  0.4728730000000  0.5554810000000  0.4722620000000 1.0
C      1  0.5264160000000  0.4415780000000  0.4711900000000 1.0
C      1  0.5259080000000  0.4297290000000  0.5181440000000 1.0
C      1  0.4736120000000  0.5697410000000  0.5182150000000 1.0
C      1  0.4735510000000  0.4298740000000  0.5178060000000 1.0
C      1  0.5263470000000  0.5698330000000  0.5180700000000 1.0
C      1  0.4508240000000  0.4025800000000  0.4764530000000 1.0
C      1  0.5488220000000  0.5983420000000  0.4775360000000 1.0
C      1  0.5490730000000  0.4010760000000  0.4779580000000 1.0
C      1  0.4507650000000  0.5969270000000  0.4770370000000 1.0
C      1  0.5544810000000  0.4315640000000  0.4653420000000 1.0
C      1  0.4455960000000  0.5668480000000  0.4655050000000 1.0
C      1  0.4462020000000  0.4330240000000  0.4649960000000 1.0
C      1  0.5546480000000  0.5680280000000  0.4651400000000 1.0
C      1  0.4840900000000  0.4042630000000  0.5523800000000 1.0
C      1  0.5153020000000  0.5947140000000  0.5529130000000 1.0
C      1  0.5151590000000  0.4045730000000  0.5529580000000 1.0
C      1  0.4844840000000  0.5947330000000  0.5530220000000 1.0
C      1  0.4844500000000  0.4463570000000  0.5380560000000 1.0
C      1  0.5155170000000  0.5527150000000  0.5378660000000 1.0
C      1  0.5147220000000  0.4464620000000  0.5380380000000 1.0
C      1  0.4845390000000  0.5527560000000  0.5379990000000 1.0
C      1  0.4144120000000  0.4865120000000  0.4494580000000 1.0
C      1  0.5867440000000  0.5143920000000  0.4485160000000 1.0
C      1  0.5855260000000  0.4859570000000  0.4490040000000 1.0
C      1  0.4128550000000  0.5148960000000  0.4490340000000 1.0
C      1  0.5238490000000  0.5149850000000  0.5065110000000 1.0
C      1  0.4830470000000  0.4855190000000  0.5071900000000 1.0
C      1  0.4760340000000  0.5148280000000  0.5072850000000 1.0
C      1  0.5165300000000  0.4855530000000  0.5066880000000 1.0
C      1  0.5532840000000  0.4706430000000  0.5812160000000 1.0
C      1  0.4448010000000  0.5304160000000  0.5832840000000 1.0
C      1  0.4447840000000  0.4686380000000  0.5829440000000 1.0
C      1  0.5555970000000  0.5311450000000  0.5823510000000 1.0
C      1  0.5643450000000  0.4691750000000  0.4838760000000 1.0
C      1  0.4330570000000  0.5309240000000  0.4847480000000 1.0
C      1  0.4350900000000  0.4695490000000  0.4845390000000 1.0
C      1  0.5662470000000  0.5312580000000  0.4836440000000 1.0
C      1  0.4441760000000  0.5615000000000  0.4342420000000 1.0
C      1  0.5571920000000  0.4385210000000  0.4335220000000 1.0
C      1  0.5571530000000  0.5608050000000  0.4332660000000 1.0
C      1  0.4443970000000  0.4387380000000  0.4338520000000 1.0
C      1  0.5309040000000  0.5267130000000  0.5338300000000 1.0
C      1  0.4716320000000  0.4732110000000  0.5346620000000 1.0
C      1  0.4694290000000  0.5265160000000  0.5344790000000 1.0
C      1  0.5280890000000  0.4731950000000  0.5341270000000 1.0
C      1  0.4703430000000  0.5161520000000  0.5893010000000 1.0
C      1  0.5342100000000  0.4873680000000  0.5955250000000 1.0
C      1  0.5305030000000  0.5162350000000  0.5888520000000 1.0
C      1  0.4705600000000  0.4824940000000  0.5890570000000 1.0
C      1  0.4260240000000  0.4839820000000  0.5111220000000 1.0
C      1  0.5745370000000  0.5164140000000  0.5102920000000 1.0
C      1  0.5733830000000  0.4841720000000  0.5101350000000 1.0
C      1  0.4250350000000  0.5160440000000  0.5115020000000 1.0
C      1  0.4204520000000  0.4812780000000  0.4216960000000 1.0
C      1  0.5814110000000  0.5193360000000  0.4205960000000 1.0
C      1  0.5805650000000  0.4805860000000  0.4210350000000 1.0
C      1  0.4192300000000  0.5200510000000  0.4213800000000 1.0
C      1  0.4366740000000  0.4107940000000  0.5019750000000 1.0
C      1  0.5630510000000  0.5896570000000  0.5027690000000 1.0
C      1  0.5630300000000  0.4105310000000  0.5031950000000 1.0
C      1  0.4367570000000  0.5892110000000  0.5027110000000 1.0
C      1  0.5498290000000  0.5612330000000  0.5728700000000 1.0
C      1  0.4497160000000  0.4382600000000  0.5728260000000 1.0
C      1  0.4503100000000  0.5608540000000  0.5731710000000 1.0
C      1  0.5486950000000  0.4402280000000  0.5730940000000 1.0
C      1  0.5606370000000  0.4707470000000  0.5347770000000 1.0
C      1  0.4376780000000  0.5295870000000  0.5364290000000 1.0
C      1  0.4391340000000  0.4705440000000  0.5357190000000 1.0
C      1  0.5624830000000  0.5303200000000  0.5352320000000 1.0
C      1  0.5456590000000  0.5881020000000  0.5298920000000 1.0
C      1  0.4539240000000  0.4118810000000  0.5294030000000 1.0
C      1  0.4541870000000  0.5878720000000  0.5300210000000 1.0
C      1  0.5455640000000  0.4121190000000  0.5303530000000 1.0
C      1  0.4000720000000  0.4712310000000  0.4679540000000 1.0
C      1  0.6013200000000  0.5293620000000  0.4672210000000 1.0
C      1  0.5996470000000  0.4709020000000  0.4679450000000 1.0
C      1  0.3982230000000  0.5297540000000  0.4677220000000 1.0
C      1  0.5176790000000  0.5147430000000  0.5612120000000 1.0
C      1  0.4848050000000  0.4846050000000  0.5611120000000 1.0
C      1  0.4839210000000  0.5147690000000  0.5612800000000 1.0
C      1  0.5167410000000  0.4846440000000  0.5608590000000 1.0
C      1  0.5977080000000  0.5541450000000  0.5170290000000 1.0
C      1  0.4022380000000  0.4461890000000  0.5165370000000 1.0
C      1  0.4016340000000  0.5544790000000  0.5174090000000 1.0
C      1  0.5967930000000  0.4467790000000  0.5173130000000 1.0
C      1  0.4873400000000  0.5705250000000  0.4401160000000 1.0
C      1  0.5146390000000  0.4329150000000  0.4444590000000 1.0
C      1  0.5147730000000  0.5662440000000  0.4449040000000 1.0
C      1  0.4873760000000  0.4285080000000  0.4389690000000 1.0
C      1  0.3896700000000  0.4720540000000  0.5142610000000 1.0
C      1  0.6107570000000  0.5284320000000  0.5141530000000 1.0
C      1  0.6096800000000  0.4724030000000  0.5144250000000 1.0
C      1  0.3889200000000  0.5285530000000  0.5146580000000 1.0
C      1  0.5220790000000  0.5673390000000  0.5643000000000 1.0
C      1  0.4774100000000  0.4315400000000  0.5645550000000 1.0
C      1  0.4780080000000  0.5673120000000  0.5645070000000 1.0
C      1  0.5213730000000  0.4321600000000  0.5648870000000 1.0
C      1  0.5865830000000  0.4432680000000  0.5431860000000 1.0
C      1  0.4123210000000  0.5579930000000  0.5432090000000 1.0
C      1  0.4127900000000  0.4429300000000  0.5422960000000 1.0
C      1  0.5878420000000  0.5585260000000  0.5429660000000 1.0
C      1  0.3876930000000  0.4855220000000  0.4893160000000 1.0
C      1  0.6130230000000  0.5150380000000  0.4889680000000 1.0
C      1  0.6121580000000  0.4853320000000  0.4891860000000 1.0
C      1  0.3868990000000  0.5151960000000  0.4894570000000 1.0
C      1  0.4821440000000  0.5246160000000  0.4319760000000 1.0
C      1  0.5167160000000  0.4750910000000  0.4306550000000 1.0
C      1  0.5169590000000  0.5241350000000  0.4311130000000 1.0
C      1  0.4828740000000  0.4750190000000  0.4314190000000 1.0
C      1  0.5327720000000  0.4705450000000  0.4800610000000 1.0
C      1  0.4641850000000  0.5278240000000  0.4817560000000 1.0
C      1  0.4666900000000  0.4712340000000  0.4812220000000 1.0
C      1  0.5349960000000  0.5283960000000  0.4805180000000 1.0
C      1  0.5661260000000  0.4857190000000  0.5596010000000 1.0
C      1  0.4319610000000  0.5147290000000  0.5613150000000 1.0
C      1  0.4324390000000  0.4846990000000  0.5608890000000 1.0
C      1  0.5682070000000  0.5154920000000  0.5600730000000 1.0
C      1  0.4714950000000  0.5134120000000  0.4573950000000 1.0
C      1  0.5273200000000  0.4857090000000  0.4560590000000 1.0
C      1  0.5279770000000  0.5132730000000  0.4564140000000 1.0
C      1  0.4727390000000  0.4858200000000  0.4571190000000 1.0
C      1  0.5193220000000  0.3966780000000  0.4833880000000 1.0
C      1  0.4801820000000  0.6014410000000  0.4824820000000 1.0
C      1  0.4802380000000  0.3976940000000  0.4822590000000 1.0
C      1  0.5192230000000  0.6024520000000  0.4832030000000 1.0
C      1  0.5297580000000  0.5526040000000  0.4239460000000 1.0
C      1  0.4714270000000  0.4468500000000  0.4248580000000 1.0
C      1  0.4711290000000  0.5528650000000  0.4254890000000 1.0
C      1  0.5298850000000  0.4464480000000  0.4236780000000 1.0
C      1  0.4253300000000  0.4543210000000  0.4207320000000 1.0
C      1  0.5765900000000  0.5463530000000  0.4192430000000 1.0
C      1  0.5765640000000  0.4534280000000  0.4199610000000 1.0
C      1  0.4247350000000  0.5468960000000  0.4204650000000 1.0
C      1  0.5626710000000  0.4296300000000  0.5492470000000 1.0
C      1  0.4366210000000  0.5711830000000  0.5491610000000 1.0
C      1  0.4363500000000  0.4288360000000  0.5483150000000 1.0
C      1  0.5634440000000  0.5716200000000  0.5489300000000 1.0
C      1  0.5145330000000  0.5744990000000  0.4923860000000 1.0
C      1  0.4854120000000  0.4254310000000  0.4920340000000 1.0
C      1  0.4852600000000  0.5737170000000  0.4923590000000 1.0
C      1  0.5144360000000  0.4246620000000  0.4923030000000 1.0
C      1  0.4203400000000  0.4357790000000  0.4954600000000 1.0
C      1  0.5798470000000  0.5650140000000  0.4961010000000 1.0
C      1  0.5790090000000  0.4357860000000  0.4963050000000 1.0
C      1  0.4196030000000  0.5649220000000  0.4963240000000 1.0
C      1  0.5150880000000  0.4998320000000  0.4111000000000 1.0
C      1  0.4845820000000  0.5001420000000  0.4120630000000 1.0
END
