TITL C-3577082-504-250 -3.10181740991938e-06 125000 -512.126586688201 0 0 84 (C1) n - 1
REM
REM in /home/bkarasulu/work/CARBON/AIRSS/Generating-Clusters/EDIP-Nigel-Params/with-SteepDescent/Higher-Symm/SD-CG/HFTN-CG
REM
REM
REM
REM
REM
REM ./C.cell (12c818d87b63d06a65506943cc24bca4)
REM
REM compiler GCC version 9.2.1 20190827 (Red Hat 9.2.1-1)
REM options -cpp -mtune=generic -march=x86-64 -g -O0 -fpre-include=/usr/include/finclude/math-vector-fortran.h
REM seed 2027085322 -1832305863 -1697642157 1940723109 1165146608 10409340 -829328796 2131912581 -1453773315 1586281408 -1737813280 665286832 2134320922 -657051553 -1729230824 304406668 1738021507 -978089862 1425662036 -1963055640 1665330884 -1685963422 -2118860744 200266865 -153334639 497167212 -1304738573 -500966376 -77278412 -210757173 -797542338 248830985 -1732909578
REM
CELL 1.54180   50.00000   50.00000   50.00000   90.00000   90.00000   90.00000
LATT -1
SFAC C  
C      1  0.4814560000000  0.5566020000000  0.5507510000000 1.0
C      1  0.5144590000000  0.4419570000000  0.5520650000000 1.0
C      1  0.5449560000000  0.5570270000000  0.5363910000000 1.0
C      1  0.5571810000000  0.4387650000000  0.5038790000000 1.0
C      1  0.5441840000000  0.5546500000000  0.4741890000000 1.0
C      1  0.5189290000000  0.4430210000000  0.4537370000000 1.0
C      1  0.4859540000000  0.5565150000000  0.4463740000000 1.0
C      1  0.4569530000000  0.4440740000000  0.4669430000000 1.0
C      1  0.4457960000000  0.5572210000000  0.4948520000000 1.0
C      1  0.4608230000000  0.4459640000000  0.5210650000000 1.0
C      1  0.5218500000000  0.5075380000000  0.4728680000000 1.0
C      1  0.5042060000000  0.4808480000000  0.4705270000000 1.0
C      1  0.4837060000000  0.5068000000000  0.4670070000000 1.0
C      1  0.4641030000000  0.4834620000000  0.4860790000000 1.0
C      1  0.4728350000000  0.5229840000000  0.4945890000000 1.0
C      1  0.4695060000000  0.4992520000000  0.5156850000000 1.0
C      1  0.4943790000000  0.5008170000000  0.5338000000000 1.0
C      1  0.5165120000000  0.4836810000000  0.5188710000000 1.0
C      1  0.5139570000000  0.5228520000000  0.5202000000000 1.0
C      1  0.5315790000000  0.5055940000000  0.5018980000000 1.0
C      1  0.4968520000000  0.6047010000000  0.4749230000000 1.0
C      1  0.4803290000000  0.3940170000000  0.4873740000000 1.0
C      1  0.4759740000000  0.6065570000000  0.4964210000000 1.0
C      1  0.4838460000000  0.3970750000000  0.5174450000000 1.0
C      1  0.4902030000000  0.6059900000000  0.5231710000000 1.0
C      1  0.5137740000000  0.4006710000000  0.5229180000000 1.0
C      1  0.5198160000000  0.6038730000000  0.5176380000000 1.0
C      1  0.5283360000000  0.3930810000000  0.4979520000000 1.0
C      1  0.5235270000000  0.6045450000000  0.4879840000000 1.0
C      1  0.5075440000000  0.3880620000000  0.4775110000000 1.0
C      1  0.5410420000000  0.5129740000000  0.5628780000000 1.0
C      1  0.5674420000000  0.4834830000000  0.5272340000000 1.0
C      1  0.5705750000000  0.5138730000000  0.4827540000000 1.0
C      1  0.5459550000000  0.4839170000000  0.4452460000000 1.0
C      1  0.5028840000000  0.5118750000000  0.4275680000000 1.0
C      1  0.4591280000000  0.4848420000000  0.4377240000000 1.0
C      1  0.4348510000000  0.5140820000000  0.4734060000000 1.0
C      1  0.4284350000000  0.4844710000000  0.5184850000000 1.0
C      1  0.4576960000000  0.5127120000000  0.5557340000000 1.0
C      1  0.4984310000000  0.4843820000000  0.5736940000000 1.0
C      1  0.4784970000000  0.5040410000000  0.5724100000000 1.0
C      1  0.5237390000000  0.4958870000000  0.5764010000000 1.0
C      1  0.5613300000000  0.5007930000000  0.5482640000000 1.0
C      1  0.5747960000000  0.4956200000000  0.5033750000000 1.0
C      1  0.5614650000000  0.5038870000000  0.4577500000000 1.0
C      1  0.5241060000000  0.4936300000000  0.4303320000000 1.0
C      1  0.4769790000000  0.5019520000000  0.4248870000000 1.0
C      1  0.4388000000000  0.4966540000000  0.4523100000000 1.0
C      1  0.4262240000000  0.5036100000000  0.4978090000000 1.0
C      1  0.4423520000000  0.4920340000000  0.5426860000000 1.0
C      1  0.5422010000000  0.4487380000000  0.5497540000000 1.0
C      1  0.5646400000000  0.5480990000000  0.5185290000000 1.0
C      1  0.5622530000000  0.4481080000000  0.4770160000000 1.0
C      1  0.5329680000000  0.5389020000000  0.4530910000000 1.0
C      1  0.4983880000000  0.4570540000000  0.4400990000000 1.0
C      1  0.4586710000000  0.5500440000000  0.4482120000000 1.0
C      1  0.4357520000000  0.4574500000000  0.4803310000000 1.0
C      1  0.4451960000000  0.5428690000000  0.5191610000000 1.0
C      1  0.4686030000000  0.4529270000000  0.5475530000000 1.0
C      1  0.5054200000000  0.5484080000000  0.5632920000000 1.0
C      1  0.5627370000000  0.5407480000000  0.4913930000000 1.0
C      1  0.5416700000000  0.4596430000000  0.4606750000000 1.0
C      1  0.5062270000000  0.5357970000000  0.4431330000000 1.0
C      1  0.4714930000000  0.4612700000000  0.4485380000000 1.0
C      1  0.4427830000000  0.5419390000000  0.4701480000000 1.0
C      1  0.4365040000000  0.4577220000000  0.5089130000000 1.0
C      1  0.4620540000000  0.5370800000000  0.5412050000000 1.0
C      1  0.4952100000000  0.4638130000000  0.5523690000000 1.0
C      1  0.5313350000000  0.5397300000000  0.5557180000000 1.0
C      1  0.5521350000000  0.4588720000000  0.5251520000000 1.0
C      1  0.4712550000000  0.4238830000000  0.4844060000000 1.0
C      1  0.4625230000000  0.5806100000000  0.4937820000000 1.0
C      1  0.4669530000000  0.4188370000000  0.5282300000000 1.0
C      1  0.4820050000000  0.5799230000000  0.5339810000000 1.0
C      1  0.5194070000000  0.4300470000000  0.5241640000000 1.0
C      1  0.5271570000000  0.5770360000000  0.5263310000000 1.0
C      1  0.5472290000000  0.4143950000000  0.4901430000000 1.0
C      1  0.5362510000000  0.5808220000000  0.4796780000000 1.0
C      1  0.5087970000000  0.4257360000000  0.4758690000000 1.0
C      1  0.4949450000000  0.5779050000000  0.4631650000000 1.0
C      1  0.4990860000000  0.5686250000000  0.5007050000000 1.0
C      1  0.5005350000000  0.4411860000000  0.5023470000000 1.0
C      1  0.4974850000000  0.5383690000000  0.5014790000000 1.0
C      1  0.4987690000000  0.4704950000000  0.4990440000000 1.0
END
