TITL C-3577078-809-114 8.39428726751595e-07 125000 -593.755905552489 0 0 96 (C2) n - 1
REM
REM in /home/bkarasulu/work/CARBON/AIRSS/Generating-Clusters/EDIP-Nigel-Params/with-SteepDescent/Higher-Symm/SD-CG/HFTN-CG
REM
REM
REM
REM
REM
REM ./C.cell (12c818d87b63d06a65506943cc24bca4)
REM
REM compiler GCC version 9.2.1 20190827 (Red Hat 9.2.1-1)
REM options -cpp -mtune=generic -march=x86-64 -g -O0 -fpre-include=/usr/include/finclude/math-vector-fortran.h
REM seed 1333799937 1553053 -382385859 496579233 2071249493 -1659677029 -1659810585 2053207467 59643827 -1230308786 748738310 844572324 1465144467 1387061039 1918711025 -2127682632 -1347901125 -1978553180 459923644 -441254508 -1903028054 -796319701 405092827 1680257005 291499815 1138754839 162197109 -204001201 2040976749 1898548488 -1742501869 -1597536494 -139589100
REM
CELL 1.54180   50.00000   50.00000   50.00000   90.00000   90.00000   90.00000
LATT -1
SFAC C  
C      1  0.4665010000000  0.5356650000000  0.4328720000000 1.0
C      1  0.5329520000000  0.4647880000000  0.4323650000000 1.0
C      1  0.5353370000000  0.5583500000000  0.4440580000000 1.0
C      1  0.4642080000000  0.4420260000000  0.4439550000000 1.0
C      1  0.4402330000000  0.4932440000000  0.4402360000000 1.0
C      1  0.5592810000000  0.5071590000000  0.4398000000000 1.0
C      1  0.5247490000000  0.5015540000000  0.5256060000000 1.0
C      1  0.4754590000000  0.4982730000000  0.5257950000000 1.0
C      1  0.5190250000000  0.5183480000000  0.4609060000000 1.0
C      1  0.4806580000000  0.4819140000000  0.4609390000000 1.0
C      1  0.4462020000000  0.5254880000000  0.5695080000000 1.0
C      1  0.5543590000000  0.4740470000000  0.5688970000000 1.0
C      1  0.5494180000000  0.5521850000000  0.5288390000000 1.0
C      1  0.4508160000000  0.4476210000000  0.5288870000000 1.0
C      1  0.4404810000000  0.5411190000000  0.5097680000000 1.0
C      1  0.5595950000000  0.4588180000000  0.5090080000000 1.0
C      1  0.5082770000000  0.5651970000000  0.5558150000000 1.0
C      1  0.4921740000000  0.4344290000000  0.5554400000000 1.0
C      1  0.5333730000000  0.4529970000000  0.5206950000000 1.0
C      1  0.4667980000000  0.5468620000000  0.5212810000000 1.0
C      1  0.5423300000000  0.5036900000000  0.5039100000000 1.0
C      1  0.4577030000000  0.4962830000000  0.5042290000000 1.0
C      1  0.4364630000000  0.4581440000000  0.4787690000000 1.0
C      1  0.5633640000000  0.5420000000000  0.4785360000000 1.0
C      1  0.4859960000000  0.5564980000000  0.4259320000000 1.0
C      1  0.5134010000000  0.4440020000000  0.4254430000000 1.0
C      1  0.5680320000000  0.4878510000000  0.5089450000000 1.0
C      1  0.4320430000000  0.5120870000000  0.5095780000000 1.0
C      1  0.4892740000000  0.5517430000000  0.5763200000000 1.0
C      1  0.5113430000000  0.4477460000000  0.5758810000000 1.0
C      1  0.5761060000000  0.5497550000000  0.5392610000000 1.0
C      1  0.4242140000000  0.4499800000000  0.5395420000000 1.0
C      1  0.5804430000000  0.4997250000000  0.5334690000000 1.0
C      1  0.4198310000000  0.5000480000000  0.5341220000000 1.0
C      1  0.5294010000000  0.5829160000000  0.5171030000000 1.0
C      1  0.4707370000000  0.4169700000000  0.5167830000000 1.0
C      1  0.5181550000000  0.4286620000000  0.5102560000000 1.0
C      1  0.4819310000000  0.5712670000000  0.5108820000000 1.0
C      1  0.4938420000000  0.4576390000000  0.5011490000000 1.0
C      1  0.5061690000000  0.5423520000000  0.5013840000000 1.0
C      1  0.5592140000000  0.4455520000000  0.4828140000000 1.0
C      1  0.4406500000000  0.5545600000000  0.4836610000000 1.0
C      1  0.4876600000000  0.4915360000000  0.4327170000000 1.0
C      1  0.5117940000000  0.5089170000000  0.4326770000000 1.0
C      1  0.5725970000000  0.4908730000000  0.5586600000000 1.0
C      1  0.4278820000000  0.5087300000000  0.5593070000000 1.0
C      1  0.5102140000000  0.5269940000000  0.5291980000000 1.0
C      1  0.4900230000000  0.4728110000000  0.5290980000000 1.0
C      1  0.4630710000000  0.5069620000000  0.4257750000000 1.0
C      1  0.5363260000000  0.4935380000000  0.4254330000000 1.0
C      1  0.5294000000000  0.4945870000000  0.4774710000000 1.0
C      1  0.4704180000000  0.5055640000000  0.4777470000000 1.0
C      1  0.4810030000000  0.5246940000000  0.5363850000000 1.0
C      1  0.5192910000000  0.4750620000000  0.5360630000000 1.0
C      1  0.5258230000000  0.4734430000000  0.5657910000000 1.0
C      1  0.4747130000000  0.5261140000000  0.5661760000000 1.0
C      1  0.5031960000000  0.5818950000000  0.5309110000000 1.0
C      1  0.4970520000000  0.4178990000000  0.5303840000000 1.0
C      1  0.5147870000000  0.4990890000000  0.5782460000000 1.0
C      1  0.4858480000000  0.5003850000000  0.5783670000000 1.0
C      1  0.5304660000000  0.4460320000000  0.4722630000000 1.0
C      1  0.4693120000000  0.5541520000000  0.4728740000000 1.0
C      1  0.5558680000000  0.4483970000000  0.4372630000000 1.0
C      1  0.4436260000000  0.5520210000000  0.4380660000000 1.0
C      1  0.5224510000000  0.5673870000000  0.4937430000000 1.0
C      1  0.4774970000000  0.4326560000000  0.4934730000000 1.0
C      1  0.4139470000000  0.4733480000000  0.4937140000000 1.0
C      1  0.5860000000000  0.5266960000000  0.4931960000000 1.0
C      1  0.4697430000000  0.4264860000000  0.4667660000000 1.0
C      1  0.5299890000000  0.5737370000000  0.4670160000000 1.0
C      1  0.5841500000000  0.4974720000000  0.4851360000000 1.0
C      1  0.4157320000000  0.5026250000000  0.4858360000000 1.0
C      1  0.4138160000000  0.4721990000000  0.5254790000000 1.0
C      1  0.5863880000000  0.5276310000000  0.5249650000000 1.0
C      1  0.4906290000000  0.5300390000000  0.4772410000000 1.0
C      1  0.5091850000000  0.4701150000000  0.4769640000000 1.0
C      1  0.5261010000000  0.5269240000000  0.5772350000000 1.0
C      1  0.4745260000000  0.4725570000000  0.5772610000000 1.0
C      1  0.4522100000000  0.4671710000000  0.4544490000000 1.0
C      1  0.5474200000000  0.5331350000000  0.4542840000000 1.0
C      1  0.4915140000000  0.4567980000000  0.5942900000000 1.0
C      1  0.5092510000000  0.5425670000000  0.5945060000000 1.0
C      1  0.5272880000000  0.4221750000000  0.4422030000000 1.0
C      1  0.4722460000000  0.5782110000000  0.4429510000000 1.0
C      1  0.4347120000000  0.5117540000000  0.4642080000000 1.0
C      1  0.5649950000000  0.4884890000000  0.4636020000000 1.0
C      1  0.5187960000000  0.4186540000000  0.4732660000000 1.0
C      1  0.4809900000000  0.5815230000000  0.4739660000000 1.0
C      1  0.5487960000000  0.5336420000000  0.5032020000000 1.0
C      1  0.4512300000000  0.4663360000000  0.5033720000000 1.0
C      1  0.5707850000000  0.4592380000000  0.4593240000000 1.0
C      1  0.4288880000000  0.5410330000000  0.4601750000000 1.0
C      1  0.4859680000000  0.4474300000000  0.4278910000000 1.0
C      1  0.5134480000000  0.5530540000000  0.4281350000000 1.0
C      1  0.4738860000000  0.4571890000000  0.5492830000000 1.0
C      1  0.5265140000000  0.5424800000000  0.5493560000000 1.0
END
