TITL C-3577084-3642-670 6.80329685554636e-08 125000 -491.252730549136 0 0 79 (C1) n - 1
REM
REM in /home/bkarasulu/work/CARBON/AIRSS/Generating-Clusters/EDIP-Nigel-Params/with-SteepDescent/Higher-Symm/SD-CG/HFTN-CG
REM
REM
REM
REM
REM
REM ./C.cell (12c818d87b63d06a65506943cc24bca4)
REM
REM compiler GCC version 9.2.1 20190827 (Red Hat 9.2.1-1)
REM options -cpp -mtune=generic -march=x86-64 -g -O0 -fpre-include=/usr/include/finclude/math-vector-fortran.h
REM seed 226733551 -1159668692 -1195681661 1667209434 1045179261 804065595 1573455118 -1707197331 -1417117133 224786458 771864375 1473960031 -2068029719 1349985258 -7190471 1430649743 1262505658 -1676123097 1233330522 -765590459 -1563591759 -1106274691 -1732675284 1459375248 2055872422 -198288907 956337079 1486799963 1181136357 -186001017 1706436328 1626984327 1823031467
REM
CELL 1.54180   50.00000   50.00000   50.00000   90.00000   90.00000   90.00000
LATT -1
SFAC C  
C      1  0.4865770000000  0.5181030000000  0.5202700000000 1.0
C      1  0.5157710000000  0.5164370000000  0.5297040000000 1.0
C      1  0.5254740000000  0.4869310000000  0.5307450000000 1.0
C      1  0.5004740000000  0.4731430000000  0.5180860000000 1.0
C      1  0.4777750000000  0.4900080000000  0.5242280000000 1.0
C      1  0.4874720000000  0.5212120000000  0.4886740000000 1.0
C      1  0.5219820000000  0.5183590000000  0.4753680000000 1.0
C      1  0.5252610000000  0.4870730000000  0.4722170000000 1.0
C      1  0.5011550000000  0.4744130000000  0.4860130000000 1.0
C      1  0.4797920000000  0.4925740000000  0.4800580000000 1.0
C      1  0.4835420000000  0.4480490000000  0.5660060000000 1.0
C      1  0.4564550000000  0.5006320000000  0.5652650000000 1.0
C      1  0.4833670000000  0.5414230000000  0.5625300000000 1.0
C      1  0.5476830000000  0.5378840000000  0.5653650000000 1.0
C      1  0.5534950000000  0.4658590000000  0.5724770000000 1.0
C      1  0.4826950000000  0.4455130000000  0.4318170000000 1.0
C      1  0.4646150000000  0.5057850000000  0.4385770000000 1.0
C      1  0.4817290000000  0.5623380000000  0.4606570000000 1.0
C      1  0.5407070000000  0.5325860000000  0.4322730000000 1.0
C      1  0.5533510000000  0.4609130000000  0.4312390000000 1.0
C      1  0.4921820000000  0.4424900000000  0.5167580000000 1.0
C      1  0.4232880000000  0.5035700000000  0.5142910000000 1.0
C      1  0.4684710000000  0.5644190000000  0.5234060000000 1.0
C      1  0.5575160000000  0.5311250000000  0.5098270000000 1.0
C      1  0.5484110000000  0.4706400000000  0.5160900000000 1.0
C      1  0.4931720000000  0.4426470000000  0.4860960000000 1.0
C      1  0.4284740000000  0.5051590000000  0.4856040000000 1.0
C      1  0.4556450000000  0.5634620000000  0.4966880000000 1.0
C      1  0.5514920000000  0.5297280000000  0.4803940000000 1.0
C      1  0.5477120000000  0.4703860000000  0.4843100000000 1.0
C      1  0.5596330000000  0.5135610000000  0.5591970000000 1.0
C      1  0.5330470000000  0.4480930000000  0.5639900000000 1.0
C      1  0.4617290000000  0.4518610000000  0.5495980000000 1.0
C      1  0.4388410000000  0.5228080000000  0.5580460000000 1.0
C      1  0.5058260000000  0.5589690000000  0.5515930000000 1.0
C      1  0.5576800000000  0.5109810000000  0.4371640000000 1.0
C      1  0.5326400000000  0.4437990000000  0.4412090000000 1.0
C      1  0.4647220000000  0.4539590000000  0.4515330000000 1.0
C      1  0.4487470000000  0.5289450000000  0.4468030000000 1.0
C      1  0.5081090000000  0.5593290000000  0.4542340000000 1.0
C      1  0.4563710000000  0.4803650000000  0.5423880000000 1.0
C      1  0.4675410000000  0.5375810000000  0.5371040000000 1.0
C      1  0.5279890000000  0.5408110000000  0.5440850000000 1.0
C      1  0.5408550000000  0.4913360000000  0.5662610000000 1.0
C      1  0.5072400000000  0.4614330000000  0.5711100000000 1.0
C      1  0.4612590000000  0.4830640000000  0.4590550000000 1.0
C      1  0.4675350000000  0.5436540000000  0.4763140000000 1.0
C      1  0.5159180000000  0.5310670000000  0.4474000000000 1.0
C      1  0.5410760000000  0.4867640000000  0.4365160000000 1.0
C      1  0.5066220000000  0.4583420000000  0.4377000000000 1.0
C      1  0.5750560000000  0.4842390000000  0.5210420000000 1.0
C      1  0.5150310000000  0.4249430000000  0.5249920000000 1.0
C      1  0.4328700000000  0.4776220000000  0.5237710000000 1.0
C      1  0.4179350000000  0.5512940000000  0.5232450000000 1.0
C      1  0.5406040000000  0.5522970000000  0.5204400000000 1.0
C      1  0.5738440000000  0.4840890000000  0.4764730000000 1.0
C      1  0.5162460000000  0.4239080000000  0.4806830000000 1.0
C      1  0.4374330000000  0.4797410000000  0.4761090000000 1.0
C      1  0.4159000000000  0.5510020000000  0.4756050000000 1.0
C      1  0.5522440000000  0.5572760000000  0.4702970000000 1.0
C      1  0.4978120000000  0.5712100000000  0.5242590000000 1.0
C      1  0.5692380000000  0.5119000000000  0.5306160000000 1.0
C      1  0.5363330000000  0.4408140000000  0.5360430000000 1.0
C      1  0.4634870000000  0.4386450000000  0.5240110000000 1.0
C      1  0.4257580000000  0.5260830000000  0.5326440000000 1.0
C      1  0.5263620000000  0.5674900000000  0.4759740000000 1.0
C      1  0.5701920000000  0.5115830000000  0.4642150000000 1.0
C      1  0.5386510000000  0.4381660000000  0.4691020000000 1.0
C      1  0.4652320000000  0.4392490000000  0.4763510000000 1.0
C      1  0.4277610000000  0.5273280000000  0.4666510000000 1.0
C      1  0.5915620000000  0.4839610000000  0.4982310000000 1.0
C      1  0.4421190000000  0.4598300000000  0.4996310000000 1.0
C      1  0.4263320000000  0.5623740000000  0.4988480000000 1.0
C      1  0.5228320000000  0.4089000000000  0.5034630000000 1.0
C      1  0.5180270000000  0.5610350000000  0.5036870000000 1.0
C      1  0.5117600000000  0.4862530000000  0.4300390000000 1.0
C      1  0.5094620000000  0.4911880000000  0.5715540000000 1.0
C      1  0.4850140000000  0.5107130000000  0.5714400000000 1.0
C      1  0.4950020000000  0.5106200000000  0.4337370000000 1.0
END
