TITL C-3577083-591-712 -3.3650925160773e-06 125000 -1174.69835745906 0 0 185 (C1) n - 1
REM
REM in /home/bkarasulu/work/CARBON/AIRSS/Generating-Clusters/EDIP-Nigel-Params/with-SteepDescent/Higher-Symm/SD-CG/HFTN-CG
REM
REM
REM
REM
REM
REM ./C.cell (12c818d87b63d06a65506943cc24bca4)
REM
REM compiler GCC version 9.2.1 20190827 (Red Hat 9.2.1-1)
REM options -cpp -mtune=generic -march=x86-64 -g -O0 -fpre-include=/usr/include/finclude/math-vector-fortran.h
REM seed -645899600 1791681777 300204843 1160596857 89285682 1252612292 84743543 853400237 -1880122389 220636220 1966833493 1567198055 -1839370497 -434050728 159196031 1766769494 -1744789349 1540466434 -675261279 -322223162 -761116370 1927406424 -1696133227 -1049155885 -1379511384 497690752 -77131585 1381186246 -397744697 1848013553 -145243270 1816165133 1692588593
REM
CELL 1.54180   50.00000   50.00000   50.00000   90.00000   90.00000   90.00000
LATT -1
SFAC C  
C      1  0.6027130000000  0.4719100000000  0.4906210000000 1.0
C      1  0.4970360000000  0.5972350000000  0.4711040000000 1.0
C      1  0.4739690000000  0.4908090000000  0.6033390000000 1.0
C      1  0.3977400000000  0.4738990000000  0.5080440000000 1.0
C      1  0.6016630000000  0.5285650000000  0.5053400000000 1.0
C      1  0.4023650000000  0.5274700000000  0.4924860000000 1.0
C      1  0.5101830000000  0.6038430000000  0.5281720000000 1.0
C      1  0.4915350000000  0.3962830000000  0.5258210000000 1.0
C      1  0.5068570000000  0.4029900000000  0.4723680000000 1.0
C      1  0.5286150000000  0.4960040000000  0.3970700000000 1.0
C      1  0.4713400000000  0.5095350000000  0.3942660000000 1.0
C      1  0.5276120000000  0.5072550000000  0.5980770000000 1.0
C      1  0.4802130000000  0.4520650000000  0.4452560000000 1.0
C      1  0.4401850000000  0.4817590000000  0.4415920000000 1.0
C      1  0.4410060000000  0.4499360000000  0.4755910000000 1.0
C      1  0.5244620000000  0.4405480000000  0.5500290000000 1.0
C      1  0.4815200000000  0.5579340000000  0.5595100000000 1.0
C      1  0.5139400000000  0.5509870000000  0.4465060000000 1.0
C      1  0.5547660000000  0.4800070000000  0.5490770000000 1.0
C      1  0.4491990000000  0.5245100000000  0.5593710000000 1.0
C      1  0.5533740000000  0.5158890000000  0.4502370000000 1.0
C      1  0.5586710000000  0.4407140000000  0.5181620000000 1.0
C      1  0.4511160000000  0.5542020000000  0.5196970000000 1.0
C      1  0.5500360000000  0.5552310000000  0.4855960000000 1.0
C      1  0.5052760000000  0.5400650000000  0.4978280000000 1.0
C      1  0.4758090000000  0.5129350000000  0.5459210000000 1.0
C      1  0.5343850000000  0.4990590000000  0.5314210000000 1.0
C      1  0.4685300000000  0.5341840000000  0.5010400000000 1.0
C      1  0.5135520000000  0.4545540000000  0.5230520000000 1.0
C      1  0.4888440000000  0.4473040000000  0.5082650000000 1.0
C      1  0.5035580000000  0.5065130000000  0.4610810000000 1.0
C      1  0.4993460000000  0.4703810000000  0.4648230000000 1.0
C      1  0.4881750000000  0.4866710000000  0.5531400000000 1.0
C      1  0.4545120000000  0.4763860000000  0.4862590000000 1.0
C      1  0.5390340000000  0.5042560000000  0.4952180000000 1.0
C      1  0.4469040000000  0.4880120000000  0.5124400000000 1.0
C      1  0.4327260000000  0.5709170000000  0.5031620000000 1.0
C      1  0.5037230000000  0.4271150000000  0.5669830000000 1.0
C      1  0.5738210000000  0.5061430000000  0.4290350000000 1.0
C      1  0.5719910000000  0.5744380000000  0.4957870000000 1.0
C      1  0.4283810000000  0.4326250000000  0.4963230000000 1.0
C      1  0.5766000000000  0.4247980000000  0.5005790000000 1.0
C      1  0.4964260000000  0.4334260000000  0.4286010000000 1.0
C      1  0.5048190000000  0.5711400000000  0.4249490000000 1.0
C      1  0.4987730000000  0.5764320000000  0.5752200000000 1.0
C      1  0.4322630000000  0.5039490000000  0.5725880000000 1.0
C      1  0.5708670000000  0.4963860000000  0.5680460000000 1.0
C      1  0.4243820000000  0.4987680000000  0.4229080000000 1.0
C      1  0.5794600000000  0.4634200000000  0.4403440000000 1.0
C      1  0.4466030000000  0.5759740000000  0.4608500000000 1.0
C      1  0.4596750000000  0.4370930000000  0.5818870000000 1.0
C      1  0.4163750000000  0.4599350000000  0.5641110000000 1.0
C      1  0.5764130000000  0.5386630000000  0.5545470000000 1.0
C      1  0.4201560000000  0.5419360000000  0.4381900000000 1.0
C      1  0.5603790000000  0.5800480000000  0.5385320000000 1.0
C      1  0.4353780000000  0.4143960000000  0.5418560000000 1.0
C      1  0.5611960000000  0.4207450000000  0.4572610000000 1.0
C      1  0.5385920000000  0.4473150000000  0.4233570000000 1.0
C      1  0.4622220000000  0.5594860000000  0.4192820000000 1.0
C      1  0.5420550000000  0.5614150000000  0.5804820000000 1.0
C      1  0.5214360000000  0.6124340000000  0.4803330000000 1.0
C      1  0.4843160000000  0.5169890000000  0.6162880000000 1.0
C      1  0.6157270000000  0.4826930000000  0.5157920000000 1.0
C      1  0.4858660000000  0.6171890000000  0.5152770000000 1.0
C      1  0.5176430000000  0.3836730000000  0.5149470000000 1.0
C      1  0.4820670000000  0.3861060000000  0.4799730000000 1.0
C      1  0.5186520000000  0.5206080000000  0.3822700000000 1.0
C      1  0.4833870000000  0.4848420000000  0.3806140000000 1.0
C      1  0.5203700000000  0.4820270000000  0.6138610000000 1.0
C      1  0.3838580000000  0.4842050000000  0.4823650000000 1.0
C      1  0.6166270000000  0.5185710000000  0.4808630000000 1.0
C      1  0.3864440000000  0.5199230000000  0.5176660000000 1.0
C      1  0.5575540000000  0.5938580000000  0.5136200000000 1.0
C      1  0.5153570000000  0.5579510000000  0.5930770000000 1.0
C      1  0.5895560000000  0.5132530000000  0.5516300000000 1.0
C      1  0.4495560000000  0.5893370000000  0.4861270000000 1.0
C      1  0.5578570000000  0.4075810000000  0.4837280000000 1.0
C      1  0.4488000000000  0.4179340000000  0.5145250000000 1.0
C      1  0.4868850000000  0.5566150000000  0.4050180000000 1.0
C      1  0.5133670000000  0.4499520000000  0.4099120000000 1.0
C      1  0.4887180000000  0.4439570000000  0.5873230000000 1.0
C      1  0.4069080000000  0.5155840000000  0.4415490000000 1.0
C      1  0.5936700000000  0.4881030000000  0.4435070000000 1.0
C      1  0.4142180000000  0.4878500000000  0.5547660000000 1.0
C      1  0.5310630000000  0.5448470000000  0.5111530000000 1.0
C      1  0.4974620000000  0.5339440000000  0.5481510000000 1.0
C      1  0.5279660000000  0.5298140000000  0.5397590000000 1.0
C      1  0.4602820000000  0.5279500000000  0.4701420000000 1.0
C      1  0.5352330000000  0.4534100000000  0.5023290000000 1.0
C      1  0.4666310000000  0.4413020000000  0.5260730000000 1.0
C      1  0.4882200000000  0.5309890000000  0.4550690000000 1.0
C      1  0.5300700000000  0.4616680000000  0.4718240000000 1.0
C      1  0.4672530000000  0.4650670000000  0.5555220000000 1.0
C      1  0.4516320000000  0.4978370000000  0.4654500000000 1.0
C      1  0.5441030000000  0.4906480000000  0.4693890000000 1.0
C      1  0.4447990000000  0.4653750000000  0.5322620000000 1.0
C      1  0.5370800000000  0.3802620000000  0.5355620000000 1.0
C      1  0.5388140000000  0.5415940000000  0.3839560000000 1.0
C      1  0.3846410000000  0.5413690000000  0.5369320000000 1.0
C      1  0.4625050000000  0.3849810000000  0.4587320000000 1.0
C      1  0.5423700000000  0.6087580000000  0.4606450000000 1.0
C      1  0.4645140000000  0.6214500000000  0.5345010000000 1.0
C      1  0.4634470000000  0.5361480000000  0.6195110000000 1.0
C      1  0.5419950000000  0.4629180000000  0.6152770000000 1.0
C      1  0.4639130000000  0.4635020000000  0.3778200000000 1.0
C      1  0.6163040000000  0.5392650000000  0.4603170000000 1.0
C      1  0.3804240000000  0.4634520000000  0.4630960000000 1.0
C      1  0.6153770000000  0.4627600000000  0.5363730000000 1.0
C      1  0.5472500000000  0.4548560000000  0.5904390000000 1.0
C      1  0.5901400000000  0.5462160000000  0.4581780000000 1.0
C      1  0.4575300000000  0.5969480000000  0.5430520000000 1.0
C      1  0.4562520000000  0.4573580000000  0.4028160000000 1.0
C      1  0.5448360000000  0.5430860000000  0.4103770000000 1.0
C      1  0.4515990000000  0.5527770000000  0.6023110000000 1.0
C      1  0.4093880000000  0.5475980000000  0.5444140000000 1.0
C      1  0.5946040000000  0.4513080000000  0.5491080000000 1.0
C      1  0.3979740000000  0.4511540000000  0.4471610000000 1.0
C      1  0.5486440000000  0.5856530000000  0.4479140000000 1.0
C      1  0.4559490000000  0.4100870000000  0.4526890000000 1.0
C      1  0.5530400000000  0.3978860000000  0.5477650000000 1.0
C      1  0.4391050000000  0.5422520000000  0.4156920000000 1.0
C      1  0.4172420000000  0.4393450000000  0.5418020000000 1.0
C      1  0.5369010000000  0.4362770000000  0.4503420000000 1.0
C      1  0.5492170000000  0.5370920000000  0.5650290000000 1.0
C      1  0.4378550000000  0.4584320000000  0.5849390000000 1.0
C      1  0.5611210000000  0.4639500000000  0.4183470000000 1.0
C      1  0.5836190000000  0.4398310000000  0.4568890000000 1.0
C      1  0.4354020000000  0.5491370000000  0.4626550000000 1.0
C      1  0.5821420000000  0.5613460000000  0.5382490000000 1.0
C      1  0.4578630000000  0.4154220000000  0.5610840000000 1.0
C      1  0.5427150000000  0.5838460000000  0.5614060000000 1.0
C      1  0.4630310000000  0.5811370000000  0.4380930000000 1.0
C      1  0.4624590000000  0.4351020000000  0.4621390000000 1.0
C      1  0.4624910000000  0.4682470000000  0.4275110000000 1.0
C      1  0.4235610000000  0.4598950000000  0.4538300000000 1.0
C      1  0.5459750000000  0.4234580000000  0.5392570000000 1.0
C      1  0.4678480000000  0.5719070000000  0.5371270000000 1.0
C      1  0.5315810000000  0.5704300000000  0.4655560000000 1.0
C      1  0.5380560000000  0.4616170000000  0.5654070000000 1.0
C      1  0.4597220000000  0.5461460000000  0.5765210000000 1.0
C      1  0.5338530000000  0.5325640000000  0.4338190000000 1.0
C      1  0.5739450000000  0.4623640000000  0.5329190000000 1.0
C      1  0.4342500000000  0.5378570000000  0.5378900000000 1.0
C      1  0.5663320000000  0.5357750000000  0.4684530000000 1.0
C      1  0.5286130000000  0.4007930000000  0.4917380000000 1.0
C      1  0.4925500000000  0.5294710000000  0.3950480000000 1.0
C      1  0.3980290000000  0.4937940000000  0.5296120000000 1.0
C      1  0.4697740000000  0.3959440000000  0.5066030000000 1.0
C      1  0.5301660000000  0.6018760000000  0.5072170000000 1.0
C      1  0.4765490000000  0.6002250000000  0.4916410000000 1.0
C      1  0.5077240000000  0.5285520000000  0.5998000000000 1.0
C      1  0.4947090000000  0.4701320000000  0.6017000000000 1.0
C      1  0.5079330000000  0.4757070000000  0.3963710000000 1.0
C      1  0.6030790000000  0.4932820000000  0.4709790000000 1.0
C      1  0.4001130000000  0.5078590000000  0.4709000000000 1.0
C      1  0.6010660000000  0.5074850000000  0.5251320000000 1.0
C      1  0.5926750000000  0.5569580000000  0.5113220000000 1.0
C      1  0.5156670000000  0.5931270000000  0.5560970000000 1.0
C      1  0.5516670000000  0.5139720000000  0.5829060000000 1.0
C      1  0.4173290000000  0.5517830000000  0.4857070000000 1.0
C      1  0.5932010000000  0.4440650000000  0.4839920000000 1.0
C      1  0.4093190000000  0.4470040000000  0.5137040000000 1.0
C      1  0.4899500000000  0.5917830000000  0.4423100000000 1.0
C      1  0.5136770000000  0.4182210000000  0.4480800000000 1.0
C      1  0.4852430000000  0.4104450000000  0.5512860000000 1.0
C      1  0.4437680000000  0.5152930000000  0.4059360000000 1.0
C      1  0.5566810000000  0.4907240000000  0.4076160000000 1.0
C      1  0.4480030000000  0.4857310000000  0.5894600000000 1.0
C      1  0.4950940000000  0.6423230000000  0.5039320000000 1.0
C      1  0.5138030000000  0.4905930000000  0.6407080000000 1.0
C      1  0.6433800000000  0.5109780000000  0.4896120000000 1.0
C      1  0.5137930000000  0.6402820000000  0.4841610000000 1.0
C      1  0.4915680000000  0.3592110000000  0.4849380000000 1.0
C      1  0.5106430000000  0.3577960000000  0.5040810000000 1.0
C      1  0.4931900000000  0.4935820000000  0.3547040000000 1.0
C      1  0.5126530000000  0.5126750000000  0.3548930000000 1.0
C      1  0.4947840000000  0.5097910000000  0.6422990000000 1.0
C      1  0.3596060000000  0.5136630000000  0.5088960000000 1.0
C      1  0.6425360000000  0.4912140000000  0.5084830000000 1.0
C      1  0.3578820000000  0.4943460000000  0.4900620000000 1.0
C      1  0.5081490000000  0.4834100000000  0.5303650000000 1.0
C      1  0.5104580000000  0.5116390000000  0.4898230000000 1.0
C      1  0.4693030000000  0.5080960000000  0.5166820000000 1.0
C      1  0.4839180000000  0.4705780000000  0.4906730000000 1.0
C      1  0.4933920000000  0.4938540000000  0.5065790000000 1.0
END
