TITL C-3578203-1966-489 4.03168299242507e-07 125000 -992.212383389145 0 0 157 (C1) n - 1
REM
REM in /home/bkarasulu/work/CARBON/AIRSS/Generating-Clusters/EDIP-Nigel-Params/with-SteepDescent/Higher-Symm/SD-CG/HFTN-CG
REM
REM
REM
REM
REM
REM ./C.cell (12c818d87b63d06a65506943cc24bca4)
REM
REM compiler GCC version 9.2.1 20190827 (Red Hat 9.2.1-1)
REM options -cpp -mtune=generic -march=x86-64 -g -O0 -fpre-include=/usr/include/finclude/math-vector-fortran.h
REM seed 2028411975 603708553 -1227040276 -1130903441 -1550364393 13739273 1200716170 57253356 -2040841854 -1464878778 -1985632893 442037435 -777582779 -799736729 1497635868 221922829 -345841445 -1479991295 -859119482 -549976557 1863145553 -471656878 -1142379981 -1231317257 -1984919711 829772108 -1706350968 72976463 -1014198457 -1410291756 -1431727383 -631143714 1857090525
REM
CELL 1.54180   50.00000   50.00000   50.00000   90.00000   90.00000   90.00000
LATT -1
SFAC C  
C      1  0.5450990000000  0.4161330000000  0.4535060000000 1.0
C      1  0.4456960000000  0.5388230000000  0.4190100000000 1.0
C      1  0.4121780000000  0.4490060000000  0.5502670000000 1.0
C      1  0.4535220000000  0.5822130000000  0.4424130000000 1.0
C      1  0.4446920000000  0.4174630000000  0.5640790000000 1.0
C      1  0.5367810000000  0.5778180000000  0.5553550000000 1.0
C      1  0.5657080000000  0.4481340000000  0.4202130000000 1.0
C      1  0.5573650000000  0.5442020000000  0.5837520000000 1.0
C      1  0.4407030000000  0.4605350000000  0.5899410000000 1.0
C      1  0.5800160000000  0.5590500000000  0.5457350000000 1.0
C      1  0.5848730000000  0.4479710000000  0.4659560000000 1.0
C      1  0.4145200000000  0.5552840000000  0.4553820000000 1.0
C      1  0.4248090000000  0.4248840000000  0.5443790000000 1.0
C      1  0.5449060000000  0.4292790000000  0.4273910000000 1.0
C      1  0.4244920000000  0.5343550000000  0.4392190000000 1.0
C      1  0.5587680000000  0.5751880000000  0.5359710000000 1.0
C      1  0.5671730000000  0.4235350000000  0.4702410000000 1.0
C      1  0.4382560000000  0.5686400000000  0.4635090000000 1.0
C      1  0.4630780000000  0.5634780000000  0.4206350000000 1.0
C      1  0.4573710000000  0.4357670000000  0.5831070000000 1.0
C      1  0.5336560000000  0.5562330000000  0.5744550000000 1.0
C      1  0.5830830000000  0.4617730000000  0.4387350000000 1.0
C      1  0.5760390000000  0.5374420000000  0.5635670000000 1.0
C      1  0.4187160000000  0.4672930000000  0.5700520000000 1.0
C      1  0.4552860000000  0.5264400000000  0.5370810000000 1.0
C      1  0.5126400000000  0.4338060000000  0.5199130000000 1.0
C      1  0.5307700000000  0.5392900000000  0.4538740000000 1.0
C      1  0.5406970000000  0.4718860000000  0.5180100000000 1.0
C      1  0.5483450000000  0.5307350000000  0.4799900000000 1.0
C      1  0.4417430000000  0.4778250000000  0.4842870000000 1.0
C      1  0.4777440000000  0.5449810000000  0.5243500000000 1.0
C      1  0.4657280000000  0.4633950000000  0.4725400000000 1.0
C      1  0.5116300000000  0.5621750000000  0.4678370000000 1.0
C      1  0.4781310000000  0.4838300000000  0.4527660000000 1.0
C      1  0.4714200000000  0.5096220000000  0.5544490000000 1.0
C      1  0.5218050000000  0.4583600000000  0.5362060000000 1.0
C      1  0.4008160000000  0.4871500000000  0.4935530000000 1.0
C      1  0.5028050000000  0.3995020000000  0.4888000000000 1.0
C      1  0.4821770000000  0.5021530000000  0.4088080000000 1.0
C      1  0.6002190000000  0.5107710000000  0.4877380000000 1.0
C      1  0.5908600000000  0.4875880000000  0.5050220000000 1.0
C      1  0.4055090000000  0.5132520000000  0.5101930000000 1.0
C      1  0.5118090000000  0.5917040000000  0.4827040000000 1.0
C      1  0.5184110000000  0.3914090000000  0.5149050000000 1.0
C      1  0.4989160000000  0.5875450000000  0.5122220000000 1.0
C      1  0.5097370000000  0.5150690000000  0.4047360000000 1.0
C      1  0.5064410000000  0.4899730000000  0.5915290000000 1.0
C      1  0.4811450000000  0.5047900000000  0.5972890000000 1.0
C      1  0.5045470000000  0.4436810000000  0.4938580000000 1.0
C      1  0.5101100000000  0.5177980000000  0.4489720000000 1.0
C      1  0.4426100000000  0.5056710000000  0.5188420000000 1.0
C      1  0.4886600000000  0.5307180000000  0.4995180000000 1.0
C      1  0.4831400000000  0.4650650000000  0.4976830000000 1.0
C      1  0.5144960000000  0.5453500000000  0.4936150000000 1.0
C      1  0.5036810000000  0.4932020000000  0.4654670000000 1.0
C      1  0.4959680000000  0.5037120000000  0.5405650000000 1.0
C      1  0.4983090000000  0.4748090000000  0.5382160000000 1.0
C      1  0.5293530000000  0.4965050000000  0.5068770000000 1.0
C      1  0.5444160000000  0.5019070000000  0.4822770000000 1.0
C      1  0.4545080000000  0.5021340000000  0.4932030000000 1.0
C      1  0.5366580000000  0.5779190000000  0.4343070000000 1.0
C      1  0.4329700000000  0.5376420000000  0.5788550000000 1.0
C      1  0.5760120000000  0.4377120000000  0.5387380000000 1.0
C      1  0.4728830000000  0.4308970000000  0.4436620000000 1.0
C      1  0.4652560000000  0.5733980000000  0.5674380000000 1.0
C      1  0.5354710000000  0.4239990000000  0.5665980000000 1.0
C      1  0.5566750000000  0.4684850000000  0.5705120000000 1.0
C      1  0.5627190000000  0.5341240000000  0.4250810000000 1.0
C      1  0.4377430000000  0.4639940000000  0.4284590000000 1.0
C      1  0.4266740000000  0.5647520000000  0.5363660000000 1.0
C      1  0.4306770000000  0.4369670000000  0.4715050000000 1.0
C      1  0.5742230000000  0.5628580000000  0.4643030000000 1.0
C      1  0.5655010000000  0.4152370000000  0.4977400000000 1.0
C      1  0.4934500000000  0.5650780000000  0.4167080000000 1.0
C      1  0.4151240000000  0.4962410000000  0.5651880000000 1.0
C      1  0.4438890000000  0.5761620000000  0.4920310000000 1.0
C      1  0.4325210000000  0.4226860000000  0.5169290000000 1.0
C      1  0.5593470000000  0.5802180000000  0.5061540000000 1.0
C      1  0.5167700000000  0.4336540000000  0.4191210000000 1.0
C      1  0.5060200000000  0.5535970000000  0.5848300000000 1.0
C      1  0.4898390000000  0.4358130000000  0.5819260000000 1.0
C      1  0.5706700000000  0.5102120000000  0.5535350000000 1.0
C      1  0.5797850000000  0.4923490000000  0.4383550000000 1.0
C      1  0.4165330000000  0.5064470000000  0.4421220000000 1.0
C      1  0.4585820000000  0.5502130000000  0.5850740000000 1.0
C      1  0.5733440000000  0.4653970000000  0.5474110000000 1.0
C      1  0.5516220000000  0.5803380000000  0.4593060000000 1.0
C      1  0.5314150000000  0.4534230000000  0.5664910000000 1.0
C      1  0.5402430000000  0.5530440000000  0.4183470000000 1.0
C      1  0.4643960000000  0.4519490000000  0.4243220000000 1.0
C      1  0.4289520000000  0.5378410000000  0.5492840000000 1.0
C      1  0.4208080000000  0.4573420000000  0.4519540000000 1.0
C      1  0.5781750000000  0.5379390000000  0.4494510000000 1.0
C      1  0.4590610000000  0.4249640000000  0.4698240000000 1.0
C      1  0.4519020000000  0.5803190000000  0.5411730000000 1.0
C      1  0.5547130000000  0.4167240000000  0.5449230000000 1.0
C      1  0.4829480000000  0.5339530000000  0.5896390000000 1.0
C      1  0.5854040000000  0.4899840000000  0.5351400000000 1.0
C      1  0.5418670000000  0.5929750000000  0.4841060000000 1.0
C      1  0.5091400000000  0.4604610000000  0.5861190000000 1.0
C      1  0.5133370000000  0.5440600000000  0.4079980000000 1.0
C      1  0.4852170000000  0.4741800000000  0.4233460000000 1.0
C      1  0.4073120000000  0.5165340000000  0.5426890000000 1.0
C      1  0.4098570000000  0.4845300000000  0.4630210000000 1.0
C      1  0.5894910000000  0.5125850000000  0.4593550000000 1.0
C      1  0.4751340000000  0.4106440000000  0.4941060000000 1.0
C      1  0.4682140000000  0.5744300000000  0.5155100000000 1.0
C      1  0.5432680000000  0.4095700000000  0.5179730000000 1.0
C      1  0.5283390000000  0.4479010000000  0.4773200000000 1.0
C      1  0.4843580000000  0.5290460000000  0.4378810000000 1.0
C      1  0.4399630000000  0.4786140000000  0.5331430000000 1.0
C      1  0.4750270000000  0.5928070000000  0.4583390000000 1.0
C      1  0.4853930000000  0.4192960000000  0.5254740000000 1.0
C      1  0.5209910000000  0.5630660000000  0.5172280000000 1.0
C      1  0.5145730000000  0.4638040000000  0.4170560000000 1.0
C      1  0.5177090000000  0.5223720000000  0.5472980000000 1.0
C      1  0.4787680000000  0.4616820000000  0.5546090000000 1.0
C      1  0.5823020000000  0.5294980000000  0.5158670000000 1.0
C      1  0.5626930000000  0.4799070000000  0.4722390000000 1.0
C      1  0.4478920000000  0.5235700000000  0.4753040000000 1.0
C      1  0.4348860000000  0.4935270000000  0.4226150000000 1.0
C      1  0.4188430000000  0.4384940000000  0.4979590000000 1.0
C      1  0.4998050000000  0.4207700000000  0.4401800000000 1.0
C      1  0.5609160000000  0.5061170000000  0.4180310000000 1.0
C      1  0.5543960000000  0.4968950000000  0.5744380000000 1.0
C      1  0.4296230000000  0.5093900000000  0.5872670000000 1.0
C      1  0.5827390000000  0.5668240000000  0.4917170000000 1.0
C      1  0.5825230000000  0.4361720000000  0.5101930000000 1.0
C      1  0.4231820000000  0.5615420000000  0.5066720000000 1.0
C      1  0.5092390000000  0.5866750000000  0.4303900000000 1.0
C      1  0.5076740000000  0.4120970000000  0.5673120000000 1.0
C      1  0.4942280000000  0.5773750000000  0.5706770000000 1.0
C      1  0.5275820000000  0.5072210000000  0.5802670000000 1.0
C      1  0.6006700000000  0.5464340000000  0.5021780000000 1.0
C      1  0.5109570000000  0.5898550000000  0.5490560000000 1.0
C      1  0.4526000000000  0.4908700000000  0.5960210000000 1.0
C      1  0.4533750000000  0.5126770000000  0.4062480000000 1.0
C      1  0.5338040000000  0.4964090000000  0.4072780000000 1.0
C      1  0.4129010000000  0.4650710000000  0.5090630000000 1.0
C      1  0.4200560000000  0.5345460000000  0.4941010000000 1.0
C      1  0.5950440000000  0.4599600000000  0.4937720000000 1.0
C      1  0.4986540000000  0.3974540000000  0.5414090000000 1.0
C      1  0.4983620000000  0.6050230000000  0.4494190000000 1.0
C      1  0.5166330000000  0.4133490000000  0.4640200000000 1.0
C      1  0.5535520000000  0.5390060000000  0.5117070000000 1.0
C      1  0.5048750000000  0.5500900000000  0.5410520000000 1.0
C      1  0.5370350000000  0.5179170000000  0.5257190000000 1.0
C      1  0.4547080000000  0.4547210000000  0.5176270000000 1.0
C      1  0.4695480000000  0.5421320000000  0.4807400000000 1.0
C      1  0.5525360000000  0.4570630000000  0.4948020000000 1.0
C      1  0.4666600000000  0.4379140000000  0.5400420000000 1.0
C      1  0.4833400000000  0.5552860000000  0.4585700000000 1.0
C      1  0.5223930000000  0.4707160000000  0.4598500000000 1.0
C      1  0.4580970000000  0.4833360000000  0.5581820000000 1.0
C      1  0.4601480000000  0.5094590000000  0.4484340000000 1.0
C      1  0.5406940000000  0.4724510000000  0.4368830000000 1.0
C      1  0.4983060000000  0.4962810000000  0.4970080000000 1.0
END
