TITL C-3577090-796-281 -2.16534661290924e-06 125000 -808.853982288664 0 0 131 (C1) n - 1
REM
REM in /home/bkarasulu/work/CARBON/AIRSS/Generating-Clusters/EDIP-Nigel-Params/with-SteepDescent/Higher-Symm/SD-CG/HFTN-CG
REM
REM
REM
REM
REM
REM ./C.cell (12c818d87b63d06a65506943cc24bca4)
REM
REM compiler GCC version 9.2.1 20190827 (Red Hat 9.2.1-1)
REM options -cpp -mtune=generic -march=x86-64 -g -O0 -fpre-include=/usr/include/finclude/math-vector-fortran.h
REM seed -1198068059 -1743948087 -459261634 2077598558 -519716572 543324080 398108428 1973953700 755875417 -1363146319 485672597 -256064915 1381973727 830720245 1763760607 -1113390402 882404436 2139468103 308503236 -1462106153 -2111174815 558693656 -242257156 1202119038 1548990578 -2054775364 20810917 -519511035 947234558 -437734995 -199777669 -1538066152 1458307311
REM
CELL 1.54180   50.00000   50.00000   50.00000   90.00000   90.00000   90.00000
LATT -1
SFAC C  
C      1  0.4706020000000  0.5362290000000  0.4521630000000 1.0
C      1  0.4093650000000  0.4990080000000  0.4698770000000 1.0
C      1  0.4727910000000  0.4847920000000  0.5918560000000 1.0
C      1  0.4153570000000  0.4964100000000  0.4995160000000 1.0
C      1  0.5113200000000  0.3997030000000  0.4878430000000 1.0
C      1  0.5082990000000  0.4877390000000  0.4360710000000 1.0
C      1  0.4672800000000  0.5447740000000  0.4146730000000 1.0
C      1  0.5011510000000  0.5337940000000  0.4456540000000 1.0
C      1  0.4360100000000  0.4170570000000  0.5135090000000 1.0
C      1  0.4123560000000  0.4715560000000  0.4557490000000 1.0
C      1  0.5179850000000  0.5751230000000  0.5049320000000 1.0
C      1  0.6045060000000  0.4949570000000  0.4673290000000 1.0
C      1  0.5788100000000  0.4644450000000  0.4396740000000 1.0
C      1  0.5304120000000  0.5831100000000  0.5312770000000 1.0
C      1  0.5100070000000  0.4291920000000  0.5553840000000 1.0
C      1  0.5838410000000  0.4926100000000  0.4463610000000 1.0
C      1  0.4160610000000  0.5290950000000  0.5539570000000 1.0
C      1  0.5776580000000  0.4677980000000  0.5525950000000 1.0
C      1  0.5631100000000  0.4405670000000  0.5527590000000 1.0
C      1  0.5144830000000  0.5253070000000  0.4707490000000 1.0
C      1  0.6037530000000  0.4599070000000  0.4810900000000 1.0
C      1  0.3968470000000  0.5371320000000  0.5336990000000 1.0
C      1  0.5287970000000  0.5504680000000  0.4240860000000 1.0
C      1  0.5647230000000  0.5865790000000  0.4609060000000 1.0
C      1  0.5861120000000  0.4461910000000  0.4620760000000 1.0
C      1  0.5272120000000  0.4967560000000  0.4602280000000 1.0
C      1  0.4881630000000  0.5646370000000  0.5015660000000 1.0
C      1  0.4963110000000  0.5860640000000  0.4391330000000 1.0
C      1  0.5278280000000  0.5099750000000  0.5570690000000 1.0
C      1  0.4147590000000  0.4557460000000  0.5334470000000 1.0
C      1  0.4482920000000  0.4354770000000  0.4726960000000 1.0
C      1  0.5681330000000  0.4887070000000  0.5693360000000 1.0
C      1  0.4677110000000  0.4136240000000  0.4784500000000 1.0
C      1  0.4844080000000  0.4410060000000  0.5652820000000 1.0
C      1  0.4596350000000  0.4628360000000  0.4809000000000 1.0
C      1  0.4579030000000  0.5029140000000  0.4269290000000 1.0
C      1  0.5581050000000  0.5740560000000  0.5318290000000 1.0
C      1  0.4857850000000  0.5584660000000  0.5714610000000 1.0
C      1  0.5343750000000  0.5064070000000  0.6009530000000 1.0
C      1  0.5370810000000  0.5773090000000  0.4605290000000 1.0
C      1  0.4397090000000  0.5479860000000  0.4236160000000 1.0
C      1  0.5630800000000  0.4480080000000  0.5028570000000 1.0
C      1  0.5148780000000  0.4087310000000  0.5348510000000 1.0
C      1  0.5004450000000  0.4430560000000  0.5055160000000 1.0
C      1  0.5403060000000  0.5087500000000  0.4077420000000 1.0
C      1  0.5540060000000  0.5098080000000  0.5080970000000 1.0
C      1  0.4340150000000  0.5488180000000  0.5045080000000 1.0
C      1  0.4426060000000  0.4345310000000  0.4431610000000 1.0
C      1  0.4753980000000  0.4599060000000  0.5149520000000 1.0
C      1  0.4833620000000  0.4644060000000  0.4641140000000 1.0
C      1  0.5379810000000  0.4422840000000  0.4542930000000 1.0
C      1  0.4866200000000  0.5761240000000  0.5501040000000 1.0
C      1  0.5742070000000  0.5830080000000  0.4860880000000 1.0
C      1  0.4467260000000  0.5601510000000  0.5293420000000 1.0
C      1  0.5502850000000  0.5112570000000  0.5766390000000 1.0
C      1  0.4732090000000  0.5711030000000  0.5263730000000 1.0
C      1  0.5652820000000  0.5642400000000  0.5049310000000 1.0
C      1  0.5688700000000  0.5469230000000  0.5455790000000 1.0
C      1  0.5098620000000  0.4645870000000  0.4171250000000 1.0
C      1  0.6002150000000  0.5149240000000  0.5162860000000 1.0
C      1  0.4488690000000  0.4717360000000  0.5567940000000 1.0
C      1  0.4624900000000  0.5284690000000  0.5979480000000 1.0
C      1  0.4618010000000  0.4050660000000  0.5056810000000 1.0
C      1  0.4747700000000  0.5802150000000  0.4797120000000 1.0
C      1  0.4984540000000  0.4128860000000  0.5108530000000 1.0
C      1  0.5237270000000  0.5771410000000  0.4341490000000 1.0
C      1  0.4197360000000  0.5488310000000  0.4685910000000 1.0
C      1  0.4890160000000  0.5210980000000  0.5232540000000 1.0
C      1  0.5441190000000  0.4757950000000  0.5050820000000 1.0
C      1  0.4950000000000  0.5972760000000  0.4665360000000 1.0
C      1  0.5376810000000  0.5527880000000  0.4985030000000 1.0
C      1  0.4352630000000  0.5663120000000  0.4483380000000 1.0
C      1  0.5100660000000  0.5444780000000  0.5787010000000 1.0
C      1  0.4048280000000  0.5528420000000  0.5098210000000 1.0
C      1  0.4903890000000  0.4611020000000  0.5871900000000 1.0
C      1  0.4903070000000  0.4870220000000  0.5512320000000 1.0
C      1  0.5233730000000  0.4678620000000  0.5256410000000 1.0
C      1  0.4959420000000  0.4115280000000  0.4670280000000 1.0
C      1  0.5414860000000  0.4073910000000  0.5265620000000 1.0
C      1  0.4771720000000  0.5178490000000  0.4115190000000 1.0
C      1  0.5339000000000  0.4666170000000  0.5552140000000 1.0
C      1  0.4250920000000  0.4350590000000  0.4921800000000 1.0
C      1  0.5663840000000  0.5186900000000  0.4814820000000 1.0
C      1  0.3906090000000  0.5117430000000  0.5070910000000 1.0
C      1  0.4954410000000  0.4827380000000  0.5230990000000 1.0
C      1  0.5909270000000  0.4564530000000  0.5063420000000 1.0
C      1  0.4727620000000  0.4525850000000  0.4382120000000 1.0
C      1  0.4118310000000  0.5018700000000  0.5592220000000 1.0
C      1  0.5594140000000  0.4286540000000  0.5258960000000 1.0
C      1  0.5343980000000  0.4388150000000  0.5689990000000 1.0
C      1  0.4660040000000  0.5671230000000  0.4533680000000 1.0
C      1  0.5570560000000  0.5089210000000  0.4531410000000 1.0
C      1  0.5343250000000  0.5534500000000  0.5627690000000 1.0
C      1  0.4449750000000  0.5389730000000  0.5503800000000 1.0
C      1  0.5209260000000  0.5934500000000  0.4806340000000 1.0
C      1  0.5272430000000  0.4756460000000  0.4807930000000 1.0
C      1  0.5162850000000  0.5303290000000  0.5375560000000 1.0
C      1  0.4593100000000  0.5159600000000  0.5353360000000 1.0
C      1  0.5740080000000  0.5194520000000  0.5296330000000 1.0
C      1  0.4826140000000  0.5099600000000  0.6046660000000 1.0
C      1  0.5124620000000  0.4245860000000  0.4447990000000 1.0
C      1  0.4240160000000  0.4796430000000  0.5473970000000 1.0
C      1  0.4603010000000  0.5457040000000  0.5761540000000 1.0
C      1  0.4623280000000  0.4491250000000  0.5434980000000 1.0
C      1  0.5439730000000  0.4802030000000  0.4106160000000 1.0
C      1  0.5592220000000  0.5399920000000  0.5737880000000 1.0
C      1  0.4148600000000  0.4609060000000  0.5048040000000 1.0
C      1  0.4554560000000  0.4742240000000  0.4214310000000 1.0
C      1  0.5947290000000  0.5145340000000  0.4865060000000 1.0
C      1  0.5080560000000  0.4531140000000  0.4769190000000 1.0
C      1  0.4345680000000  0.5200710000000  0.4319470000000 1.0
C      1  0.4424280000000  0.5177730000000  0.5051630000000 1.0
C      1  0.4250870000000  0.5215360000000  0.4590450000000 1.0
C      1  0.5313100000000  0.5279450000000  0.5119480000000 1.0
C      1  0.4964040000000  0.4397040000000  0.4243710000000 1.0
C      1  0.5509490000000  0.4614100000000  0.4328950000000 1.0
C      1  0.5608060000000  0.4354640000000  0.4743830000000 1.0
C      1  0.4648820000000  0.4936320000000  0.5632070000000 1.0
C      1  0.5476660000000  0.5277330000000  0.4282200000000 1.0
C      1  0.4632570000000  0.5242560000000  0.4818090000000 1.0
C      1  0.4428160000000  0.4814920000000  0.4618230000000 1.0
C      1  0.5354090000000  0.5479390000000  0.4702090000000 1.0
C      1  0.3904080000000  0.5367920000000  0.4901200000000 1.0
C      1  0.5954400000000  0.4729200000000  0.5295600000000 1.0
C      1  0.5131360000000  0.4852350000000  0.5692890000000 1.0
C      1  0.5050840000000  0.5137850000000  0.4220480000000 1.0
C      1  0.5095720000000  0.5201150000000  0.5960060000000 1.0
C      1  0.4356940000000  0.4335920000000  0.5381900000000 1.0
C      1  0.4886990000000  0.5332610000000  0.4949100000000 1.0
C      1  0.6149280000000  0.4933930000000  0.5273900000000 1.0
C      1  0.4296580000000  0.4596200000000  0.4326400000000 1.0
END
