TITL C-3578198-8939-70 -4.08675263768925e-06 125000 -1244.67881108451 0 0 199 (C1) n - 1
REM
REM in /home/bkarasulu/work/CARBON/AIRSS/Generating-Clusters/EDIP-Nigel-Params/with-SteepDescent/Higher-Symm/SD-CG/HFTN-CG
REM
REM
REM
REM
REM
REM ./C.cell (12c818d87b63d06a65506943cc24bca4)
REM
REM compiler GCC version 9.2.1 20190827 (Red Hat 9.2.1-1)
REM options -cpp -mtune=generic -march=x86-64 -g -O0 -fpre-include=/usr/include/finclude/math-vector-fortran.h
REM seed 2037493208 -1998411209 -1002163375 -582435804 -1146621629 -318597239 1474313400 -1153238789 1005063526 455893603 -1642600529 -1400181457 -1215446732 1335374103 -1280730859 718936021 1420032937 524030029 1966039734 1362511295 1716752201 -436480979 834575942 -1663827950 23818637 -1890650636 11666961 -1099751449 -1593911240 -933683604 1704184509 -942824903 34398340
REM
CELL 1.54180   50.00000   50.00000   50.00000   90.00000   90.00000   90.00000
LATT -1
SFAC C  
C      1  0.4503440000000  0.4479470000000  0.5252760000000 1.0
C      1  0.4615730000000  0.4610760000000  0.5524830000000 1.0
C      1  0.4916770000000  0.4682210000000  0.5574060000000 1.0
C      1  0.5628480000000  0.4692310000000  0.5151730000000 1.0
C      1  0.5745310000000  0.4638130000000  0.4868930000000 1.0
C      1  0.5523870000000  0.4636020000000  0.4647780000000 1.0
C      1  0.5053520000000  0.4655250000000  0.4411290000000 1.0
C      1  0.4758540000000  0.4736390000000  0.4407580000000 1.0
C      1  0.4393090000000  0.4609240000000  0.4997800000000 1.0
C      1  0.4085820000000  0.5187810000000  0.4148760000000 1.0
C      1  0.3819050000000  0.5116660000000  0.5016150000000 1.0
C      1  0.4096630000000  0.5137430000000  0.5766250000000 1.0
C      1  0.4781200000000  0.5141520000000  0.6168180000000 1.0
C      1  0.5623270000000  0.5171670000000  0.6005270000000 1.0
C      1  0.6074330000000  0.5172770000000  0.5534590000000 1.0
C      1  0.6228280000000  0.5160380000000  0.4707860000000 1.0
C      1  0.5611750000000  0.5103210000000  0.4030680000000 1.0
C      1  0.4828100000000  0.5160360000000  0.3812540000000 1.0
C      1  0.4658760000000  0.5456190000000  0.4963120000000 1.0
C      1  0.4596200000000  0.5615650000000  0.5227750000000 1.0
C      1  0.4787400000000  0.5535040000000  0.5463820000000 1.0
C      1  0.5062250000000  0.5557540000000  0.5378900000000 1.0
C      1  0.5362530000000  0.5651340000000  0.5062670000000 1.0
C      1  0.5464330000000  0.5564100000000  0.4779300000000 1.0
C      1  0.5230850000000  0.5543240000000  0.4563750000000 1.0
C      1  0.4900940000000  0.5514880000000  0.4514030000000 1.0
C      1  0.4627010000000  0.5459210000000  0.4664590000000 1.0
C      1  0.5817290000000  0.5151760000000  0.5677160000000 1.0
C      1  0.6240290000000  0.5191160000000  0.4999330000000 1.0
C      1  0.5762710000000  0.4941210000000  0.4218090000000 1.0
C      1  0.5088050000000  0.5052320000000  0.3884160000000 1.0
C      1  0.4309980000000  0.5047820000000  0.3980830000000 1.0
C      1  0.3869210000000  0.4966150000000  0.4775830000000 1.0
C      1  0.4019110000000  0.5007850000000  0.5521440000000 1.0
C      1  0.4555390000000  0.5012370000000  0.6047120000000 1.0
C      1  0.5378820000000  0.5016830000000  0.6002640000000 1.0
C      1  0.5171270000000  0.5062070000000  0.5318630000000 1.0
C      1  0.5305100000000  0.5219440000000  0.5116840000000 1.0
C      1  0.5434080000000  0.5091510000000  0.4903460000000 1.0
C      1  0.5257000000000  0.4990710000000  0.4683750000000 1.0
C      1  0.4981870000000  0.5103390000000  0.4680110000000 1.0
C      1  0.4726090000000  0.4955180000000  0.4685210000000 1.0
C      1  0.4643430000000  0.4969880000000  0.4968550000000 1.0
C      1  0.4778650000000  0.4841450000000  0.5179820000000 1.0
C      1  0.4884080000000  0.5051910000000  0.5329350000000 1.0
C      1  0.5522870000000  0.5363500000000  0.4096080000000 1.0
C      1  0.4789660000000  0.5419640000000  0.3930900000000 1.0
C      1  0.4189540000000  0.5398040000000  0.4326330000000 1.0
C      1  0.3929890000000  0.5381530000000  0.5042020000000 1.0
C      1  0.4205540000000  0.5399460000000  0.5735570000000 1.0
C      1  0.4860090000000  0.5386080000000  0.6044780000000 1.0
C      1  0.5598020000000  0.5446900000000  0.5920830000000 1.0
C      1  0.6011840000000  0.5411640000000  0.5374220000000 1.0
C      1  0.6036690000000  0.5382570000000  0.4646370000000 1.0
C      1  0.4457670000000  0.4859460000000  0.5598620000000 1.0
C      1  0.4934780000000  0.4918380000000  0.5762450000000 1.0
C      1  0.5435530000000  0.4921600000000  0.5570140000000 1.0
C      1  0.5790400000000  0.4966490000000  0.5230980000000 1.0
C      1  0.5863960000000  0.4905810000000  0.4736910000000 1.0
C      1  0.5263010000000  0.4871380000000  0.4313910000000 1.0
C      1  0.4752370000000  0.4932570000000  0.4182280000000 1.0
C      1  0.4258940000000  0.4895210000000  0.4487400000000 1.0
C      1  0.4225660000000  0.4853790000000  0.5046060000000 1.0
C      1  0.5341030000000  0.4363900000000  0.5534770000000 1.0
C      1  0.5813980000000  0.4263420000000  0.5176990000000 1.0
C      1  0.5729610000000  0.4205900000000  0.4667500000000 1.0
C      1  0.5311560000000  0.4255380000000  0.4361550000000 1.0
C      1  0.4801820000000  0.4299300000000  0.4214930000000 1.0
C      1  0.4448400000000  0.4282150000000  0.4616380000000 1.0
C      1  0.4173760000000  0.4201430000000  0.5067230000000 1.0
C      1  0.4343590000000  0.4196410000000  0.5579060000000 1.0
C      1  0.4831470000000  0.4270560000000  0.5779400000000 1.0
C      1  0.4746920000000  0.5729990000000  0.5696250000000 1.0
C      1  0.5269270000000  0.5770380000000  0.5711720000000 1.0
C      1  0.5674810000000  0.5767250000000  0.5391510000000 1.0
C      1  0.5826520000000  0.5787670000000  0.4890050000000 1.0
C      1  0.5565180000000  0.5769700000000  0.4400060000000 1.0
C      1  0.5025870000000  0.5753640000000  0.4232220000000 1.0
C      1  0.4536140000000  0.5744740000000  0.4414320000000 1.0
C      1  0.4242790000000  0.5749500000000  0.4871900000000 1.0
C      1  0.4303420000000  0.5797480000000  0.5413020000000 1.0
C      1  0.5630150000000  0.5289600000000  0.4797380000000 1.0
C      1  0.5385600000000  0.5247070000000  0.4496430000000 1.0
C      1  0.4947170000000  0.5239540000000  0.4427980000000 1.0
C      1  0.4525910000000  0.5163770000000  0.4577030000000 1.0
C      1  0.4509970000000  0.5225620000000  0.5038360000000 1.0
C      1  0.4440520000000  0.5263940000000  0.5323420000000 1.0
C      1  0.4701860000000  0.5237800000000  0.5485960000000 1.0
C      1  0.5255550000000  0.5378900000000  0.5525000000000 1.0
C      1  0.5482480000000  0.5377920000000  0.5314230000000 1.0
C      1  0.4311620000000  0.5898050000000  0.5121550000000 1.0
C      1  0.4544100000000  0.5908670000000  0.5558590000000 1.0
C      1  0.5004990000000  0.5896970000000  0.5705620000000 1.0
C      1  0.5461730000000  0.5910260000000  0.5539180000000 1.0
C      1  0.5716800000000  0.5905840000000  0.5137410000000 1.0
C      1  0.5642720000000  0.5893790000000  0.4667810000000 1.0
C      1  0.5282250000000  0.5875170000000  0.4354090000000 1.0
C      1  0.4784950000000  0.5898080000000  0.4344240000000 1.0
C      1  0.4428720000000  0.5854120000000  0.4669950000000 1.0
C      1  0.3831710000000  0.4678110000000  0.4871710000000 1.0
C      1  0.3999480000000  0.4719170000000  0.5619030000000 1.0
C      1  0.4574410000000  0.4723650000000  0.6106610000000 1.0
C      1  0.5401340000000  0.4722780000000  0.6033880000000 1.0
C      1  0.6054090000000  0.4687600000000  0.5534110000000 1.0
C      1  0.6263860000000  0.4650630000000  0.4738120000000 1.0
C      1  0.5691790000000  0.4673830000000  0.4101250000000 1.0
C      1  0.5016380000000  0.4756700000000  0.3822850000000 1.0
C      1  0.4194860000000  0.4766170000000  0.4066830000000 1.0
C      1  0.5089060000000  0.4419430000000  0.4226570000000 1.0
C      1  0.4581780000000  0.4476160000000  0.4344170000000 1.0
C      1  0.4246020000000  0.4395850000000  0.4841660000000 1.0
C      1  0.4233390000000  0.4342500000000  0.5333020000000 1.0
C      1  0.4546400000000  0.4385160000000  0.5727190000000 1.0
C      1  0.5067000000000  0.4465260000000  0.5729280000000 1.0
C      1  0.5663630000000  0.4461470000000  0.5359290000000 1.0
C      1  0.5876040000000  0.4362310000000  0.4885330000000 1.0
C      1  0.5572740000000  0.4380780000000  0.4476070000000 1.0
C      1  0.5983930000000  0.5540860000000  0.4884390000000 1.0
C      1  0.5668150000000  0.5518150000000  0.4295900000000 1.0
C      1  0.5031340000000  0.5566010000000  0.4003350000000 1.0
C      1  0.4377950000000  0.5591850000000  0.4213520000000 1.0
C      1  0.4045840000000  0.5540150000000  0.4820860000000 1.0
C      1  0.4157030000000  0.5548160000000  0.5489200000000 1.0
C      1  0.4662780000000  0.5567360000000  0.5932900000000 1.0
C      1  0.5335960000000  0.5571040000000  0.5912000000000 1.0
C      1  0.5887520000000  0.5629500000000  0.5524450000000 1.0
C      1  0.4649040000000  0.5057390000000  0.5745210000000 1.0
C      1  0.5221390000000  0.5074970000000  0.5750490000000 1.0
C      1  0.5631230000000  0.5119950000000  0.5441720000000 1.0
C      1  0.5871010000000  0.5119310000000  0.4964420000000 1.0
C      1  0.5647700000000  0.4972670000000  0.4496790000000 1.0
C      1  0.5106130000000  0.5101460000000  0.4199690000000 1.0
C      1  0.4498140000000  0.5087380000000  0.4254120000000 1.0
C      1  0.4167040000000  0.4993100000000  0.4758630000000 1.0
C      1  0.4287100000000  0.4997440000000  0.5365600000000 1.0
C      1  0.4376560000000  0.4571140000000  0.4163230000000 1.0
C      1  0.4000290000000  0.4501060000000  0.4735590000000 1.0
C      1  0.4009280000000  0.4556400000000  0.5374040000000 1.0
C      1  0.4406640000000  0.4548200000000  0.5945610000000 1.0
C      1  0.5143250000000  0.4586760000000  0.6004440000000 1.0
C      1  0.5807110000000  0.4573900000000  0.5597380000000 1.0
C      1  0.6151060000000  0.4421930000000  0.4826640000000 1.0
C      1  0.5741280000000  0.4455470000000  0.4262040000000 1.0
C      1  0.5196060000000  0.4559430000000  0.3969770000000 1.0
C      1  0.5234800000000  0.4415080000000  0.5264800000000 1.0
C      1  0.5341530000000  0.4628470000000  0.5103390000000 1.0
C      1  0.5305980000000  0.4575520000000  0.4823840000000 1.0
C      1  0.5062620000000  0.4594560000000  0.4697730000000 1.0
C      1  0.4848650000000  0.4459160000000  0.4793470000000 1.0
C      1  0.4697990000000  0.4233790000000  0.4762510000000 1.0
C      1  0.4682280000000  0.4079760000000  0.4994830000000 1.0
C      1  0.4711560000000  0.4267440000000  0.5203300000000 1.0
C      1  0.4969080000000  0.4356750000000  0.5237350000000 1.0
C      1  0.5815400000000  0.5565090000000  0.5787930000000 1.0
C      1  0.6134720000000  0.5437540000000  0.5109360000000 1.0
C      1  0.5909190000000  0.5427040000000  0.4401660000000 1.0
C      1  0.5278650000000  0.5439500000000  0.3983700000000 1.0
C      1  0.4535770000000  0.5517060000000  0.3996190000000 1.0
C      1  0.4037540000000  0.5460040000000  0.4553720000000 1.0
C      1  0.3969320000000  0.5467250000000  0.5302300000000 1.0
C      1  0.4399610000000  0.5484130000000  0.5914200000000 1.0
C      1  0.5124980000000  0.5464410000000  0.6056070000000 1.0
C      1  0.4331380000000  0.3811610000000  0.5278150000000 1.0
C      1  0.4661670000000  0.3841830000000  0.5641730000000 1.0
C      1  0.5143810000000  0.3931830000000  0.5663290000000 1.0
C      1  0.5560650000000  0.3941780000000  0.5426300000000 1.0
C      1  0.5698650000000  0.3839400000000  0.4974540000000 1.0
C      1  0.5438480000000  0.3835950000000  0.4557310000000 1.0
C      1  0.5021600000000  0.3880010000000  0.4304490000000 1.0
C      1  0.4539880000000  0.3909540000000  0.4351730000000 1.0
C      1  0.4297480000000  0.3854670000000  0.4768670000000 1.0
C      1  0.4420510000000  0.3919220000000  0.5523760000000 1.0
C      1  0.4880640000000  0.3994120000000  0.5721530000000 1.0
C      1  0.5369750000000  0.4069370000000  0.5580450000000 1.0
C      1  0.5723340000000  0.3990300000000  0.5207480000000 1.0
C      1  0.5629240000000  0.3944660000000  0.4727400000000 1.0
C      1  0.5266850000000  0.3975450000000  0.4390690000000 1.0
C      1  0.4781260000000  0.4011380000000  0.4254450000000 1.0
C      1  0.4360450000000  0.4007280000000  0.4540200000000 1.0
C      1  0.4235400000000  0.3922280000000  0.5036660000000 1.0
C      1  0.4715660000000  0.6027380000000  0.5344940000000 1.0
C      1  0.5002160000000  0.6043020000000  0.5445520000000 1.0
C      1  0.5292900000000  0.6070520000000  0.5347150000000 1.0
C      1  0.5422680000000  0.5963700000000  0.5076770000000 1.0
C      1  0.5405860000000  0.6054300000000  0.4784020000000 1.0
C      1  0.5177890000000  0.5980650000000  0.4612110000000 1.0
C      1  0.4879830000000  0.6024790000000  0.4599470000000 1.0
C      1  0.4657310000000  0.5984300000000  0.4798220000000 1.0
C      1  0.4577330000000  0.6028430000000  0.5082460000000 1.0
C      1  0.4735450000000  0.4799910000000  0.3918110000000 1.0
C      1  0.4032960000000  0.4911580000000  0.4289630000000 1.0
C      1  0.3947070000000  0.4773430000000  0.5153700000000 1.0
C      1  0.4254490000000  0.4782830000000  0.5809300000000 1.0
C      1  0.4939150000000  0.4805320000000  0.6047170000000 1.0
C      1  0.5626150000000  0.4759540000000  0.5739430000000 1.0
C      1  0.6055050000000  0.4919360000000  0.5377610000000 1.0
C      1  0.6142480000000  0.4878960000000  0.4630930000000 1.0
C      1  0.5397270000000  0.4778760000000  0.4049510000000 1.0
C      1  0.5084450000000  0.5602900000000  0.5100210000000 1.0
END
