TITL C-3577090-796-375 2.53247105769165e-07 125000 -206.895069679585 0 0 35 (Cs) n - 1
REM
REM in /home/bkarasulu/work/CARBON/AIRSS/Generating-Clusters/EDIP-Nigel-Params/with-SteepDescent/Higher-Symm/SD-CG/HFTN-CG
REM
REM
REM
REM
REM
REM ./C.cell (12c818d87b63d06a65506943cc24bca4)
REM
REM compiler GCC version 9.2.1 20190827 (Red Hat 9.2.1-1)
REM options -cpp -mtune=generic -march=x86-64 -g -O0 -fpre-include=/usr/include/finclude/math-vector-fortran.h
REM seed -1662899347 308834268 837171296 -1661594637 -2092642513 -452837166 -424570659 -1824306453 -1877745345 -2065684405 1138410948 1880487225 1275401248 630871466 2039713528 -794796884 -74152625 -228684510 -850013709 1919443004 -1751822356 1964117021 -1620680497 1562218540 -1235656100 -1883732882 1364581173 1046211429 -226188143 1454350837 -952823190 1445919016 -761406415
REM
CELL 1.54180   50.00000   50.00000   50.00000   90.00000   90.00000   90.00000
LATT -1
SFAC C  
C      1  0.4788470000000  0.4982790000000  0.5579930000000 1.0
C      1  0.4699860000000  0.5459790000000  0.5389760000000 1.0
C      1  0.4611880000000  0.5596910000000  0.4891760000000 1.0
C      1  0.4638520000000  0.5276210000000  0.4487410000000 1.0
C      1  0.4611700000000  0.4762130000000  0.4442070000000 1.0
C      1  0.4699640000000  0.4421670000000  0.4830530000000 1.0
C      1  0.4788370000000  0.4525270000000  0.5333470000000 1.0
C      1  0.4537180000000  0.4858590000000  0.4699940000000 1.0
C      1  0.4582970000000  0.4666530000000  0.4918710000000 1.0
C      1  0.4647530000000  0.4728940000000  0.5197320000000 1.0
C      1  0.4647590000000  0.4984470000000  0.5334970000000 1.0
C      1  0.4583090000000  0.5251490000000  0.5233820000000 1.0
C      1  0.4537280000000  0.5328520000000  0.4953090000000 1.0
C      1  0.4532940000000  0.5151780000000  0.4718430000000 1.0
C      1  0.4901230000000  0.5314360000000  0.4416470000000 1.0
C      1  0.4884260000000  0.4797980000000  0.4430360000000 1.0
C      1  0.4967900000000  0.4479470000000  0.4806140000000 1.0
C      1  0.5053370000000  0.4572880000000  0.5286530000000 1.0
C      1  0.5053470000000  0.4995700000000  0.5514300000000 1.0
C      1  0.4968120000000  0.5448270000000  0.5328030000000 1.0
C      1  0.4884440000000  0.5586870000000  0.4855320000000 1.0
C      1  0.5507070000000  0.5057090000000  0.5360860000000 1.0
C      1  0.5664500000000  0.5223190000000  0.5200850000000 1.0
C      1  0.5791420000000  0.5168970000000  0.4969610000000 1.0
C      1  0.5791360000000  0.4932150000000  0.4842030000000 1.0
C      1  0.5664380000000  0.4709260000000  0.4924000000000 1.0
C      1  0.5506980000000  0.4667070000000  0.5150760000000 1.0
C      1  0.5610240000000  0.4794600000000  0.5381040000000 1.0
C      1  0.5218780000000  0.5032300000000  0.5279260000000 1.0
C      1  0.5117240000000  0.5288490000000  0.5149390000000 1.0
C      1  0.5058870000000  0.5364730000000  0.4872530000000 1.0
C      1  0.5054740000000  0.5200320000000  0.4628120000000 1.0
C      1  0.5058770000000  0.4905770000000  0.4625290000000 1.0
C      1  0.5117120000000  0.4716490000000  0.4841260000000 1.0
C      1  0.5218710000000  0.4748950000000  0.5126630000000 1.0
END
