TITL C-3577078-809-265 -5.17218786304912e-07 125000 -587.853870686433 0 0 95 (C1) n - 1
REM
REM in /home/bkarasulu/work/CARBON/AIRSS/Generating-Clusters/EDIP-Nigel-Params/with-SteepDescent/Higher-Symm/SD-CG/HFTN-CG
REM
REM
REM
REM
REM
REM ./C.cell (12c818d87b63d06a65506943cc24bca4)
REM
REM compiler GCC version 9.2.1 20190827 (Red Hat 9.2.1-1)
REM options -cpp -mtune=generic -march=x86-64 -g -O0 -fpre-include=/usr/include/finclude/math-vector-fortran.h
REM seed -108576978 -420968727 1677905266 2067707259 93358953 -898483504 -1021772443 2103044808 -467703257 -1968698714 1722073963 -2003450032 2027771015 -1456352580 -352257021 1010890936 -1441752259 -2041813444 -1773890581 502477174 -1688738489 -509075386 1407925737 1628553915 -1916937008 -778675712 785413665 1928375416 -1035821296 1908860392 -932509370 -1942587486 -974450027
REM
CELL 1.54180   50.00000   50.00000   50.00000   90.00000   90.00000   90.00000
LATT -1
SFAC C  
C      1  0.5343610000000  0.4887730000000  0.5048110000000 1.0
C      1  0.4180910000000  0.5317300000000  0.4996820000000 1.0
C      1  0.5183250000000  0.4619340000000  0.5036850000000 1.0
C      1  0.4980440000000  0.5778950000000  0.4998980000000 1.0
C      1  0.5167290000000  0.5266950000000  0.4268420000000 1.0
C      1  0.4199190000000  0.5242990000000  0.4602690000000 1.0
C      1  0.5169330000000  0.4749460000000  0.4594210000000 1.0
C      1  0.5103680000000  0.5168200000000  0.4729660000000 1.0
C      1  0.4949250000000  0.5768710000000  0.4713860000000 1.0
C      1  0.4498010000000  0.4675170000000  0.4748320000000 1.0
C      1  0.4458470000000  0.5598700000000  0.4655010000000 1.0
C      1  0.5094440000000  0.5573130000000  0.5438320000000 1.0
C      1  0.5226210000000  0.5351740000000  0.4922970000000 1.0
C      1  0.4495180000000  0.5657940000000  0.5138860000000 1.0
C      1  0.4752840000000  0.5813360000000  0.5185190000000 1.0
C      1  0.5394790000000  0.4881820000000  0.5799890000000 1.0
C      1  0.5713740000000  0.4535570000000  0.4965360000000 1.0
C      1  0.5747370000000  0.4752060000000  0.5128720000000 1.0
C      1  0.4420760000000  0.5094160000000  0.4715360000000 1.0
C      1  0.4626730000000  0.5450130000000  0.4142270000000 1.0
C      1  0.4278370000000  0.4836280000000  0.5220330000000 1.0
C      1  0.5725820000000  0.5146160000000  0.4731950000000 1.0
C      1  0.4434790000000  0.4468230000000  0.4963560000000 1.0
C      1  0.5284670000000  0.4364810000000  0.4319190000000 1.0
C      1  0.4919590000000  0.4468140000000  0.5683690000000 1.0
C      1  0.4268190000000  0.5270390000000  0.5302160000000 1.0
C      1  0.4776670000000  0.4340180000000  0.4504960000000 1.0
C      1  0.5299530000000  0.5779190000000  0.5357200000000 1.0
C      1  0.4796800000000  0.4311910000000  0.5215880000000 1.0
C      1  0.4826220000000  0.4715390000000  0.5824080000000 1.0
C      1  0.5541420000000  0.5626890000000  0.5289450000000 1.0
C      1  0.5571240000000  0.5196530000000  0.4984930000000 1.0
C      1  0.4488030000000  0.5213770000000  0.4188550000000 1.0
C      1  0.4248990000000  0.5235970000000  0.4331730000000 1.0
C      1  0.4650990000000  0.5291600000000  0.4801180000000 1.0
C      1  0.5088930000000  0.4936760000000  0.5801680000000 1.0
C      1  0.5106140000000  0.4220840000000  0.4873390000000 1.0
C      1  0.5510670000000  0.4339100000000  0.4562050000000 1.0
C      1  0.5105300000000  0.4563410000000  0.5464750000000 1.0
C      1  0.5415590000000  0.5170480000000  0.4416360000000 1.0
C      1  0.5490950000000  0.5744360000000  0.4961230000000 1.0
C      1  0.5666590000000  0.5167720000000  0.5267200000000 1.0
C      1  0.4948870000000  0.5081830000000  0.4256360000000 1.0
C      1  0.5241290000000  0.5877260000000  0.5085240000000 1.0
C      1  0.5543500000000  0.4901180000000  0.4336310000000 1.0
C      1  0.5214540000000  0.4199880000000  0.5380050000000 1.0
C      1  0.5014330000000  0.4589280000000  0.4780220000000 1.0
C      1  0.5305480000000  0.4967300000000  0.4728920000000 1.0
C      1  0.4677570000000  0.5007790000000  0.4262330000000 1.0
C      1  0.5586780000000  0.5369240000000  0.4577500000000 1.0
C      1  0.5056660000000  0.5329970000000  0.5193690000000 1.0
C      1  0.5493680000000  0.4756090000000  0.5548370000000 1.0
C      1  0.5678730000000  0.4584780000000  0.4682190000000 1.0
C      1  0.4797330000000  0.5606840000000  0.4299710000000 1.0
C      1  0.5474900000000  0.4286360000000  0.5332640000000 1.0
C      1  0.5393160000000  0.5552090000000  0.4746480000000 1.0
C      1  0.5521280000000  0.5124670000000  0.5844660000000 1.0
C      1  0.5485130000000  0.4372990000000  0.5046530000000 1.0
C      1  0.5470680000000  0.5359260000000  0.5704040000000 1.0
C      1  0.5395920000000  0.4204950000000  0.4813250000000 1.0
C      1  0.4417410000000  0.4596070000000  0.5227110000000 1.0
C      1  0.5191800000000  0.5693480000000  0.4564210000000 1.0
C      1  0.4915510000000  0.4602760000000  0.5201690000000 1.0
C      1  0.5707600000000  0.4871020000000  0.4579060000000 1.0
C      1  0.4652450000000  0.5485840000000  0.5537260000000 1.0
C      1  0.5667630000000  0.4892410000000  0.5351710000000 1.0
C      1  0.4493600000000  0.4529850000000  0.5500920000000 1.0
C      1  0.4828240000000  0.5072350000000  0.4660720000000 1.0
C      1  0.4723150000000  0.5658440000000  0.4572550000000 1.0
C      1  0.4830780000000  0.5714110000000  0.5464080000000 1.0
C      1  0.4768820000000  0.4802420000000  0.4832900000000 1.0
C      1  0.4754930000000  0.4172670000000  0.4735320000000 1.0
C      1  0.4578560000000  0.4554480000000  0.4483660000000 1.0
C      1  0.5009510000000  0.4312270000000  0.4348160000000 1.0
C      1  0.4785370000000  0.5236500000000  0.5610110000000 1.0
C      1  0.4606060000000  0.4739930000000  0.4280360000000 1.0
C      1  0.5357430000000  0.4653580000000  0.4397310000000 1.0
C      1  0.5002160000000  0.5235030000000  0.5804530000000 1.0
C      1  0.4613060000000  0.4244070000000  0.4982500000000 1.0
C      1  0.4302050000000  0.4950210000000  0.4953360000000 1.0
C      1  0.5491470000000  0.5352540000000  0.5405090000000 1.0
C      1  0.4735810000000  0.5245600000000  0.5108890000000 1.0
C      1  0.4571610000000  0.4790340000000  0.5639740000000 1.0
C      1  0.5186860000000  0.5448320000000  0.5712150000000 1.0
C      1  0.5073050000000  0.4895710000000  0.5492470000000 1.0
C      1  0.5091550000000  0.5555730000000  0.4310900000000 1.0
C      1  0.4700780000000  0.4924580000000  0.5141310000000 1.0
C      1  0.5233300000000  0.5082720000000  0.5285540000000 1.0
C      1  0.4314710000000  0.5010720000000  0.5442300000000 1.0
C      1  0.4328680000000  0.5574790000000  0.4908560000000 1.0
C      1  0.4529540000000  0.5408830000000  0.5284830000000 1.0
C      1  0.4765730000000  0.4966310000000  0.5461640000000 1.0
C      1  0.5038060000000  0.4152750000000  0.5162600000000 1.0
C      1  0.5524920000000  0.4480000000000  0.5527480000000 1.0
C      1  0.4707040000000  0.4330280000000  0.5515130000000 1.0
END
