TITL C-3578207-9274-765 -9.21201370248205e-07 125000 -1088.78251529008 0 0 171 (C1) n - 1
REM
REM in /home/bkarasulu/work/CARBON/AIRSS/Generating-Clusters/EDIP-Nigel-Params/with-SteepDescent/Higher-Symm/SD-CG/HFTN-CG
REM
REM
REM
REM
REM
REM ./C.cell (12c818d87b63d06a65506943cc24bca4)
REM
REM compiler GCC version 9.2.1 20190827 (Red Hat 9.2.1-1)
REM options -cpp -mtune=generic -march=x86-64 -g -O0 -fpre-include=/usr/include/finclude/math-vector-fortran.h
REM seed -1375490606 668715732 604558570 -2000491536 355682681 741869903 -1488112629 -1398793755 -842752690 -1194680103 719897808 911031164 1816616549 -1772935019 859251625 318581977 -95476336 -252620199 -1413194876 -1230315679 -1808484609 -1507015717 -8056681 -135656903 -1111225670 1547610220 1619483609 -277443202 -1263900067 2087758940 -1416907485 -10545105 -1384612743
REM
CELL 1.54180   50.00000   50.00000   50.00000   90.00000   90.00000   90.00000
LATT -1
SFAC C  
C      1  0.5354540000000  0.4528690000000  0.4521590000000 1.0
C      1  0.4628440000000  0.5527570000000  0.4526250000000 1.0
C      1  0.4752040000000  0.5981240000000  0.5108530000000 1.0
C      1  0.5242170000000  0.4040730000000  0.5102810000000 1.0
C      1  0.4642370000000  0.5950920000000  0.4484690000000 1.0
C      1  0.5344420000000  0.4009210000000  0.4478830000000 1.0
C      1  0.4019860000000  0.4746870000000  0.4744010000000 1.0
C      1  0.5943070000000  0.5245700000000  0.4791610000000 1.0
C      1  0.4160990000000  0.4514980000000  0.4578730000000 1.0
C      1  0.5791290000000  0.5458680000000  0.4630500000000 1.0
C      1  0.5114710000000  0.4091430000000  0.4336030000000 1.0
C      1  0.4872410000000  0.5858810000000  0.4363670000000 1.0
C      1  0.4120980000000  0.5533070000000  0.4800380000000 1.0
C      1  0.5834460000000  0.4466540000000  0.4840970000000 1.0
C      1  0.5847210000000  0.5157850000000  0.4176050000000 1.0
C      1  0.4151280000000  0.4849610000000  0.4135110000000 1.0
C      1  0.4159970000000  0.5449700000000  0.5570790000000 1.0
C      1  0.6115940000000  0.4645690000000  0.5731300000000 1.0
C      1  0.4863840000000  0.5114530000000  0.4726190000000 1.0
C      1  0.5107490000000  0.4905100000000  0.4716880000000 1.0
C      1  0.4734070000000  0.4943390000000  0.6093850000000 1.0
C      1  0.5329150000000  0.5043360000000  0.6081110000000 1.0
C      1  0.5849000000000  0.4965380000000  0.4707250000000 1.0
C      1  0.4135540000000  0.5027690000000  0.4666190000000 1.0
C      1  0.4931650000000  0.5905920000000  0.5336720000000 1.0
C      1  0.5052950000000  0.4116800000000  0.5316230000000 1.0
C      1  0.4443630000000  0.5240250000000  0.4927170000000 1.0
C      1  0.5499500000000  0.4775470000000  0.4973050000000 1.0
C      1  0.5348980000000  0.5309090000000  0.5186440000000 1.0
C      1  0.4582350000000  0.4749000000000  0.5067010000000 1.0
C      1  0.4634810000000  0.4883940000000  0.4138160000000 1.0
C      1  0.5367800000000  0.5122900000000  0.4138470000000 1.0
C      1  0.4590040000000  0.4996410000000  0.4829300000000 1.0
C      1  0.5409100000000  0.5025250000000  0.4826920000000 1.0
C      1  0.5130930000000  0.5873120000000  0.4500830000000 1.0
C      1  0.4851370000000  0.4090580000000  0.4472820000000 1.0
C      1  0.5992180000000  0.4799770000000  0.4494770000000 1.0
C      1  0.4000200000000  0.5198330000000  0.4449850000000 1.0
C      1  0.5341470000000  0.4918020000000  0.3904050000000 1.0
C      1  0.4666570000000  0.5080990000000  0.3902480000000 1.0
C      1  0.5728050000000  0.5760480000000  0.5184430000000 1.0
C      1  0.4250720000000  0.4234780000000  0.5152310000000 1.0
C      1  0.5896630000000  0.4972240000000  0.5460310000000 1.0
C      1  0.4112950000000  0.5036590000000  0.5371530000000 1.0
C      1  0.4501830000000  0.5831270000000  0.5108230000000 1.0
C      1  0.5497800000000  0.4179900000000  0.5119700000000 1.0
C      1  0.4834040000000  0.6003700000000  0.5593690000000 1.0
C      1  0.5164830000000  0.4017540000000  0.5573070000000 1.0
C      1  0.5633130000000  0.4742370000000  0.4218370000000 1.0
C      1  0.4369250000000  0.5262690000000  0.4206710000000 1.0
C      1  0.4465290000000  0.4907850000000  0.5952930000000 1.0
C      1  0.5562720000000  0.5088620000000  0.5908870000000 1.0
C      1  0.5099780000000  0.4675730000000  0.5161050000000 1.0
C      1  0.4835520000000  0.5312750000000  0.5211530000000 1.0
C      1  0.5054560000000  0.4860390000000  0.3900520000000 1.0
C      1  0.4952470000000  0.5136340000000  0.3904100000000 1.0
C      1  0.4332860000000  0.5412350000000  0.5310550000000 1.0
C      1  0.5725440000000  0.4546460000000  0.5479740000000 1.0
C      1  0.5898360000000  0.4883330000000  0.4221190000000 1.0
C      1  0.4106130000000  0.5121940000000  0.4184040000000 1.0
C      1  0.4629770000000  0.4206890000000  0.5462150000000 1.0
C      1  0.5371780000000  0.5813720000000  0.5502320000000 1.0
C      1  0.5292200000000  0.5466790000000  0.5856520000000 1.0
C      1  0.4734190000000  0.4588080000000  0.5778230000000 1.0
C      1  0.5350320000000  0.4770070000000  0.5237070000000 1.0
C      1  0.4590820000000  0.5190930000000  0.5340290000000 1.0
C      1  0.5566400000000  0.4300460000000  0.5379430000000 1.0
C      1  0.4473150000000  0.5673870000000  0.5346560000000 1.0
C      1  0.4859710000000  0.4444910000000  0.4830900000000 1.0
C      1  0.5090900000000  0.5551570000000  0.4864980000000 1.0
C      1  0.4314600000000  0.4615960000000  0.5490930000000 1.0
C      1  0.5697210000000  0.5427190000000  0.5542770000000 1.0
C      1  0.5885740000000  0.4518120000000  0.4551850000000 1.0
C      1  0.4087380000000  0.5486920000000  0.4508760000000 1.0
C      1  0.4423260000000  0.4953210000000  0.4590360000000 1.0
C      1  0.5576090000000  0.5036760000000  0.4595620000000 1.0
C      1  0.4766120000000  0.4036700000000  0.5266740000000 1.0
C      1  0.5224860000000  0.5965750000000  0.5295070000000 1.0
C      1  0.5113880000000  0.5518370000000  0.4171280000000 1.0
C      1  0.4884780000000  0.4473030000000  0.4168370000000 1.0
C      1  0.5400930000000  0.4558350000000  0.5989880000000 1.0
C      1  0.4704450000000  0.5454390000000  0.6013310000000 1.0
C      1  0.4941550000000  0.4489080000000  0.5321140000000 1.0
C      1  0.4990190000000  0.5524000000000  0.5359960000000 1.0
C      1  0.5375950000000  0.5218780000000  0.5462980000000 1.0
C      1  0.4585200000000  0.4858760000000  0.5351490000000 1.0
C      1  0.5036790000000  0.4199540000000  0.5786910000000 1.0
C      1  0.4952620000000  0.5830940000000  0.5795500000000 1.0
C      1  0.5801390000000  0.4741370000000  0.4973480000000 1.0
C      1  0.4157690000000  0.5249610000000  0.4899300000000 1.0
C      1  0.5892680000000  0.5251280000000  0.5375510000000 1.0
C      1  0.4081360000000  0.4756270000000  0.5327540000000 1.0
C      1  0.5129140000000  0.3957580000000  0.4860560000000 1.0
C      1  0.4872130000000  0.6074480000000  0.4872720000000 1.0
C      1  0.5208110000000  0.5558970000000  0.5145310000000 1.0
C      1  0.4726750000000  0.4443800000000  0.5099810000000 1.0
C      1  0.5202710000000  0.4774130000000  0.6054760000000 1.0
C      1  0.4878920000000  0.5204250000000  0.6007550000000 1.0
C      1  0.4903180000000  0.4712800000000  0.6032480000000 1.0
C      1  0.5159760000000  0.5282440000000  0.6078670000000 1.0
C      1  0.5793440000000  0.4914550000000  0.5947930000000 1.0
C      1  0.4415940000000  0.5158270000000  0.5796860000000 1.0
C      1  0.5440390000000  0.4180250000000  0.5613350000000 1.0
C      1  0.4539930000000  0.5755000000000  0.5636330000000 1.0
C      1  0.5389960000000  0.4388960000000  0.4019550000000 1.0
C      1  0.4609810000000  0.5605720000000  0.4001680000000 1.0
C      1  0.4770980000000  0.5605960000000  0.5773550000000 1.0
C      1  0.5290020000000  0.4379690000000  0.5786690000000 1.0
C      1  0.5507970000000  0.4672660000000  0.3955130000000 1.0
C      1  0.4497160000000  0.5325180000000  0.3943130000000 1.0
C      1  0.5121510000000  0.5984820000000  0.4779100000000 1.0
C      1  0.4871560000000  0.4007020000000  0.4759140000000 1.0
C      1  0.5243390000000  0.5759360000000  0.5766940000000 1.0
C      1  0.4781470000000  0.4309750000000  0.5695380000000 1.0
C      1  0.5312720000000  0.5907750000000  0.5005000000000 1.0
C      1  0.4669790000000  0.4075960000000  0.4976780000000 1.0
C      1  0.4387500000000  0.4428300000000  0.4755580000000 1.0
C      1  0.5548740000000  0.5507520000000  0.4800880000000 1.0
C      1  0.5536340000000  0.5262980000000  0.4981030000000 1.0
C      1  0.4332310000000  0.4585540000000  0.5008640000000 1.0
C      1  0.5573520000000  0.5768440000000  0.4953840000000 1.0
C      1  0.4385100000000  0.4159500000000  0.4905830000000 1.0
C      1  0.4388260000000  0.4699770000000  0.4119920000000 1.0
C      1  0.5611780000000  0.5310870000000  0.4142060000000 1.0
C      1  0.5638780000000  0.5704120000000  0.5441960000000 1.0
C      1  0.4391810000000  0.4348590000000  0.5373660000000 1.0
C      1  0.4382700000000  0.5726710000000  0.4138980000000 1.0
C      1  0.5608930000000  0.4274940000000  0.4174880000000 1.0
C      1  0.5578870000000  0.4293650000000  0.4859140000000 1.0
C      1  0.4379240000000  0.5710920000000  0.4857580000000 1.0
C      1  0.4589980000000  0.5489990000000  0.4832810000000 1.0
C      1  0.5367990000000  0.4514560000000  0.4812230000000 1.0
C      1  0.4560460000000  0.5080540000000  0.4355600000000 1.0
C      1  0.5440430000000  0.4931010000000  0.4354820000000 1.0
C      1  0.4303150000000  0.5610680000000  0.5784590000000 1.0
C      1  0.5880960000000  0.4486940000000  0.5739050000000 1.0
C      1  0.4443570000000  0.4657330000000  0.5784790000000 1.0
C      1  0.5580430000000  0.5366750000000  0.5819900000000 1.0
C      1  0.4426590000000  0.5877240000000  0.4629600000000 1.0
C      1  0.5540440000000  0.4099060000000  0.4647100000000 1.0
C      1  0.5287920000000  0.5486070000000  0.4655830000000 1.0
C      1  0.4658610000000  0.4501400000000  0.4636030000000 1.0
C      1  0.4827400000000  0.4714880000000  0.5514530000000 1.0
C      1  0.5137720000000  0.5362230000000  0.5599230000000 1.0
C      1  0.5071850000000  0.5234330000000  0.4169740000000 1.0
C      1  0.4925630000000  0.4760480000000  0.4162990000000 1.0
C      1  0.5329330000000  0.4909000000000  0.5495920000000 1.0
C      1  0.4931520000000  0.5159550000000  0.5703850000000 1.0
C      1  0.4679990000000  0.4359870000000  0.4369830000000 1.0
C      1  0.5298110000000  0.5626740000000  0.4393030000000 1.0
C      1  0.5626530000000  0.4492020000000  0.4381520000000 1.0
C      1  0.4356170000000  0.5522860000000  0.4357480000000 1.0
C      1  0.4155270000000  0.5161910000000  0.5633470000000 1.0
C      1  0.6002630000000  0.4910900000000  0.5732260000000 1.0
C      1  0.4651500000000  0.5208310000000  0.5616070000000 1.0
C      1  0.5527760000000  0.4727950000000  0.5662830000000 1.0
C      1  0.4870160000000  0.5364470000000  0.4918030000000 1.0
C      1  0.5080380000000  0.4632460000000  0.4877400000000 1.0
C      1  0.4414970000000  0.5401670000000  0.5975270000000 1.0
C      1  0.5724300000000  0.4617620000000  0.5976440000000 1.0
C      1  0.5906850000000  0.5284680000000  0.5085220000000 1.0
C      1  0.3972510000000  0.4702760000000  0.5045240000000 1.0
C      1  0.4384680000000  0.4464320000000  0.4294890000000 1.0
C      1  0.5589560000000  0.5534650000000  0.4330890000000 1.0
C      1  0.4798740000000  0.5248000000000  0.4448520000000 1.0
C      1  0.5190780000000  0.4780230000000  0.4442060000000 1.0
C      1  0.5883680000000  0.4734160000000  0.5276310000000 1.0
C      1  0.4031180000000  0.5218010000000  0.5164920000000 1.0
C      1  0.5140780000000  0.4339190000000  0.4184420000000 1.0
C      1  0.4856000000000  0.5644640000000  0.4173110000000 1.0
C      1  0.5040840000000  0.4901150000000  0.5600270000000 1.0
END
