TITL C-3577076-40-329 1.92474343695757e-06 125000 -489.326827976885 0 0 81 (C1) n - 1
REM
REM in /home/bkarasulu/work/CARBON/AIRSS/Generating-Clusters/EDIP-Nigel-Params/with-SteepDescent/Higher-Symm/SD-CG/HFTN-CG
REM
REM
REM
REM
REM
REM ./C.cell (12c818d87b63d06a65506943cc24bca4)
REM
REM compiler GCC version 9.2.1 20190827 (Red Hat 9.2.1-1)
REM options -cpp -mtune=generic -march=x86-64 -g -O0 -fpre-include=/usr/include/finclude/math-vector-fortran.h
REM seed 1692772085 -1202384346 -349333068 -549969502 94161955 371815489 1100289051 -987731410 -276067447 1225044490 -1158409798 -1679512174 1023582230 2147262629 -545605068 120693627 -172764528 308271901 -507781443 597136433 1003634931 -1036091033 1989967267 -2114433390 2019759247 1512984945 -350978044 402886426 -256156417 863850915 1313993794 1308175741 -1054981387
REM
CELL 1.54180   50.00000   50.00000   50.00000   90.00000   90.00000   90.00000
LATT -1
SFAC C  
C      1  0.5555520000000  0.4700090000000  0.5652490000000 1.0
C      1  0.4935500000000  0.5706080000000  0.5656160000000 1.0
C      1  0.4547010000000  0.4606030000000  0.5644970000000 1.0
C      1  0.5586210000000  0.4759630000000  0.4338660000000 1.0
C      1  0.4971270000000  0.5581450000000  0.4333980000000 1.0
C      1  0.4510780000000  0.4686630000000  0.4353210000000 1.0
C      1  0.5571040000000  0.5211690000000  0.5687460000000 1.0
C      1  0.4997800000000  0.4387010000000  0.5647900000000 1.0
C      1  0.4465540000000  0.5488890000000  0.5673160000000 1.0
C      1  0.5564420000000  0.5256710000000  0.4342650000000 1.0
C      1  0.4950290000000  0.4418940000000  0.4311050000000 1.0
C      1  0.4527550000000  0.5327150000000  0.4348220000000 1.0
C      1  0.5337560000000  0.4724020000000  0.4735260000000 1.0
C      1  0.5097800000000  0.5394210000000  0.4764970000000 1.0
C      1  0.4648470000000  0.4852680000000  0.4809830000000 1.0
C      1  0.5329220000000  0.4748610000000  0.5206880000000 1.0
C      1  0.5048620000000  0.5424290000000  0.5255280000000 1.0
C      1  0.4630960000000  0.4895940000000  0.5286670000000 1.0
C      1  0.5347780000000  0.5252110000000  0.4786860000000 1.0
C      1  0.5088290000000  0.4589490000000  0.4744630000000 1.0
C      1  0.4636210000000  0.5161460000000  0.4813490000000 1.0
C      1  0.5323770000000  0.5260200000000  0.5262310000000 1.0
C      1  0.5051170000000  0.4586990000000  0.5189070000000 1.0
C      1  0.4596440000000  0.5202780000000  0.5281570000000 1.0
C      1  0.5551420000000  0.4554130000000  0.5128810000000 1.0
C      1  0.5092370000000  0.5704360000000  0.5143400000000 1.0
C      1  0.4374250000000  0.4767430000000  0.5193030000000 1.0
C      1  0.5564120000000  0.4564700000000  0.4835940000000 1.0
C      1  0.5089770000000  0.5672780000000  0.4849300000000 1.0
C      1  0.4362420000000  0.4786450000000  0.4891400000000 1.0
C      1  0.5560280000000  0.5447130000000  0.5181550000000 1.0
C      1  0.5128370000000  0.4297320000000  0.5125830000000 1.0
C      1  0.4318120000000  0.5263080000000  0.5170950000000 1.0
C      1  0.5566390000000  0.5456690000000  0.4877170000000 1.0
C      1  0.5114390000000  0.4307100000000  0.4826480000000 1.0
C      1  0.4342370000000  0.5229220000000  0.4873800000000 1.0
C      1  0.4330690000000  0.5620670000000  0.5479470000000 1.0
C      1  0.4864260000000  0.4209520000000  0.5493850000000 1.0
C      1  0.5787990000000  0.5211550000000  0.5524370000000 1.0
C      1  0.4401630000000  0.5507760000000  0.4503960000000 1.0
C      1  0.4815790000000  0.4247320000000  0.4472300000000 1.0
C      1  0.5771760000000  0.5235170000000  0.4516880000000 1.0
C      1  0.4388500000000  0.4414120000000  0.5540820000000 1.0
C      1  0.4805960000000  0.5870270000000  0.5481170000000 1.0
C      1  0.5776170000000  0.4724640000000  0.5497500000000 1.0
C      1  0.4393820000000  0.4507820000000  0.4516760000000 1.0
C      1  0.4804420000000  0.5735030000000  0.4485430000000 1.0
C      1  0.5811090000000  0.4774670000000  0.4493560000000 1.0
C      1  0.5354490000000  0.5123280000000  0.5531420000000 1.0
C      1  0.4661860000000  0.5331670000000  0.5546070000000 1.0
C      1  0.4999340000000  0.4633510000000  0.5498620000000 1.0
C      1  0.5340250000000  0.5146690000000  0.4486350000000 1.0
C      1  0.4725230000000  0.5201770000000  0.4513250000000 1.0
C      1  0.4989610000000  0.4658350000000  0.4468010000000 1.0
C      1  0.5338220000000  0.4824940000000  0.5511270000000 1.0
C      1  0.4738660000000  0.4777960000000  0.5536890000000 1.0
C      1  0.4930200000000  0.5448860000000  0.5536880000000 1.0
C      1  0.5337220000000  0.4840110000000  0.4461690000000 1.0
C      1  0.4721920000000  0.4806580000000  0.4504890000000 1.0
C      1  0.4997830000000  0.5337480000000  0.4488440000000 1.0
C      1  0.4273600000000  0.5489390000000  0.4751970000000 1.0
C      1  0.4871010000000  0.4164310000000  0.4733800000000 1.0
C      1  0.5791690000000  0.5278430000000  0.4791500000000 1.0
C      1  0.4237650000000  0.5543390000000  0.5226730000000 1.0
C      1  0.4899260000000  0.4139800000000  0.5226960000000 1.0
C      1  0.5794420000000  0.5270970000000  0.5251760000000 1.0
C      1  0.4306500000000  0.4519000000000  0.4780190000000 1.0
C      1  0.4826080000000  0.5774260000000  0.4762690000000 1.0
C      1  0.5830680000000  0.4659840000000  0.4751900000000 1.0
C      1  0.4335840000000  0.4484090000000  0.5272890000000 1.0
C      1  0.4831830000000  0.5842220000000  0.5203540000000 1.0
C      1  0.5814650000000  0.4629090000000  0.5236800000000 1.0
C      1  0.4362620000000  0.5662770000000  0.4981430000000 1.0
C      1  0.4436200000000  0.4369220000000  0.5012050000000 1.0
C      1  0.5726740000000  0.5068560000000  0.5019800000000 1.0
C      1  0.4716000000000  0.4217880000000  0.4991890000000 1.0
C      1  0.5895790000000  0.4808920000000  0.5007900000000 1.0
C      1  0.4672360000000  0.5642670000000  0.5006920000000 1.0
C      1  0.4748380000000  0.4603950000000  0.5023610000000 1.0
C      1  0.4781390000000  0.5332510000000  0.5067320000000 1.0
C      1  0.5376930000000  0.5035570000000  0.5044950000000 1.0
END
