TITL C-3577091-527-120 -6.68417023146373e-07 125000 -521.443864575612 0 0 83 (C1) n - 1
REM
REM in /home/bkarasulu/work/CARBON/AIRSS/Generating-Clusters/EDIP-Nigel-Params/with-SteepDescent/Higher-Symm/SD-CG/HFTN-CG
REM
REM
REM
REM
REM
REM ./C.cell (12c818d87b63d06a65506943cc24bca4)
REM
REM compiler GCC version 9.2.1 20190827 (Red Hat 9.2.1-1)
REM options -cpp -mtune=generic -march=x86-64 -g -O0 -fpre-include=/usr/include/finclude/math-vector-fortran.h
REM seed -1438639892 1797455439 -668212833 -170740862 1414791322 -253869202 1330725869 630689737 -1572283119 -1631031980 -1015725971 695403654 -940912068 1894226960 240335809 -115541309 1477782372 1855877009 -2101180052 829338045 -943569470 1367508961 -700732684 -315621527 -118150202 -1844097821 -2051986419 1265892030 -883761269 2141304674 135604067 2002857550 516666291
REM
CELL 1.54180   50.00000   50.00000   50.00000   90.00000   90.00000   90.00000
LATT -1
SFAC C  
C      1  0.5007770000000  0.5248240000000  0.5662110000000 1.0
C      1  0.5006030000000  0.5429950000000  0.4478220000000 1.0
C      1  0.5028600000000  0.4288240000000  0.4879360000000 1.0
C      1  0.4590390000000  0.4753050000000  0.4577000000000 1.0
C      1  0.4595200000000  0.4789050000000  0.5358540000000 1.0
C      1  0.4581790000000  0.5477960000000  0.5012960000000 1.0
C      1  0.4624960000000  0.4303260000000  0.5509230000000 1.0
C      1  0.4603710000000  0.5807280000000  0.5382610000000 1.0
C      1  0.4605660000000  0.4931440000000  0.4113970000000 1.0
C      1  0.4862410000000  0.4609270000000  0.4618000000000 1.0
C      1  0.4855950000000  0.4849710000000  0.5516530000000 1.0
C      1  0.4851860000000  0.5549410000000  0.4876580000000 1.0
C      1  0.4401980000000  0.4991590000000  0.5451770000000 1.0
C      1  0.4403340000000  0.5416610000000  0.4782980000000 1.0
C      1  0.4405860000000  0.4592270000000  0.4741600000000 1.0
C      1  0.4438870000000  0.4843850000000  0.4326410000000 1.0
C      1  0.4464110000000  0.4528620000000  0.5443410000000 1.0
C      1  0.4437710000000  0.5665150000000  0.5201920000000 1.0
C      1  0.5410980000000  0.4401920000000  0.5309770000000 1.0
C      1  0.5401980000000  0.5554480000000  0.5345090000000 1.0
C      1  0.5384310000000  0.5014330000000  0.4362330000000 1.0
C      1  0.5060620000000  0.4651000000000  0.4408250000000 1.0
C      1  0.5052230000000  0.4629040000000  0.5584400000000 1.0
C      1  0.5064340000000  0.5702190000000  0.5015610000000 1.0
C      1  0.4511610000000  0.5527580000000  0.4530870000000 1.0
C      1  0.4520270000000  0.4318040000000  0.4783020000000 1.0
C      1  0.4513610000000  0.5148780000000  0.5676460000000 1.0
C      1  0.5309670000000  0.4785520000000  0.5622690000000 1.0
C      1  0.5312560000000  0.5637650000000  0.4859960000000 1.0
C      1  0.5312930000000  0.4551790000000  0.4531580000000 1.0
C      1  0.5762980000000  0.5464150000000  0.5020860000000 1.0
C      1  0.5757200000000  0.4787200000000  0.4584130000000 1.0
C      1  0.5765320000000  0.4742750000000  0.5392670000000 1.0
C      1  0.4938140000000  0.4328890000000  0.5150190000000 1.0
C      1  0.4887790000000  0.5415450000000  0.5438190000000 1.0
C      1  0.4874440000000  0.5160010000000  0.4442220000000 1.0
C      1  0.5839070000000  0.4990930000000  0.5286040000000 1.0
C      1  0.5838040000000  0.5249170000000  0.4860170000000 1.0
C      1  0.5837700000000  0.4754620000000  0.4847830000000 1.0
C      1  0.4739530000000  0.5239720000000  0.5174620000000 1.0
C      1  0.4653400000000  0.5017550000000  0.4722520000000 1.0
C      1  0.4732130000000  0.4933400000000  0.5024530000000 1.0
C      1  0.4351150000000  0.4714710000000  0.4997140000000 1.0
C      1  0.4312370000000  0.5160960000000  0.5236580000000 1.0
C      1  0.4369650000000  0.5131320000000  0.4734920000000 1.0
C      1  0.5109840000000  0.5594580000000  0.5297540000000 1.0
C      1  0.5094050000000  0.4947450000000  0.4360400000000 1.0
C      1  0.5126300000000  0.4490010000000  0.5317180000000 1.0
C      1  0.4291580000000  0.5086570000000  0.4436140000000 1.0
C      1  0.4316710000000  0.4489080000000  0.5190950000000 1.0
C      1  0.4292610000000  0.5445450000000  0.5350940000000 1.0
C      1  0.4800750000000  0.5054150000000  0.5729340000000 1.0
C      1  0.4802660000000  0.5612000000000  0.4586950000000 1.0
C      1  0.4812380000000  0.4322390000000  0.4682320000000 1.0
C      1  0.4446240000000  0.5441390000000  0.5616230000000 1.0
C      1  0.4447900000000  0.5319980000000  0.4310700000000 1.0
C      1  0.4456830000000  0.4242890000000  0.5075070000000 1.0
C      1  0.5066340000000  0.4984110000000  0.5310700000000 1.0
C      1  0.5003640000000  0.5241920000000  0.4881720000000 1.0
C      1  0.5000060000000  0.4778270000000  0.4892120000000 1.0
C      1  0.5480100000000  0.4821940000000  0.5097630000000 1.0
C      1  0.5477940000000  0.5166510000000  0.5099210000000 1.0
C      1  0.5470940000000  0.4998870000000  0.4809230000000 1.0
C      1  0.5273670000000  0.5451980000000  0.4610460000000 1.0
C      1  0.5277170000000  0.4437320000000  0.4813960000000 1.0
C      1  0.5280700000000  0.5115660000000  0.5611740000000 1.0
C      1  0.5176080000000  0.4749080000000  0.5151000000000 1.0
C      1  0.5170500000000  0.5238540000000  0.5146660000000 1.0
C      1  0.5153360000000  0.4998530000000  0.4738010000000 1.0
C      1  0.4687680000000  0.5604310000000  0.5561250000000 1.0
C      1  0.4690910000000  0.5185570000000  0.4206540000000 1.0
C      1  0.4697140000000  0.4203890000000  0.5253560000000 1.0
C      1  0.5490980000000  0.5314320000000  0.5501520000000 1.0
C      1  0.5479590000000  0.5270650000000  0.4486460000000 1.0
C      1  0.5497430000000  0.4397920000000  0.5017870000000 1.0
C      1  0.5515260000000  0.4760180000000  0.4445460000000 1.0
C      1  0.5527180000000  0.4622930000000  0.5485650000000 1.0
C      1  0.5522990000000  0.5600670000000  0.5075100000000 1.0
C      1  0.5743890000000  0.5221270000000  0.5415100000000 1.0
C      1  0.5738550000000  0.5244550000000  0.4599240000000 1.0
C      1  0.5749320000000  0.4526090000000  0.4985390000000 1.0
C      1  0.4256950000000  0.4998790000000  0.4987690000000 1.0
C      1  0.5872130000000  0.4998130000000  0.4997850000000 1.0
END
