TITL C-3578203-1966-41 2.61447217278767e-05 125000 -146.676311622908 0 0 26 (C1) n - 1
REM
REM in /home/bkarasulu/work/CARBON/AIRSS/Generating-Clusters/EDIP-Nigel-Params/with-SteepDescent/Higher-Symm/SD-CG/HFTN-CG
REM
REM
REM
REM
REM
REM ./C.cell (12c818d87b63d06a65506943cc24bca4)
REM
REM compiler GCC version 9.2.1 20190827 (Red Hat 9.2.1-1)
REM options -cpp -mtune=generic -march=x86-64 -g -O0 -fpre-include=/usr/include/finclude/math-vector-fortran.h
REM seed 1010868834 15101288 -1411741560 1742698938 -2044243637 -927275274 384472224 -1885226338 1818288293 353455837 -660866546 1959222986 -1813519832 -1611574754 692002687 -967836666 1795490635 -2038412897 936544052 -378277449 -1078334060 -1437356386 -989803359 1129239389 -100313442 1705831976 1579666676 -1983991583 1557923591 -823911698 -792081883 1209191133 -946197461
REM
CELL 1.54180   50.00000   50.00000   50.00000   90.00000   90.00000   90.00000
LATT -1
SFAC C  
C      1  0.4885170000000  0.5426540000000  0.5266680000000 1.0
C      1  0.4653650000000  0.5247630000000  0.5318750000000 1.0
C      1  0.4637530000000  0.5079670000000  0.5546790000000 1.0
C      1  0.4642470000000  0.4823230000000  0.5429310000000 1.0
C      1  0.4766300000000  0.4598890000000  0.5544140000000 1.0
C      1  0.4898650000000  0.4478280000000  0.5318780000000 1.0
C      1  0.5171360000000  0.4607470000000  0.5262940000000 1.0
C      1  0.5157420000000  0.4903300000000  0.5308890000000 1.0
C      1  0.5423180000000  0.5021250000000  0.5348460000000 1.0
C      1  0.5383600000000  0.5287940000000  0.5457390000000 1.0
C      1  0.5155340000000  0.5441390000000  0.5385170000000 1.0
C      1  0.5481960000000  0.5063330000000  0.5053560000000 1.0
C      1  0.5378000000000  0.5361540000000  0.5074580000000 1.0
C      1  0.5155700000000  0.5420740000000  0.4890880000000 1.0
C      1  0.4886370000000  0.5484950000000  0.4978570000000 1.0
C      1  0.4697140000000  0.5293290000000  0.4884840000000 1.0
C      1  0.4575160000000  0.5065520000000  0.5002870000000 1.0
C      1  0.4701320000000  0.4839950000000  0.5146630000000 1.0
C      1  0.4782680000000  0.4565270000000  0.5051760000000 1.0
C      1  0.4974570000000  0.4513260000000  0.4845260000000 1.0
C      1  0.5219420000000  0.4596380000000  0.4968570000000 1.0
C      1  0.5317000000000  0.4867260000000  0.4870060000000 1.0
C      1  0.5059680000000  0.5001290000000  0.4545460000000 1.0
C      1  0.5047500000000  0.5085470000000  0.5038810000000 1.0
C      1  0.4946080000000  0.4948750000000  0.4791190000000 1.0
C      1  0.5120650000000  0.5045480000000  0.4300010000000 1.0
END
