TITL C-3578199-7832-546 -6.80332338723052e-07 125000 -533.997444902409 0 0 86 (Cs) n - 1
REM
REM in /home/bkarasulu/work/CARBON/AIRSS/Generating-Clusters/EDIP-Nigel-Params/with-SteepDescent/Higher-Symm/SD-CG/HFTN-CG
REM
REM
REM
REM
REM
REM ./C.cell (12c818d87b63d06a65506943cc24bca4)
REM
REM compiler GCC version 9.2.1 20190827 (Red Hat 9.2.1-1)
REM options -cpp -mtune=generic -march=x86-64 -g -O0 -fpre-include=/usr/include/finclude/math-vector-fortran.h
REM seed -1328053110 1048065650 -193662736 -1169357597 1567888690 1201318326 1278839817 116785908 -2136580818 -640028260 -1849293795 103674895 1274182395 534737174 -1584982322 -397453357 1424665189 -315782949 -640638690 -1632591914 -1642974294 2073576752 218647366 339628141 1801404050 -301503143 383436735 2026266154 -1098957701 -1497224174 2127108764 -1407001765 542591530
REM
CELL 1.54180   50.00000   50.00000   50.00000   90.00000   90.00000   90.00000
LATT -1
SFAC C  
C      1  0.4286900000000  0.5272650000000  0.4877330000000 1.0
C      1  0.5237220000000  0.5272900000000  0.5667290000000 1.0
C      1  0.5472040000000  0.5275060000000  0.4444590000000 1.0
C      1  0.4286920000000  0.4705040000000  0.4877270000000 1.0
C      1  0.5237240000000  0.4704700000000  0.5667220000000 1.0
C      1  0.5472060000000  0.4702810000000  0.4444520000000 1.0
C      1  0.4726650000000  0.5249230000000  0.5598040000000 1.0
C      1  0.5649710000000  0.5246640000000  0.4930940000000 1.0
C      1  0.4626960000000  0.5248090000000  0.4486140000000 1.0
C      1  0.4726670000000  0.4728340000000  0.5597990000000 1.0
C      1  0.5649730000000  0.4731150000000  0.4930880000000 1.0
C      1  0.4626980000000  0.4729710000000  0.4486090000000 1.0
C      1  0.5640070000000  0.5552190000000  0.4919350000000 1.0
C      1  0.4613170000000  0.5553010000000  0.4494170000000 1.0
C      1  0.4742430000000  0.5556500000000  0.5596620000000 1.0
C      1  0.5640120000000  0.4425590000000  0.4919220000000 1.0
C      1  0.4613210000000  0.4424790000000  0.4494050000000 1.0
C      1  0.4742470000000  0.4421070000000  0.5596500000000 1.0
C      1  0.5561060000000  0.4849010000000  0.4676820000000 1.0
C      1  0.4457620000000  0.4849010000000  0.4694530000000 1.0
C      1  0.4990540000000  0.4848950000000  0.5639820000000 1.0
C      1  0.5561050000000  0.5128830000000  0.4676850000000 1.0
C      1  0.4457610000000  0.5128730000000  0.4694560000000 1.0
C      1  0.4990530000000  0.5128630000000  0.5639850000000 1.0
C      1  0.5149460000000  0.4394110000000  0.4673380000000 1.0
C      1  0.4647070000000  0.4404570000000  0.5044970000000 1.0
C      1  0.5196280000000  0.4402610000000  0.5272750000000 1.0
C      1  0.5149410000000  0.5583690000000  0.4673510000000 1.0
C      1  0.4647020000000  0.5573120000000  0.5045090000000 1.0
C      1  0.5196230000000  0.5575070000000  0.5272870000000 1.0
C      1  0.4772690000000  0.4193220000000  0.4850040000000 1.0
C      1  0.4977490000000  0.4183700000000  0.5268910000000 1.0
C      1  0.5241100000000  0.4183290000000  0.4878780000000 1.0
C      1  0.4772630000000  0.5784510000000  0.4850220000000 1.0
C      1  0.4977430000000  0.5793960000000  0.5269090000000 1.0
C      1  0.5241040000000  0.5794470000000  0.4878960000000 1.0
C      1  0.5622690000000  0.5653580000000  0.4654000000000 1.0
C      1  0.4396970000000  0.5651940000000  0.4650320000000 1.0
C      1  0.4989770000000  0.5654100000000  0.5697050000000 1.0
C      1  0.5622740000000  0.4324260000000  0.4653860000000 1.0
C      1  0.4397020000000  0.4325800000000  0.4650170000000 1.0
C      1  0.4989820000000  0.4323470000000  0.5696900000000 1.0
C      1  0.5121570000000  0.4680160000000  0.5127750000000 1.0
C      1  0.5064980000000  0.4669280000000  0.4792930000000 1.0
C      1  0.4788030000000  0.4685360000000  0.5078950000000 1.0
C      1  0.5121550000000  0.5297540000000  0.5127820000000 1.0
C      1  0.5064950000000  0.5308490000000  0.4793000000000 1.0
C      1  0.4788000000000  0.5292330000000  0.5079020000000 1.0
C      1  0.4543200000000  0.5125530000000  0.4236240000000 1.0
C      1  0.4552010000000  0.5125640000000  0.5795350000000 1.0
C      1  0.5908130000000  0.5125750000000  0.4988350000000 1.0
C      1  0.4543210000000  0.4852320000000  0.4236210000000 1.0
C      1  0.4552020000000  0.4851870000000  0.5795320000000 1.0
C      1  0.5908140000000  0.4852040000000  0.4988320000000 1.0
C      1  0.5459300000000  0.5148410000000  0.5155220000000 1.0
C      1  0.4920950000000  0.5153580000000  0.4532250000000 1.0
C      1  0.4623230000000  0.5152220000000  0.5323180000000 1.0
C      1  0.5459310000000  0.4829310000000  0.5155190000000 1.0
C      1  0.4920960000000  0.4824230000000  0.4532210000000 1.0
C      1  0.4623250000000  0.4825400000000  0.5323150000000 1.0
C      1  0.5615430000000  0.5251570000000  0.5385290000000 1.0
C      1  0.5030750000000  0.5253170000000  0.4274760000000 1.0
C      1  0.4345680000000  0.5254210000000  0.5346030000000 1.0
C      1  0.5615450000000  0.4726110000000  0.5385230000000 1.0
C      1  0.5030770000000  0.4724700000000  0.4274700000000 1.0
C      1  0.4345700000000  0.4723380000000  0.5345980000000 1.0
C      1  0.5281720000000  0.4842300000000  0.4274220000000 1.0
C      1  0.4225500000000  0.4842250000000  0.5126240000000 1.0
C      1  0.5480970000000  0.4843150000000  0.5597060000000 1.0
C      1  0.5281710000000  0.5135590000000  0.4274250000000 1.0
C      1  0.4225490000000  0.5135390000000  0.5126270000000 1.0
C      1  0.5480960000000  0.5134470000000  0.5597090000000 1.0
C      1  0.5405720000000  0.4420640000000  0.4498620000000 1.0
C      1  0.4366540000000  0.4424830000000  0.4913840000000 1.0
C      1  0.5226730000000  0.4426020000000  0.5580360000000 1.0
C      1  0.5405680000000  0.5557210000000  0.4498740000000 1.0
C      1  0.4366500000000  0.5552860000000  0.4913970000000 1.0
C      1  0.5226690000000  0.5551590000000  0.5580480000000 1.0
C      1  0.4863740000000  0.4282550000000  0.4578880000000 1.0
C      1  0.4698610000000  0.4278820000000  0.5332260000000 1.0
C      1  0.5428420000000  0.4288350000000  0.5086670000000 1.0
C      1  0.4863680000000  0.5695250000000  0.4579030000000 1.0
C      1  0.4698550000000  0.5698800000000  0.5332420000000 1.0
C      1  0.5428370000000  0.5689390000000  0.5086820000000 1.0
C      1  0.4995510000000  0.4076580000000  0.4998110000000 1.0
C      1  0.4995440000000  0.5901140000000  0.4998300000000 1.0
END
