TITL C-3577078-809-32 -1.04682777570007e-07 125000 -143.605481030074 0 0 24 (D4h) n - 1
REM
REM in /home/bkarasulu/work/CARBON/AIRSS/Generating-Clusters/EDIP-Nigel-Params/with-SteepDescent/Higher-Symm/SD-CG/HFTN-CG
REM
REM
REM
REM
REM
REM ./C.cell (12c818d87b63d06a65506943cc24bca4)
REM
REM compiler GCC version 9.2.1 20190827 (Red Hat 9.2.1-1)
REM options -cpp -mtune=generic -march=x86-64 -g -O0 -fpre-include=/usr/include/finclude/math-vector-fortran.h
REM seed -897321819 -2136569995 1109624737 640151900 -2027480500 1975342939 1022702773 -826170634 626400935 1923961455 431545122 -2049597759 -492186962 -198236056 -2060750361 1583916327 -340912702 2119663992 1733448047 1404436538 -1355331640 905490983 -129570428 1700889334 187961202 -1151354390 -695407717 726479193 -303637516 3739134 914435504 352417348 -1732493987
REM
CELL 1.54180   50.00000   50.00000   50.00000   90.00000   90.00000   90.00000
LATT -1
SFAC C  
C      1  0.4724980000000  0.4866080000000  0.5473780000000 1.0
C      1  0.4724980000000  0.5133920000000  0.4526220000000 1.0
C      1  0.5275020000000  0.4866080000000  0.5473780000000 1.0
C      1  0.5275020000000  0.5133920000000  0.4526220000000 1.0
C      1  0.4724980000000  0.4866080000000  0.4526220000000 1.0
C      1  0.4724980000000  0.5133920000000  0.5473780000000 1.0
C      1  0.5275020000000  0.4866080000000  0.4526220000000 1.0
C      1  0.5275020000000  0.5133920000000  0.5473780000000 1.0
C      1  0.4724980000000  0.5473780000000  0.5133920000000 1.0
C      1  0.4724980000000  0.4526220000000  0.4866080000000 1.0
C      1  0.5275020000000  0.5473780000000  0.5133920000000 1.0
C      1  0.5275020000000  0.4526220000000  0.4866080000000 1.0
C      1  0.4724980000000  0.5473780000000  0.4866080000000 1.0
C      1  0.4724980000000  0.4526220000000  0.5133920000000 1.0
C      1  0.5275020000000  0.5473780000000  0.4866080000000 1.0
C      1  0.5275020000000  0.4526220000000  0.5133920000000 1.0
C      1  0.5143420000000  0.4669140000000  0.4669140000000 1.0
C      1  0.5143420000000  0.5330860000000  0.5330860000000 1.0
C      1  0.4856580000000  0.4669140000000  0.4669140000000 1.0
C      1  0.4856580000000  0.5330860000000  0.5330860000000 1.0
C      1  0.5143420000000  0.4669140000000  0.5330860000000 1.0
C      1  0.5143420000000  0.5330860000000  0.4669140000000 1.0
C      1  0.4856580000000  0.4669140000000  0.5330860000000 1.0
C      1  0.4856580000000  0.5330860000000  0.4669140000000 1.0
END
