TITL C-3578197-9521-566 2.34725618329239e-07 125000 -1193.56958229287 0 0 190 (C1) n - 1
REM
REM in /home/bkarasulu/work/CARBON/AIRSS/Generating-Clusters/EDIP-Nigel-Params/with-SteepDescent/Higher-Symm/SD-CG/HFTN-CG
REM
REM
REM
REM
REM
REM ./C.cell (12c818d87b63d06a65506943cc24bca4)
REM
REM compiler GCC version 9.2.1 20190827 (Red Hat 9.2.1-1)
REM options -cpp -mtune=generic -march=x86-64 -g -O0 -fpre-include=/usr/include/finclude/math-vector-fortran.h
REM seed -107394356 126627026 1913376901 502697323 -115031108 -1630760150 113172563 -641530019 373316602 -1179794568 -1081493077 -1731986884 -1935453694 1016628514 1403044022 -1860063277 -1310562827 -1875472494 -1371433239 -653329968 -1797286388 -1126767080 2124419011 -212660808 1387281216 1215421517 -186372240 -176232391 1089190771 -385968906 -97328923 1003602209 315997888
REM
CELL 1.54180   50.00000   50.00000   50.00000   90.00000   90.00000   90.00000
LATT -1
SFAC C  
C      1  0.3926630000000  0.5127850000000  0.5034020000000 1.0
C      1  0.3984270000000  0.4925840000000  0.4844380000000 1.0
C      1  0.3917320000000  0.5007620000000  0.5285640000000 1.0
C      1  0.4187750000000  0.4352030000000  0.4703980000000 1.0
C      1  0.4317130000000  0.5064680000000  0.5768920000000 1.0
C      1  0.4259290000000  0.5516200000000  0.4560710000000 1.0
C      1  0.5091760000000  0.3942160000000  0.4798680000000 1.0
C      1  0.5172310000000  0.5381490000000  0.5999080000000 1.0
C      1  0.5147580000000  0.5710780000000  0.4140980000000 1.0
C      1  0.4233760000000  0.5358710000000  0.5452260000000 1.0
C      1  0.4220820000000  0.5297590000000  0.4354090000000 1.0
C      1  0.4230640000000  0.4445680000000  0.5077270000000 1.0
C      1  0.5539220000000  0.5145250000000  0.5494000000000 1.0
C      1  0.5456900000000  0.5391380000000  0.4573300000000 1.0
C      1  0.5612440000000  0.4620940000000  0.5303740000000 1.0
C      1  0.4515240000000  0.4683120000000  0.5978670000000 1.0
C      1  0.4401060000000  0.5937390000000  0.4743240000000 1.0
C      1  0.4409500000000  0.4332210000000  0.4262860000000 1.0
C      1  0.4471410000000  0.5106870000000  0.4764260000000 1.0
C      1  0.4441700000000  0.4676040000000  0.5030710000000 1.0
C      1  0.4406150000000  0.5167280000000  0.5277260000000 1.0
C      1  0.5682250000000  0.5206380000000  0.4147480000000 1.0
C      1  0.5605700000000  0.4057350000000  0.5317530000000 1.0
C      1  0.5631630000000  0.5752830000000  0.5529100000000 1.0
C      1  0.4811480000000  0.5168800000000  0.3818660000000 1.0
C      1  0.4761450000000  0.3877270000000  0.5429110000000 1.0
C      1  0.4771230000000  0.5931970000000  0.5722970000000 1.0
C      1  0.4762050000000  0.5701770000000  0.5936260000000 1.0
C      1  0.4781550000000  0.5465570000000  0.3878390000000 1.0
C      1  0.4715760000000  0.3811690000000  0.5122050000000 1.0
C      1  0.4935280000000  0.4158540000000  0.4096810000000 1.0
C      1  0.5022050000000  0.4649370000000  0.6123430000000 1.0
C      1  0.4919630000000  0.6174120000000  0.4693220000000 1.0
C      1  0.5927460000000  0.5295940000000  0.4247230000000 1.0
C      1  0.5847020000000  0.4155410000000  0.5213110000000 1.0
C      1  0.5866670000000  0.5599180000000  0.5485200000000 1.0
C      1  0.5759130000000  0.4704650000000  0.5534270000000 1.0
C      1  0.5648930000000  0.5490500000000  0.5117700000000 1.0
C      1  0.5625750000000  0.4880940000000  0.4595760000000 1.0
C      1  0.5284250000000  0.5019260000000  0.5459980000000 1.0
C      1  0.5257750000000  0.5475840000000  0.4774970000000 1.0
C      1  0.5277820000000  0.4535390000000  0.4693340000000 1.0
C      1  0.5063190000000  0.5000080000000  0.5665820000000 1.0
C      1  0.5015810000000  0.5622920000000  0.4652320000000 1.0
C      1  0.5024160000000  0.4393230000000  0.4603540000000 1.0
C      1  0.5627850000000  0.4940650000000  0.5978470000000 1.0
C      1  0.5548510000000  0.5863680000000  0.4624850000000 1.0
C      1  0.5564370000000  0.4263100000000  0.4442860000000 1.0
C      1  0.5347640000000  0.4781280000000  0.4508830000000 1.0
C      1  0.5374880000000  0.4478160000000  0.5373690000000 1.0
C      1  0.5349950000000  0.5572830000000  0.5089030000000 1.0
C      1  0.4117840000000  0.4848620000000  0.5704970000000 1.0
C      1  0.4058400000000  0.5570520000000  0.4787080000000 1.0
C      1  0.4057870000000  0.4560040000000  0.4530490000000 1.0
C      1  0.4618000000000  0.4067850000000  0.4681810000000 1.0
C      1  0.4704130000000  0.5192490000000  0.5952990000000 1.0
C      1  0.4662750000000  0.5728530000000  0.4311100000000 1.0
C      1  0.4530000000000  0.4524160000000  0.4770440000000 1.0
C      1  0.4519310000000  0.5026450000000  0.5531700000000 1.0
C      1  0.4490380000000  0.5402970000000  0.4716620000000 1.0
C      1  0.5786640000000  0.5292650000000  0.4925820000000 1.0
C      1  0.5765300000000  0.4767570000000  0.4851520000000 1.0
C      1  0.5941540000000  0.4922440000000  0.5456010000000 1.0
C      1  0.5063740000000  0.5568970000000  0.3901070000000 1.0
C      1  0.4993640000000  0.3759070000000  0.5004130000000 1.0
C      1  0.5054210000000  0.5648150000000  0.6010300000000 1.0
C      1  0.4679590000000  0.4609550000000  0.5736370000000 1.0
C      1  0.4604890000000  0.5826040000000  0.4944960000000 1.0
C      1  0.4627340000000  0.4551320000000  0.4284330000000 1.0
C      1  0.4208890000000  0.4388610000000  0.5553380000000 1.0
C      1  0.4164000000000  0.5799120000000  0.5293490000000 1.0
C      1  0.4167230000000  0.4895210000000  0.4106800000000 1.0
C      1  0.5729630000000  0.5079940000000  0.5252860000000 1.0
C      1  0.5594660000000  0.5171020000000  0.4710510000000 1.0
C      1  0.5611520000000  0.4841760000000  0.5104140000000 1.0
C      1  0.5191100000000  0.4663080000000  0.4953740000000 1.0
C      1  0.5155930000000  0.5112090000000  0.5205130000000 1.0
C      1  0.5168190000000  0.5170120000000  0.4822890000000 1.0
C      1  0.5400950000000  0.4936240000000  0.6133530000000 1.0
C      1  0.5356000000000  0.6046790000000  0.4528840000000 1.0
C      1  0.5349950000000  0.4114240000000  0.4335820000000 1.0
C      1  0.4676140000000  0.5064840000000  0.4283320000000 1.0
C      1  0.4681090000000  0.4342320000000  0.5297800000000 1.0
C      1  0.4663950000000  0.5594380000000  0.5398670000000 1.0
C      1  0.5128170000000  0.5003300000000  0.4551010000000 1.0
C      1  0.5129810000000  0.4523340000000  0.5212910000000 1.0
C      1  0.5109270000000  0.5414410000000  0.5230120000000 1.0
C      1  0.5038760000000  0.6166010000000  0.4949660000000 1.0
C      1  0.5062700000000  0.4387620000000  0.3984280000000 1.0
C      1  0.5112930000000  0.4425170000000  0.5986360000000 1.0
C      1  0.4941950000000  0.5863740000000  0.4290700000000 1.0
C      1  0.4900680000000  0.3972570000000  0.4574800000000 1.0
C      1  0.4982030000000  0.5163790000000  0.6067380000000 1.0
C      1  0.4455860000000  0.5262730000000  0.4173730000000 1.0
C      1  0.4427310000000  0.4210350000000  0.5174390000000 1.0
C      1  0.4434120000000  0.5546850000000  0.5597120000000 1.0
C      1  0.4894090000000  0.5823180000000  0.4841460000000 1.0
C      1  0.4909960000000  0.4456120000000  0.4332430000000 1.0
C      1  0.4976970000000  0.4711060000000  0.5729000000000 1.0
C      1  0.5063100000000  0.5128290000000  0.3993230000000 1.0
C      1  0.5029930000000  0.4018370000000  0.5365000000000 1.0
C      1  0.5030550000000  0.5813650000000  0.5596840000000 1.0
C      1  0.4086490000000  0.4535800000000  0.5331630000000 1.0
C      1  0.4068830000000  0.5524230000000  0.5275990000000 1.0
C      1  0.4087170000000  0.5027810000000  0.4355020000000 1.0
C      1  0.4458560000000  0.5559750000000  0.4973140000000 1.0
C      1  0.4475360000000  0.4686700000000  0.4514870000000 1.0
C      1  0.4496140000000  0.4719310000000  0.5519160000000 1.0
C      1  0.5170270000000  0.4856760000000  0.3958110000000 1.0
C      1  0.5179940000000  0.4112010000000  0.5603100000000 1.0
C      1  0.5141760000000  0.5973970000000  0.5377040000000 1.0
C      1  0.5479040000000  0.5668280000000  0.5774120000000 1.0
C      1  0.5501700000000  0.5410180000000  0.4026200000000 1.0
C      1  0.5437860000000  0.3930770000000  0.5108130000000 1.0
C      1  0.5876870000000  0.5502400000000  0.4676620000000 1.0
C      1  0.5766490000000  0.4461680000000  0.4847170000000 1.0
C      1  0.5953530000000  0.5158160000000  0.5657460000000 1.0
C      1  0.6120820000000  0.4549770000000  0.5166710000000 1.0
C      1  0.6105640000000  0.5274710000000  0.5207420000000 1.0
C      1  0.6107520000000  0.5101650000000  0.4625270000000 1.0
C      1  0.5768050000000  0.4757950000000  0.4345860000000 1.0
C      1  0.5774340000000  0.4534840000000  0.5762920000000 1.0
C      1  0.5787510000000  0.5765170000000  0.5080470000000 1.0
C      1  0.6178400000000  0.5020960000000  0.5092160000000 1.0
C      1  0.6041890000000  0.4937380000000  0.4843000000000 1.0
C      1  0.6166660000000  0.4803170000000  0.5286210000000 1.0
C      1  0.5951580000000  0.4355600000000  0.5049780000000 1.0
C      1  0.6030640000000  0.5372080000000  0.5467890000000 1.0
C      1  0.6051250000000  0.5338390000000  0.4491650000000 1.0
C      1  0.5695110000000  0.4482530000000  0.4322220000000 1.0
C      1  0.5781130000000  0.4705010000000  0.5981250000000 1.0
C      1  0.5809410000000  0.5802320000000  0.4782290000000 1.0
C      1  0.4665720000000  0.5946740000000  0.5238230000000 1.0
C      1  0.4695120000000  0.4755640000000  0.4050540000000 1.0
C      1  0.4727960000000  0.4304730000000  0.5681430000000 1.0
C      1  0.4054840000000  0.5389770000000  0.5017800000000 1.0
C      1  0.4072580000000  0.4845120000000  0.4586300000000 1.0
C      1  0.4076410000000  0.4817590000000  0.5415830000000 1.0
C      1  0.4598240000000  0.5522300000000  0.4103630000000 1.0
C      1  0.4544700000000  0.4004580000000  0.4969860000000 1.0
C      1  0.4594520000000  0.5465360000000  0.5867770000000 1.0
C      1  0.4946400000000  0.5511280000000  0.5493260000000 1.0
C      1  0.4963250000000  0.5182850000000  0.4312490000000 1.0
C      1  0.4945830000000  0.4272960000000  0.5160940000000 1.0
C      1  0.4162780000000  0.5820270000000  0.4913660000000 1.0
C      1  0.4185430000000  0.4552900000000  0.4268930000000 1.0
C      1  0.4241920000000  0.4591810000000  0.5795690000000 1.0
C      1  0.4489470000000  0.4987930000000  0.5998290000000 1.0
C      1  0.4412220000000  0.5777230000000  0.4482100000000 1.0
C      1  0.4383540000000  0.4186830000000  0.4531370000000 1.0
C      1  0.4890390000000  0.5004560000000  0.5258620000000 1.0
C      1  0.4884610000000  0.5243810000000  0.4834520000000 1.0
C      1  0.4909400000000  0.4719680000000  0.4881220000000 1.0
C      1  0.5192290000000  0.3808600000000  0.5219660000000 1.0
C      1  0.5226660000000  0.5807380000000  0.5827660000000 1.0
C      1  0.5252810000000  0.5338400000000  0.3881730000000 1.0
C      1  0.4326220000000  0.4125630000000  0.5450280000000 1.0
C      1  0.4312100000000  0.5821470000000  0.5551520000000 1.0
C      1  0.4336160000000  0.5088480000000  0.3957650000000 1.0
C      1  0.5636750000000  0.5978940000000  0.5213990000000 1.0
C      1  0.5642380000000  0.4914160000000  0.4129170000000 1.0
C      1  0.5607390000000  0.4309690000000  0.5746670000000 1.0
C      1  0.4640370000000  0.4632240000000  0.5274690000000 1.0
C      1  0.4610800000000  0.5411200000000  0.5175630000000 1.0
C      1  0.4616980000000  0.4942000000000  0.4553970000000 1.0
C      1  0.4877350000000  0.5431620000000  0.5045210000000 1.0
C      1  0.4888750000000  0.4851210000000  0.4629940000000 1.0
C      1  0.4925570000000  0.4723520000000  0.5347030000000 1.0
C      1  0.4963100000000  0.4658400000000  0.3945280000000 1.0
C      1  0.5008980000000  0.4268540000000  0.5773930000000 1.0
C      1  0.4937730000000  0.6072560000000  0.5202560000000 1.0
C      1  0.5508780000000  0.4318220000000  0.4726370000000 1.0
C      1  0.5654340000000  0.5173380000000  0.5779920000000 1.0
C      1  0.5594170000000  0.5622870000000  0.4450450000000 1.0
C      1  0.5074030000000  0.6033370000000  0.4497300000000 1.0
C      1  0.5070270000000  0.4048820000000  0.4327860000000 1.0
C      1  0.5128820000000  0.4910530000000  0.6093880000000 1.0
C      1  0.4829020000000  0.4425710000000  0.4838390000000 1.0
C      1  0.4831440000000  0.5146910000000  0.5529840000000 1.0
C      1  0.4817220000000  0.5402600000000  0.4569230000000 1.0
C      1  0.5383750000000  0.4782400000000  0.4129100000000 1.0
C      1  0.5443530000000  0.4229360000000  0.5520810000000 1.0
C      1  0.5378040000000  0.5843260000000  0.5249260000000 1.0
C      1  0.5446370000000  0.5660320000000  0.4178610000000 1.0
C      1  0.5369800000000  0.4059160000000  0.4849100000000 1.0
C      1  0.5462180000000  0.5399880000000  0.5893980000000 1.0
C      1  0.4545790000000  0.5998380000000  0.5525880000000 1.0
C      1  0.4585800000000  0.4971120000000  0.3859920000000 1.0
C      1  0.4569370000000  0.4043260000000  0.5600460000000 1.0
C      1  0.4335950000000  0.4976440000000  0.5002840000000 1.0
END
