TITL C-3578199-7832-205 -1.11420760707415e-06 125000 -447.025644202066 0 0 72 (C1) n - 1
REM
REM in /home/bkarasulu/work/CARBON/AIRSS/Generating-Clusters/EDIP-Nigel-Params/with-SteepDescent/Higher-Symm/SD-CG/HFTN-CG
REM
REM
REM
REM
REM
REM ./C.cell (12c818d87b63d06a65506943cc24bca4)
REM
REM compiler GCC version 9.2.1 20190827 (Red Hat 9.2.1-1)
REM options -cpp -mtune=generic -march=x86-64 -g -O0 -fpre-include=/usr/include/finclude/math-vector-fortran.h
REM seed -488199275 238563393 -51460709 2020993378 -151730949 334066428 -80746125 870667566 294215375 -1129612650 657140175 2069787458 1331921349 1331336354 -777479283 -1957351919 704601 1295278073 -242625655 693103157 -752001008 762342934 -1905213617 -2028533921 1315343677 1516948594 333136754 -992804216 -192988921 -1969522615 2069268387 1679901248 -1206536617
REM
CELL 1.54180   50.00000   50.00000   50.00000   90.00000   90.00000   90.00000
LATT -1
SFAC C  
C      1  0.4424270000000  0.4487320000000  0.4907330000000 1.0
C      1  0.4262980000000  0.5269940000000  0.4909410000000 1.0
C      1  0.4843930000000  0.5748970000000  0.4895220000000 1.0
C      1  0.5599680000000  0.5528240000000  0.4884110000000 1.0
C      1  0.5742790000000  0.4755260000000  0.4902980000000 1.0
C      1  0.5147100000000  0.4217140000000  0.4902490000000 1.0
C      1  0.4845380000000  0.4426190000000  0.4653120000000 1.0
C      1  0.4467450000000  0.4874700000000  0.4696810000000 1.0
C      1  0.4618310000000  0.5388960000000  0.4675220000000 1.0
C      1  0.5172600000000  0.5559090000000  0.4665470000000 1.0
C      1  0.5582490000000  0.5139200000000  0.4672010000000 1.0
C      1  0.5408180000000  0.4564030000000  0.4683340000000 1.0
C      1  0.4951180000000  0.5733030000000  0.4635440000000 1.0
C      1  0.5639490000000  0.5413640000000  0.4630040000000 1.0
C      1  0.5671810000000  0.4660890000000  0.4646890000000 1.0
C      1  0.5048550000000  0.4229940000000  0.4637510000000 1.0
C      1  0.4381220000000  0.4605820000000  0.4655070000000 1.0
C      1  0.4343580000000  0.5331320000000  0.4646120000000 1.0
C      1  0.5089080000000  0.5786330000000  0.5069310000000 1.0
C      1  0.5735760000000  0.5321310000000  0.5064880000000 1.0
C      1  0.5640010000000  0.4523060000000  0.5076040000000 1.0
C      1  0.4888520000000  0.4214140000000  0.5073870000000 1.0
C      1  0.4282000000000  0.4656350000000  0.5100960000000 1.0
C      1  0.4377400000000  0.5487320000000  0.5093770000000 1.0
C      1  0.4548340000000  0.5572840000000  0.5436680000000 1.0
C      1  0.5264560000000  0.5665710000000  0.5397260000000 1.0
C      1  0.5687680000000  0.5093340000000  0.5377540000000 1.0
C      1  0.5413660000000  0.4431210000000  0.5380300000000 1.0
C      1  0.4707180000000  0.4348610000000  0.5395980000000 1.0
C      1  0.4276050000000  0.4907130000000  0.5493720000000 1.0
C      1  0.5657240000000  0.5041540000000  0.4936550000000 1.0
C      1  0.5364750000000  0.4424750000000  0.4939630000000 1.0
C      1  0.4715970000000  0.4418080000000  0.4917380000000 1.0
C      1  0.4381850000000  0.4995360000000  0.4960350000000 1.0
C      1  0.4672490000000  0.5501110000000  0.4944160000000 1.0
C      1  0.5312440000000  0.5609540000000  0.4919740000000 1.0
C      1  0.5316950000000  0.5385960000000  0.5353780000000 1.0
C      1  0.5463110000000  0.4910670000000  0.5356610000000 1.0
C      1  0.5143910000000  0.4534240000000  0.5359860000000 1.0
C      1  0.4658980000000  0.4636570000000  0.5396390000000 1.0
C      1  0.4486760000000  0.5097080000000  0.5428610000000 1.0
C      1  0.4819020000000  0.5475390000000  0.5389890000000 1.0
C      1  0.4821530000000  0.5300680000000  0.5126590000000 1.0
C      1  0.5124540000000  0.5238560000000  0.5048630000000 1.0
C      1  0.5260870000000  0.4964780000000  0.5115150000000 1.0
C      1  0.5085560000000  0.4723420000000  0.5089330000000 1.0
C      1  0.4785810000000  0.4780970000000  0.5158690000000 1.0
C      1  0.4630120000000  0.5041620000000  0.5153220000000 1.0
C      1  0.4975040000000  0.4290710000000  0.5353620000000 1.0
C      1  0.4363950000000  0.4673700000000  0.5373350000000 1.0
C      1  0.4364270000000  0.5368970000000  0.5385490000000 1.0
C      1  0.4993290000000  0.5717260000000  0.5355920000000 1.0
C      1  0.5612010000000  0.5360770000000  0.5341770000000 1.0
C      1  0.5596010000000  0.4641510000000  0.5351880000000 1.0
C      1  0.4828510000000  0.5196250000000  0.4586940000000 1.0
C      1  0.5107280000000  0.5267270000000  0.4720720000000 1.0
C      1  0.5303360000000  0.5057350000000  0.4602840000000 1.0
C      1  0.5198450000000  0.4773640000000  0.4725660000000 1.0
C      1  0.4934490000000  0.4704300000000  0.4571720000000 1.0
C      1  0.4751850000000  0.4920830000000  0.4671220000000 1.0
C      1  0.5118090000000  0.5261490000000  0.4204370000000 1.0
C      1  0.5280360000000  0.5053660000000  0.4304720000000 1.0
C      1  0.5230200000000  0.4797750000000  0.4198050000000 1.0
C      1  0.4965410000000  0.4742620000000  0.4273890000000 1.0
C      1  0.4784190000000  0.4938100000000  0.4177060000000 1.0
C      1  0.4858860000000  0.5189150000000  0.4285970000000 1.0
C      1  0.4794350000000  0.4780220000000  0.5634340000000 1.0
C      1  0.4707590000000  0.5069740000000  0.5637480000000 1.0
C      1  0.4906570000000  0.5286330000000  0.5606800000000 1.0
C      1  0.5192190000000  0.5225300000000  0.5581570000000 1.0
C      1  0.5284060000000  0.4943320000000  0.5597800000000 1.0
C      1  0.5086500000000  0.4718410000000  0.5603380000000 1.0
END
