TITL C-3577090-796-669 8.83220565168704e-07 125000 -386.615604083114 0 0 64 (Cs) n - 1
REM
REM in /home/bkarasulu/work/CARBON/AIRSS/Generating-Clusters/EDIP-Nigel-Params/with-SteepDescent/Higher-Symm/SD-CG/HFTN-CG
REM
REM
REM
REM
REM
REM ./C.cell (12c818d87b63d06a65506943cc24bca4)
REM
REM compiler GCC version 9.2.1 20190827 (Red Hat 9.2.1-1)
REM options -cpp -mtune=generic -march=x86-64 -g -O0 -fpre-include=/usr/include/finclude/math-vector-fortran.h
REM seed 1936523577 1077395383 2016463643 461610271 -1000077596 1089812197 1311283292 -491076816 -1179629506 -1321769456 2079305343 -696733322 -1254266545 -35718496 282794026 1213795609 -359141896 86490270 -777164006 1214823639 -229327218 -669272727 1790239163 -1646193862 359872439 1567081386 -1915603767 1293517122 -849287479 -1161176121 1369893899 243054872 -252115896
REM
CELL 1.54180   50.00000   50.00000   50.00000   90.00000   90.00000   90.00000
LATT -1
SFAC C  
C      1  0.4396070000000  0.4861100000000  0.4955300000000 1.0
C      1  0.4864630000000  0.4861140000000  0.4388150000000 1.0
C      1  0.5519600000000  0.4861990000000  0.4704470000000 1.0
C      1  0.5452640000000  0.4859010000000  0.5406660000000 1.0
C      1  0.4754020000000  0.4862280000000  0.5592830000000 1.0
C      1  0.4396060000000  0.5171510000000  0.4955310000000 1.0
C      1  0.4864620000000  0.5171540000000  0.4388160000000 1.0
C      1  0.5519590000000  0.5170710000000  0.4704480000000 1.0
C      1  0.5452630000000  0.5173630000000  0.5406670000000 1.0
C      1  0.4754010000000  0.5170310000000  0.5592840000000 1.0
C      1  0.4580600000000  0.5700250000000  0.4755460000000 1.0
C      1  0.5115640000000  0.5703500000000  0.4375300000000 1.0
C      1  0.5582180000000  0.5704660000000  0.4894800000000 1.0
C      1  0.5289540000000  0.5674780000000  0.5555340000000 1.0
C      1  0.4576480000000  0.5663400000000  0.5473970000000 1.0
C      1  0.4580630000000  0.4332390000000  0.4755410000000 1.0
C      1  0.5115680000000  0.4329190000000  0.4375260000000 1.0
C      1  0.5582220000000  0.4328030000000  0.4894760000000 1.0
C      1  0.5289570000000  0.4357850000000  0.5555300000000 1.0
C      1  0.4576520000000  0.4369190000000  0.5473930000000 1.0
C      1  0.4647800000000  0.5285050000000  0.4544260000000 1.0
C      1  0.5318190000000  0.5291330000000  0.4537460000000 1.0
C      1  0.5542390000000  0.5294420000000  0.5157940000000 1.0
C      1  0.5024080000000  0.5276700000000  0.5628550000000 1.0
C      1  0.4439070000000  0.5289290000000  0.5218000000000 1.0
C      1  0.4647820000000  0.4747610000000  0.4544240000000 1.0
C      1  0.5318200000000  0.4741360000000  0.4537440000000 1.0
C      1  0.5542410000000  0.4738250000000  0.5157920000000 1.0
C      1  0.5024090000000  0.4755900000000  0.5628530000000 1.0
C      1  0.4439090000000  0.4743310000000  0.5217980000000 1.0
C      1  0.4678830000000  0.4856190000000  0.4828070000000 1.0
C      1  0.5068860000000  0.4860630000000  0.4623230000000 1.0
C      1  0.5345870000000  0.4857330000000  0.4967110000000 1.0
C      1  0.5143150000000  0.4860550000000  0.5372870000000 1.0
C      1  0.4707250000000  0.4860770000000  0.5281030000000 1.0
C      1  0.4678830000000  0.5176450000000  0.4828080000000 1.0
C      1  0.5068860000000  0.5172050000000  0.4623240000000 1.0
C      1  0.5345870000000  0.5175340000000  0.4967120000000 1.0
C      1  0.5143140000000  0.5172080000000  0.5372880000000 1.0
C      1  0.4707240000000  0.5171840000000  0.5281040000000 1.0
C      1  0.5277300000000  0.5688170000000  0.5273870000000 1.0
C      1  0.4856360000000  0.5666640000000  0.5418040000000 1.0
C      1  0.4666350000000  0.5687860000000  0.5018400000000 1.0
C      1  0.4848530000000  0.5685400000000  0.4364130000000 1.0
C      1  0.5532300000000  0.5717780000000  0.4631580000000 1.0
C      1  0.5277340000000  0.4344480000000  0.5273820000000 1.0
C      1  0.4856390000000  0.4365970000000  0.5418000000000 1.0
C      1  0.4666390000000  0.4344770000000  0.5018360000000 1.0
C      1  0.4848560000000  0.4347280000000  0.4364080000000 1.0
C      1  0.5532340000000  0.4314920000000  0.4631540000000 1.0
C      1  0.4467600000000  0.5589950000000  0.5221200000000 1.0
C      1  0.4641850000000  0.5577010000000  0.4517340000000 1.0
C      1  0.5319340000000  0.5580880000000  0.4517730000000 1.0
C      1  0.5523270000000  0.5592950000000  0.5144900000000 1.0
C      1  0.5037030000000  0.5575150000000  0.5628630000000 1.0
C      1  0.4467640000000  0.4442650000000  0.5221160000000 1.0
C      1  0.4641880000000  0.4455650000000  0.4517310000000 1.0
C      1  0.5319370000000  0.4451810000000  0.4517690000000 1.0
C      1  0.5523310000000  0.4439720000000  0.5144860000000 1.0
C      1  0.5037070000000  0.4457460000000  0.5628590000000 1.0
C      1  0.4957540000000  0.5604660000000  0.5120860000000 1.0
C      1  0.4957580000000  0.4427980000000  0.5120820000000 1.0
C      1  0.4983860000000  0.4737450000000  0.5039720000000 1.0
C      1  0.4983850000000  0.5295190000000  0.5039740000000 1.0
END
