TITL C-3578202-4305-660 -5.0618270708082e-06 125000 -1071.756180891 0 0 173 (C1) n - 1
REM
REM in /home/bkarasulu/work/CARBON/AIRSS/Generating-Clusters/EDIP-Nigel-Params/with-SteepDescent/Higher-Symm/SD-CG/HFTN-CG
REM
REM
REM
REM
REM
REM ./C.cell (12c818d87b63d06a65506943cc24bca4)
REM
REM compiler GCC version 9.2.1 20190827 (Red Hat 9.2.1-1)
REM options -cpp -mtune=generic -march=x86-64 -g -O0 -fpre-include=/usr/include/finclude/math-vector-fortran.h
REM seed 705795108 545300157 889821343 -1893894929 1317900058 2049886342 1629632800 1312490535 22816865 -790802966 422982294 -2062505216 1187811658 -1630919804 -44943750 161108445 -329587542 -882770703 -1477435216 160445881 1948255440 1908378975 -1246193101 717502143 1502999295 -750417311 -1734800553 -1790239195 505328576 1451255563 1441888964 606782608 -1255936610
REM
CELL 1.54180   50.00000   50.00000   50.00000   90.00000   90.00000   90.00000
LATT -1
SFAC C  
C      1  0.6043980000000  0.4997390000000  0.4812240000000 1.0
C      1  0.5169780000000  0.6059880000000  0.4887730000000 1.0
C      1  0.3934440000000  0.5015170000000  0.4821780000000 1.0
C      1  0.4968880000000  0.3915790000000  0.4844720000000 1.0
C      1  0.6112060000000  0.4943560000000  0.5108950000000 1.0
C      1  0.5062070000000  0.6000470000000  0.5140940000000 1.0
C      1  0.3906160000000  0.5031330000000  0.5131330000000 1.0
C      1  0.5016900000000  0.3975590000000  0.5147520000000 1.0
C      1  0.5641080000000  0.4229960000000  0.4256130000000 1.0
C      1  0.5718070000000  0.5597550000000  0.4278140000000 1.0
C      1  0.4347080000000  0.5731160000000  0.4258190000000 1.0
C      1  0.4267350000000  0.4397190000000  0.4284200000000 1.0
C      1  0.5621440000000  0.4291920000000  0.5715630000000 1.0
C      1  0.5750480000000  0.5568850000000  0.5734210000000 1.0
C      1  0.4374820000000  0.5720410000000  0.5692700000000 1.0
C      1  0.4267230000000  0.4429850000000  0.5756950000000 1.0
C      1  0.5263610000000  0.5433990000000  0.4120160000000 1.0
C      1  0.4626150000000  0.5294070000000  0.4117460000000 1.0
C      1  0.4715640000000  0.4588240000000  0.4160430000000 1.0
C      1  0.5433840000000  0.4682620000000  0.4065080000000 1.0
C      1  0.5296060000000  0.5398220000000  0.5846360000000 1.0
C      1  0.4591830000000  0.5320960000000  0.5869320000000 1.0
C      1  0.4710440000000  0.4591190000000  0.5954670000000 1.0
C      1  0.5426670000000  0.4732090000000  0.5855060000000 1.0
C      1  0.5092700000000  0.4663660000000  0.5264390000000 1.0
C      1  0.5270450000000  0.5079750000000  0.5182010000000 1.0
C      1  0.4897810000000  0.5345750000000  0.5269690000000 1.0
C      1  0.4740610000000  0.4942120000000  0.5187300000000 1.0
C      1  0.5093720000000  0.4696410000000  0.4806720000000 1.0
C      1  0.5342430000000  0.5057430000000  0.4745650000000 1.0
C      1  0.4956450000000  0.5272990000000  0.4805010000000 1.0
C      1  0.4647790000000  0.4971700000000  0.4734660000000 1.0
C      1  0.4386180000000  0.4794760000000  0.4434600000000 1.0
C      1  0.5175230000000  0.4415220000000  0.4390060000000 1.0
C      1  0.5583210000000  0.5155040000000  0.4398010000000 1.0
C      1  0.4858700000000  0.5634330000000  0.4378920000000 1.0
C      1  0.4465400000000  0.4833750000000  0.5657980000000 1.0
C      1  0.5184260000000  0.4390500000000  0.5596790000000 1.0
C      1  0.5625310000000  0.5192510000000  0.5539610000000 1.0
C      1  0.4824060000000  0.5639410000000  0.5586120000000 1.0
C      1  0.4531950000000  0.4156070000000  0.4664170000000 1.0
C      1  0.5911440000000  0.4497550000000  0.4647120000000 1.0
C      1  0.5478680000000  0.5751570000000  0.4680300000000 1.0
C      1  0.4105580000000  0.5462810000000  0.4643410000000 1.0
C      1  0.4530830000000  0.4138200000000  0.5352960000000 1.0
C      1  0.5805360000000  0.4530430000000  0.5307410000000 1.0
C      1  0.5505760000000  0.5839890000000  0.5361900000000 1.0
C      1  0.4202610000000  0.5406190000000  0.5327140000000 1.0
C      1  0.5110340000000  0.5537470000000  0.5156570000000 1.0
C      1  0.4359080000000  0.4956220000000  0.5101150000000 1.0
C      1  0.4908130000000  0.4456670000000  0.5145800000000 1.0
C      1  0.5647760000000  0.4986090000000  0.5122590000000 1.0
C      1  0.5009560000000  0.5602660000000  0.4873050000000 1.0
C      1  0.4429620000000  0.5124870000000  0.4864020000000 1.0
C      1  0.5006800000000  0.4391650000000  0.4866160000000 1.0
C      1  0.5568250000000  0.4883360000000  0.4854490000000 1.0
C      1  0.4413690000000  0.4637880000000  0.4177180000000 1.0
C      1  0.5384450000000  0.4396910000000  0.4158360000000 1.0
C      1  0.5557610000000  0.5357830000000  0.4182200000000 1.0
C      1  0.4642150000000  0.5604790000000  0.4146920000000 1.0
C      1  0.4418060000000  0.4657310000000  0.5908930000000 1.0
C      1  0.5371930000000  0.4427110000000  0.5830990000000 1.0
C      1  0.5594060000000  0.5326900000000  0.5811410000000 1.0
C      1  0.4632820000000  0.5611050000000  0.5813510000000 1.0
C      1  0.5181320000000  0.5282620000000  0.5605660000000 1.0
C      1  0.4297760000000  0.5275460000000  0.5802200000000 1.0
C      1  0.4607830000000  0.4581070000000  0.5525000000000 1.0
C      1  0.5273270000000  0.4846710000000  0.5623440000000 1.0
C      1  0.5049190000000  0.5417370000000  0.4344320000000 1.0
C      1  0.4526280000000  0.5483150000000  0.4506320000000 1.0
C      1  0.4819770000000  0.4738640000000  0.4399840000000 1.0
C      1  0.5517220000000  0.4569960000000  0.4484380000000 1.0
C      1  0.5061030000000  0.5853610000000  0.4433630000000 1.0
C      1  0.4231310000000  0.5047110000000  0.4412660000000 1.0
C      1  0.4958150000000  0.4206400000000  0.4414440000000 1.0
C      1  0.5766790000000  0.4922600000000  0.4386980000000 1.0
C      1  0.5075470000000  0.5798740000000  0.5598610000000 1.0
C      1  0.4189630000000  0.4931310000000  0.5547680000000 1.0
C      1  0.4955890000000  0.4213220000000  0.5598700000000 1.0
C      1  0.5822880000000  0.4964500000000  0.5540940000000 1.0
C      1  0.4165460000000  0.5100070000000  0.5286710000000 1.0
C      1  0.4841970000000  0.4180300000000  0.5314610000000 1.0
C      1  0.5865410000000  0.4830260000000  0.5267800000000 1.0
C      1  0.5200580000000  0.5803960000000  0.5321310000000 1.0
C      1  0.4168700000000  0.5169930000000  0.4685170000000 1.0
C      1  0.4843270000000  0.4161600000000  0.4696080000000 1.0
C      1  0.5838410000000  0.4812460000000  0.4669660000000 1.0
C      1  0.5184370000000  0.5823120000000  0.4720890000000 1.0
C      1  0.5274610000000  0.5782130000000  0.4240780000000 1.0
C      1  0.4388820000000  0.5180240000000  0.4217410000000 1.0
C      1  0.4740380000000  0.4281730000000  0.4232180000000 1.0
C      1  0.5685770000000  0.4772400000000  0.4161830000000 1.0
C      1  0.5282070000000  0.5709590000000  0.5791710000000 1.0
C      1  0.4108360000000  0.5063650000000  0.5784020000000 1.0
C      1  0.4743840000000  0.4317480000000  0.5780500000000 1.0
C      1  0.5736910000000  0.4758410000000  0.5741800000000 1.0
C      1  0.5978800000000  0.5631420000000  0.5293030000000 1.0
C      1  0.4192970000000  0.5870440000000  0.5268720000000 1.0
C      1  0.4085650000000  0.4365230000000  0.5299890000000 1.0
C      1  0.5676900000000  0.4057840000000  0.5253810000000 1.0
C      1  0.5942100000000  0.5653350000000  0.4738740000000 1.0
C      1  0.4242770000000  0.5949280000000  0.4710090000000 1.0
C      1  0.4056010000000  0.4327950000000  0.4725500000000 1.0
C      1  0.5668320000000  0.4028730000000  0.4711840000000 1.0
C      1  0.5752290000000  0.4300530000000  0.4830230000000 1.0
C      1  0.5706540000000  0.5750140000000  0.4872010000000 1.0
C      1  0.4232840000000  0.5660620000000  0.4830530000000 1.0
C      1  0.4334950000000  0.4321860000000  0.4827260000000 1.0
C      1  0.5793840000000  0.4291480000000  0.5132050000000 1.0
C      1  0.5704000000000  0.5696560000000  0.5180370000000 1.0
C      1  0.4157720000000  0.5630540000000  0.5131230000000 1.0
C      1  0.4352850000000  0.4320540000000  0.5179650000000 1.0
C      1  0.5142760000000  0.5171140000000  0.3986430000000 1.0
C      1  0.4838400000000  0.5119860000000  0.3981020000000 1.0
C      1  0.4902370000000  0.4801800000000  0.3972620000000 1.0
C      1  0.5198310000000  0.4870520000000  0.4049070000000 1.0
C      1  0.5118030000000  0.5206770000000  0.6039310000000 1.0
C      1  0.4818000000000  0.5139130000000  0.5969990000000 1.0
C      1  0.4887890000000  0.4838140000000  0.5957230000000 1.0
C      1  0.5178250000000  0.4894260000000  0.6049430000000 1.0
C      1  0.5597340000000  0.4069360000000  0.5528060000000 1.0
C      1  0.5973570000000  0.5515460000000  0.5550730000000 1.0
C      1  0.4419180000000  0.5863730000000  0.5436760000000 1.0
C      1  0.4074600000000  0.4506500000000  0.5549800000000 1.0
C      1  0.5570460000000  0.4018190000000  0.4445950000000 1.0
C      1  0.5933650000000  0.5551050000000  0.4472140000000 1.0
C      1  0.4331100000000  0.5974550000000  0.4425010000000 1.0
C      1  0.4050720000000  0.4456790000000  0.4474880000000 1.0
C      1  0.6040630000000  0.5248980000000  0.5280330000000 1.0
C      1  0.4789160000000  0.5898920000000  0.5114770000000 1.0
C      1  0.3940390000000  0.4717300000000  0.5254660000000 1.0
C      1  0.5303680000000  0.4106030000000  0.5145810000000 1.0
C      1  0.5899440000000  0.5277510000000  0.4821090000000 1.0
C      1  0.4516280000000  0.6061380000000  0.4748200000000 1.0
C      1  0.3970260000000  0.4709460000000  0.4758960000000 1.0
C      1  0.5280980000000  0.3977240000000  0.4697230000000 1.0
C      1  0.4663710000000  0.5722130000000  0.5328000000000 1.0
C      1  0.4488430000000  0.4566840000000  0.5258960000000 1.0
C      1  0.5365530000000  0.4332720000000  0.5357250000000 1.0
C      1  0.5591500000000  0.5424050000000  0.5230160000000 1.0
C      1  0.4523730000000  0.5596610000000  0.4786590000000 1.0
C      1  0.4393420000000  0.4611350000000  0.4710510000000 1.0
C      1  0.5488440000000  0.4431740000000  0.4775010000000 1.0
C      1  0.5651370000000  0.5345960000000  0.4634760000000 1.0
C      1  0.5375880000000  0.4604790000000  0.5220660000000 1.0
C      1  0.5342170000000  0.5359180000000  0.5089400000000 1.0
C      1  0.4629250000000  0.5436220000000  0.5216650000000 1.0
C      1  0.4687270000000  0.4655710000000  0.5088060000000 1.0
C      1  0.5396010000000  0.4657280000000  0.4929320000000 1.0
C      1  0.5392410000000  0.5335970000000  0.4798440000000 1.0
C      1  0.4610430000000  0.5365180000000  0.4933830000000 1.0
C      1  0.4649620000000  0.4689390000000  0.4804290000000 1.0
C      1  0.5849960000000  0.4414820000000  0.4368910000000 1.0
C      1  0.5524620000000  0.5787110000000  0.4392020000000 1.0
C      1  0.4163930000000  0.5527220000000  0.4369470000000 1.0
C      1  0.4486250000000  0.4205210000000  0.4371370000000 1.0
C      1  0.5792570000000  0.4502960000000  0.5602680000000 1.0
C      1  0.5544840000000  0.5778730000000  0.5655240000000 1.0
C      1  0.4208350000000  0.5484930000000  0.5618730000000 1.0
C      1  0.4481910000000  0.4233590000000  0.5651960000000 1.0
C      1  0.5096960000000  0.4710000000000  0.4498540000000 1.0
C      1  0.5233850000000  0.4996150000000  0.4472200000000 1.0
C      1  0.4987400000000  0.5180410000000  0.4502690000000 1.0
C      1  0.4711080000000  0.5011700000000  0.4445420000000 1.0
C      1  0.5011710000000  0.4732860000000  0.5542310000000 1.0
C      1  0.5342910000000  0.5087480000000  0.5482330000000 1.0
C      1  0.4898120000000  0.5276400000000  0.5555770000000 1.0
C      1  0.4794670000000  0.4966070000000  0.5495870000000 1.0
C      1  0.5279080000000  0.4230810000000  0.4866640000000 1.0
C      1  0.5791100000000  0.5250500000000  0.5103890000000 1.0
C      1  0.4702920000000  0.5844910000000  0.4831240000000 1.0
C      1  0.4153260000000  0.4688660000000  0.5015140000000 1.0
C      1  0.4996770000000  0.5007030000000  0.5006550000000 1.0
END
