TITL C-3578194-7807-541 -4.63229252794011e-07 125000 -272.320072709672 0 0 45 (C3) n - 1
REM
REM in /home/bkarasulu/work/CARBON/AIRSS/Generating-Clusters/EDIP-Nigel-Params/with-SteepDescent/Higher-Symm/SD-CG/HFTN-CG
REM
REM
REM
REM
REM
REM ./C.cell (12c818d87b63d06a65506943cc24bca4)
REM
REM compiler GCC version 9.2.1 20190827 (Red Hat 9.2.1-1)
REM options -cpp -mtune=generic -march=x86-64 -g -O0 -fpre-include=/usr/include/finclude/math-vector-fortran.h
REM seed 470362756 -798821152 1666394482 756792681 1695669251 -726034825 365082074 1928297899 -1697296984 924819525 -1448577871 -687291944 1369621066 -690991148 -1288295361 -743182360 -511206600 -605322371 697320721 -541135499 -817284662 51176090 92598400 1876502511 -101401805 564927703 -1735997227 587998546 947512196 -1399421098 -518959218 899560880 -1972327556
REM
CELL 1.54180   50.00000   50.00000   50.00000   90.00000   90.00000   90.00000
LATT -1
SFAC C  
C      1  0.5440050000000  0.4945540000000  0.4874140000000 1.0
C      1  0.4732470000000  0.4646750000000  0.4873190000000 1.0
C      1  0.4827490000000  0.5408920000000  0.4875580000000 1.0
C      1  0.5419260000000  0.5136580000000  0.5083080000000 1.0
C      1  0.4671870000000  0.5294430000000  0.5083560000000 1.0
C      1  0.4908860000000  0.4568250000000  0.5081290000000 1.0
C      1  0.5376710000000  0.5016040000000  0.4604770000000 1.0
C      1  0.4824470000000  0.4667620000000  0.4603670000000 1.0
C      1  0.4798850000000  0.5320080000000  0.4605720000000 1.0
C      1  0.5373900000000  0.5017170000000  0.5348720000000 1.0
C      1  0.4797230000000  0.5313600000000  0.5349630000000 1.0
C      1  0.4828850000000  0.4665980000000  0.5347610000000 1.0
C      1  0.4635270000000  0.4902090000000  0.5355240000000 1.0
C      1  0.5098520000000  0.5363160000000  0.5356700000000 1.0
C      1  0.5266190000000  0.4731440000000  0.5354720000000 1.0
C      1  0.4593780000000  0.5112200000000  0.4576180000000 1.0
C      1  0.5107120000000  0.4594110000000  0.4574570000000 1.0
C      1  0.5299130000000  0.5297710000000  0.4576780000000 1.0
C      1  0.4387250000000  0.5271170000000  0.5031860000000 1.0
C      1  0.5541290000000  0.5394940000000  0.5032270000000 1.0
C      1  0.5071460000000  0.4333630000000  0.5028930000000 1.0
C      1  0.4253020000000  0.4732670000000  0.5083820000000 1.0
C      1  0.5604780000000  0.4486390000000  0.5083070000000 1.0
C      1  0.5142190000000  0.5780180000000  0.5087120000000 1.0
C      1  0.5260950000000  0.5744270000000  0.4825980000000 1.0
C      1  0.5513610000000  0.4402720000000  0.4821790000000 1.0
C      1  0.4225460000000  0.4854690000000  0.4823180000000 1.0
C      1  0.5239580000000  0.4261130000000  0.5246450000000 1.0
C      1  0.5519430000000  0.5575760000000  0.5250570000000 1.0
C      1  0.4240980000000  0.5160800000000  0.5249250000000 1.0
C      1  0.5042960000000  0.5333960000000  0.4462650000000 1.0
C      1  0.5266290000000  0.4798370000000  0.4460970000000 1.0
C      1  0.4690790000000  0.4872760000000  0.4461190000000 1.0
C      1  0.5040630000000  0.4691470000000  0.5529740000000 1.0
C      1  0.5245430000000  0.5186980000000  0.5531290000000 1.0
C      1  0.4713910000000  0.5116590000000  0.5531060000000 1.0
C      1  0.4342980000000  0.5126870000000  0.4762140000000 1.0
C      1  0.5437740000000  0.5506690000000  0.4763350000000 1.0
C      1  0.5219300000000  0.4368700000000  0.4759790000000 1.0
C      1  0.4330440000000  0.4897540000000  0.5310180000000 1.0
C      1  0.5422670000000  0.4469940000000  0.5308860000000 1.0
C      1  0.5246870000000  0.5629630000000  0.5312490000000 1.0
C      1  0.4580860000000  0.4881920000000  0.4952490000000 1.0
C      1  0.5311970000000  0.4696290000000  0.4951920000000 1.0
C      1  0.5107170000000  0.5422260000000  0.4954190000000 1.0
END
