TITL C-3577080-309-311 -3.95678261057075e-06 125000 -888.01329826124 0 0 143 (C1) n - 1
REM
REM in /home/bkarasulu/work/CARBON/AIRSS/Generating-Clusters/EDIP-Nigel-Params/with-SteepDescent/Higher-Symm/SD-CG/HFTN-CG
REM
REM
REM
REM
REM
REM ./C.cell (12c818d87b63d06a65506943cc24bca4)
REM
REM compiler GCC version 9.2.1 20190827 (Red Hat 9.2.1-1)
REM options -cpp -mtune=generic -march=x86-64 -g -O0 -fpre-include=/usr/include/finclude/math-vector-fortran.h
REM seed 562624545 -1462104935 388647363 -717286255 -1095791409 1206715064 206382988 -899456305 -687637611 -1431689874 -253645669 484453064 429091472 -1637694454 -825040409 -1841359631 1569898147 -959789503 330391491 1445739775 -1776297232 -2123834032 1572776644 2044782336 -530701266 2016700350 -150535691 1859987175 789210427 698772835 -815062562 1654329989 817800698
REM
CELL 1.54180   50.00000   50.00000   50.00000   90.00000   90.00000   90.00000
LATT -1
SFAC C  
C      1  0.4091710000000  0.5466280000000  0.4763380000000 1.0
C      1  0.4782160000000  0.4067860000000  0.5463180000000 1.0
C      1  0.5373600000000  0.4827540000000  0.4148800000000 1.0
C      1  0.5881630000000  0.5394920000000  0.5184930000000 1.0
C      1  0.4172100000000  0.4605990000000  0.5208860000000 1.0
C      1  0.5947790000000  0.4520970000000  0.4807030000000 1.0
C      1  0.5209620000000  0.4131640000000  0.4584080000000 1.0
C      1  0.4770420000000  0.5904460000000  0.4541450000000 1.0
C      1  0.5246990000000  0.5857870000000  0.5429380000000 1.0
C      1  0.4594460000000  0.4819970000000  0.5865960000000 1.0
C      1  0.5479200000000  0.5227940000000  0.5926160000000 1.0
C      1  0.4520340000000  0.5248170000000  0.4086600000000 1.0
C      1  0.4435560000000  0.5115590000000  0.5182560000000 1.0
C      1  0.5197880000000  0.4457120000000  0.5135670000000 1.0
C      1  0.5208970000000  0.5188780000000  0.4541580000000 1.0
C      1  0.5437310000000  0.5195760000000  0.4809000000000 1.0
C      1  0.4495410000000  0.4830500000000  0.4843480000000 1.0
C      1  0.5606350000000  0.4884850000000  0.5130590000000 1.0
C      1  0.4879650000000  0.4471630000000  0.4826750000000 1.0
C      1  0.5079780000000  0.5541400000000  0.4834200000000 1.0
C      1  0.4802950000000  0.5443760000000  0.5220090000000 1.0
C      1  0.4792470000000  0.5213210000000  0.5420060000000 1.0
C      1  0.5101620000000  0.4885180000000  0.5573390000000 1.0
C      1  0.4886170000000  0.4885910000000  0.4410500000000 1.0
C      1  0.5630250000000  0.5516230000000  0.5293800000000 1.0
C      1  0.5369700000000  0.5609570000000  0.5571300000000 1.0
C      1  0.5600800000000  0.5319610000000  0.5677110000000 1.0
C      1  0.4346490000000  0.5587320000000  0.4653910000000 1.0
C      1  0.5684440000000  0.4413430000000  0.4745280000000 1.0
C      1  0.4413840000000  0.4456750000000  0.5363810000000 1.0
C      1  0.4651430000000  0.5656280000000  0.4418600000000 1.0
C      1  0.5287520000000  0.4372270000000  0.4430140000000 1.0
C      1  0.4678980000000  0.4306080000000  0.5594830000000 1.0
C      1  0.4411950000000  0.5353470000000  0.4347000000000 1.0
C      1  0.5550780000000  0.4502630000000  0.4495910000000 1.0
C      1  0.4452530000000  0.4754620000000  0.5614680000000 1.0
C      1  0.5121650000000  0.4713710000000  0.4076850000000 1.0
C      1  0.4023020000000  0.5206320000000  0.4635780000000 1.0
C      1  0.4647490000000  0.4000580000000  0.5208350000000 1.0
C      1  0.4855680000000  0.4702860000000  0.5892300000000 1.0
C      1  0.5220970000000  0.5345880000000  0.5979730000000 1.0
C      1  0.4777720000000  0.5375880000000  0.4023960000000 1.0
C      1  0.5927750000000  0.5136830000000  0.5303300000000 1.0
C      1  0.4086080000000  0.4877270000000  0.5309370000000 1.0
C      1  0.5990450000000  0.4770270000000  0.4666570000000 1.0
C      1  0.5301380000000  0.4119390000000  0.4873850000000 1.0
C      1  0.4662470000000  0.5957200000000  0.4805140000000 1.0
C      1  0.5348410000000  0.5921880000000  0.5163230000000 1.0
C      1  0.4487790000000  0.4821630000000  0.5132210000000 1.0
C      1  0.5176620000000  0.4488850000000  0.4833680000000 1.0
C      1  0.4889690000000  0.5202370000000  0.4510900000000 1.0
C      1  0.5507490000000  0.4894710000000  0.4834070000000 1.0
C      1  0.4486460000000  0.5112160000000  0.4800660000000 1.0
C      1  0.5510050000000  0.5163100000000  0.5189150000000 1.0
C      1  0.4840460000000  0.4479450000000  0.5119210000000 1.0
C      1  0.5218930000000  0.5475090000000  0.5071380000000 1.0
C      1  0.4796870000000  0.5467960000000  0.4921100000000 1.0
C      1  0.5090720000000  0.5176990000000  0.5478370000000 1.0
C      1  0.4811510000000  0.4831400000000  0.5485730000000 1.0
C      1  0.5185150000000  0.4875760000000  0.4481050000000 1.0
C      1  0.5097640000000  0.4449020000000  0.4210140000000 1.0
C      1  0.4300690000000  0.5129730000000  0.4533220000000 1.0
C      1  0.4573510000000  0.4296010000000  0.5139990000000 1.0
C      1  0.4889760000000  0.4467610000000  0.5723300000000 1.0
C      1  0.5142370000000  0.5438100000000  0.5699810000000 1.0
C      1  0.4864580000000  0.5469820000000  0.4299320000000 1.0
C      1  0.5766830000000  0.5115220000000  0.5546810000000 1.0
C      1  0.4206850000000  0.4921610000000  0.5576030000000 1.0
C      1  0.5701850000000  0.4825520000000  0.4574310000000 1.0
C      1  0.5591380000000  0.4194020000000  0.4914110000000 1.0
C      1  0.4539970000000  0.5689520000000  0.4879930000000 1.0
C      1  0.5459940000000  0.5657370000000  0.5085330000000 1.0
C      1  0.4862550000000  0.6107050000000  0.5253120000000 1.0
C      1  0.5135210000000  0.4881410000000  0.6059680000000 1.0
C      1  0.6143650000000  0.5229030000000  0.4811440000000 1.0
C      1  0.5141500000000  0.6036300000000  0.4868900000000 1.0
C      1  0.4845120000000  0.3845620000000  0.4741450000000 1.0
C      1  0.5126450000000  0.3977860000000  0.5098800000000 1.0
C      1  0.4889240000000  0.4906420000000  0.3969780000000 1.0
C      1  0.5250460000000  0.5219200000000  0.3913970000000 1.0
C      1  0.4768620000000  0.5174170000000  0.6143830000000 1.0
C      1  0.3998890000000  0.5102300000000  0.5110440000000 1.0
C      1  0.6096520000000  0.4862230000000  0.5126170000000 1.0
C      1  0.3893450000000  0.4733870000000  0.4825790000000 1.0
C      1  0.6031510000000  0.4569450000000  0.5090140000000 1.0
C      1  0.5061880000000  0.5958280000000  0.4586670000000 1.0
C      1  0.4544760000000  0.5074250000000  0.6006650000000 1.0
C      1  0.4036920000000  0.4525590000000  0.4949420000000 1.0
C      1  0.5987760000000  0.5438880000000  0.4912840000000 1.0
C      1  0.4103560000000  0.5372960000000  0.5040570000000 1.0
C      1  0.4975490000000  0.5971150000000  0.5471370000000 1.0
C      1  0.5052680000000  0.4101300000000  0.5357120000000 1.0
C      1  0.4950770000000  0.3992950000000  0.4525720000000 1.0
C      1  0.5457880000000  0.5064040000000  0.4019600000000 1.0
C      1  0.4609170000000  0.4966390000000  0.4072460000000 1.0
C      1  0.5416660000000  0.4941000000000  0.5980930000000 1.0
C      1  0.5836990000000  0.4462130000000  0.5288220000000 1.0
C      1  0.5251530000000  0.5789670000000  0.4433660000000 1.0
C      1  0.4434280000000  0.5286590000000  0.5835240000000 1.0
C      1  0.4226240000000  0.4425320000000  0.4750750000000 1.0
C      1  0.5801490000000  0.5545500000000  0.4710080000000 1.0
C      1  0.4209640000000  0.5544210000000  0.5250430000000 1.0
C      1  0.4771160000000  0.5795670000000  0.5585740000000 1.0
C      1  0.5263670000000  0.4195620000000  0.5530260000000 1.0
C      1  0.4736040000000  0.4173450000000  0.4432180000000 1.0
C      1  0.5655460000000  0.5198520000000  0.4169550000000 1.0
C      1  0.4457520000000  0.4753490000000  0.4208480000000 1.0
C      1  0.5530900000000  0.4744840000000  0.5795590000000 1.0
C      1  0.4366270000000  0.5323890000000  0.5394090000000 1.0
C      1  0.5406300000000  0.4367500000000  0.5331060000000 1.0
C      1  0.5337070000000  0.5364890000000  0.4316460000000 1.0
C      1  0.5629410000000  0.5319840000000  0.4597530000000 1.0
C      1  0.4380390000000  0.4661260000000  0.4634590000000 1.0
C      1  0.5651940000000  0.4693060000000  0.5365860000000 1.0
C      1  0.4658440000000  0.4361050000000  0.4662870000000 1.0
C      1  0.5327210000000  0.5603020000000  0.4650580000000 1.0
C      1  0.4626340000000  0.5640410000000  0.5356700000000 1.0
C      1  0.4675680000000  0.5371360000000  0.5664160000000 1.0
C      1  0.5316880000000  0.4661360000000  0.5606930000000 1.0
C      1  0.4691600000000  0.4644670000000  0.4365210000000 1.0
C      1  0.4876180000000  0.5579070000000  0.5757680000000 1.0
C      1  0.5743490000000  0.4833220000000  0.5616000000000 1.0
C      1  0.5571780000000  0.5703960000000  0.4809000000000 1.0
C      1  0.5141800000000  0.5590590000000  0.4247410000000 1.0
C      1  0.4811140000000  0.4390210000000  0.4242510000000 1.0
C      1  0.5177990000000  0.4410340000000  0.5710470000000 1.0
C      1  0.4266370000000  0.4844850000000  0.4414760000000 1.0
C      1  0.5745940000000  0.5104100000000  0.4427340000000 1.0
C      1  0.4226470000000  0.5209670000000  0.5635790000000 1.0
C      1  0.4412710000000  0.5740560000000  0.5156410000000 1.0
C      1  0.5654240000000  0.4230510000000  0.5203610000000 1.0
C      1  0.4447080000000  0.4262970000000  0.4858360000000 1.0
C      1  0.4971980000000  0.5178850000000  0.3898850000000 1.0
C      1  0.5046470000000  0.5146990000000  0.6124250000000 1.0
C      1  0.4877820000000  0.6077680000000  0.4975870000000 1.0
C      1  0.4863000000000  0.3880600000000  0.5019780000000 1.0
C      1  0.6137870000000  0.4952720000000  0.4852780000000 1.0
C      1  0.3913650000000  0.5013770000000  0.4847920000000 1.0
C      1  0.4788810000000  0.4775680000000  0.5184980000000 1.0
C      1  0.5215410000000  0.4796050000000  0.4787520000000 1.0
C      1  0.4781450000000  0.5190830000000  0.4799340000000 1.0
C      1  0.5197810000000  0.5189560000000  0.5183020000000 1.0
C      1  0.4994610000000  0.4981940000000  0.4986100000000 1.0
END
