TITL C-3577090-796-751 -5.30564460078695e-06 125000 -1130.21858186642 0 0 183 (C1) n - 1
REM
REM in /home/bkarasulu/work/CARBON/AIRSS/Generating-Clusters/EDIP-Nigel-Params/with-SteepDescent/Higher-Symm/SD-CG/HFTN-CG
REM
REM
REM
REM
REM
REM ./C.cell (12c818d87b63d06a65506943cc24bca4)
REM
REM compiler GCC version 9.2.1 20190827 (Red Hat 9.2.1-1)
REM options -cpp -mtune=generic -march=x86-64 -g -O0 -fpre-include=/usr/include/finclude/math-vector-fortran.h
REM seed 850250272 268666381 1615354489 -1853873960 -1949004975 -751167790 -1336123221 1514057747 386248183 -810157683 -2064272048 -433868040 -1712795731 -462771187 362996183 -1219058171 1488339226 -1691061964 -59445816 -1544789590 -100238538 252218016 2038738894 1325214260 2007928056 1407623529 -1622980400 -886183678 -1882108165 -1003750077 -1630198264 1685894789 473942286
REM
CELL 1.54180   50.00000   50.00000   50.00000   90.00000   90.00000   90.00000
LATT -1
SFAC C  
C      1  0.5762590000000  0.5668650000000  0.5180460000000 1.0
C      1  0.6004960000000  0.5208590000000  0.5211180000000 1.0
C      1  0.5953200000000  0.4717310000000  0.5183420000000 1.0
C      1  0.5504100000000  0.4264190000000  0.5148250000000 1.0
C      1  0.5050420000000  0.4080310000000  0.5109490000000 1.0
C      1  0.4377630000000  0.4233840000000  0.5166280000000 1.0
C      1  0.4011470000000  0.4559660000000  0.5253950000000 1.0
C      1  0.4025770000000  0.5090810000000  0.5208660000000 1.0
C      1  0.4251100000000  0.5582590000000  0.5200180000000 1.0
C      1  0.4664720000000  0.5906690000000  0.5142670000000 1.0
C      1  0.5312840000000  0.5932290000000  0.5142360000000 1.0
C      1  0.5325790000000  0.4639120000000  0.4055460000000 1.0
C      1  0.5070740000000  0.4584970000000  0.4240160000000 1.0
C      1  0.4750280000000  0.4563040000000  0.4113180000000 1.0
C      1  0.4538120000000  0.4759150000000  0.4246320000000 1.0
C      1  0.4473090000000  0.5024110000000  0.4110780000000 1.0
C      1  0.4653570000000  0.5264550000000  0.4241300000000 1.0
C      1  0.4865580000000  0.5470170000000  0.4132220000000 1.0
C      1  0.5173330000000  0.5484170000000  0.4285790000000 1.0
C      1  0.5433740000000  0.5380870000000  0.4160180000000 1.0
C      1  0.5512420000000  0.5124620000000  0.4287970000000 1.0
C      1  0.5530520000000  0.4889070000000  0.4097810000000 1.0
C      1  0.4662720000000  0.4562890000000  0.4679240000000 1.0
C      1  0.4496530000000  0.4808820000000  0.4577420000000 1.0
C      1  0.4563510000000  0.5092250000000  0.4672620000000 1.0
C      1  0.4777470000000  0.5162570000000  0.4506300000000 1.0
C      1  0.4915460000000  0.5365460000000  0.4654260000000 1.0
C      1  0.5189710000000  0.5388060000000  0.4584240000000 1.0
C      1  0.5402350000000  0.5130140000000  0.4715230000000 1.0
C      1  0.5516360000000  0.4853120000000  0.4637310000000 1.0
C      1  0.5408800000000  0.4574240000000  0.4697670000000 1.0
C      1  0.5163010000000  0.4463900000000  0.4528370000000 1.0
C      1  0.4919210000000  0.4393530000000  0.4704780000000 1.0
C      1  0.5055910000000  0.6179360000000  0.4913640000000 1.0
C      1  0.5776140000000  0.6024190000000  0.4949570000000 1.0
C      1  0.6271370000000  0.5524750000000  0.5196910000000 1.0
C      1  0.6329230000000  0.4833470000000  0.5043280000000 1.0
C      1  0.5882450000000  0.4251780000000  0.4962540000000 1.0
C      1  0.5295020000000  0.3876890000000  0.4842970000000 1.0
C      1  0.4566750000000  0.3936390000000  0.4929800000000 1.0
C      1  0.3871700000000  0.4188330000000  0.5100780000000 1.0
C      1  0.3666940000000  0.4885110000000  0.5108080000000 1.0
C      1  0.3841600000000  0.5589260000000  0.5161700000000 1.0
C      1  0.4337220000000  0.6041400000000  0.4924010000000 1.0
C      1  0.4757000000000  0.5637070000000  0.5025720000000 1.0
C      1  0.5292390000000  0.5639990000000  0.5034520000000 1.0
C      1  0.5548860000000  0.5475020000000  0.5075890000000 1.0
C      1  0.5847320000000  0.5125180000000  0.4967090000000 1.0
C      1  0.5741210000000  0.4861420000000  0.5020860000000 1.0
C      1  0.5322990000000  0.4480360000000  0.5010360000000 1.0
C      1  0.5025960000000  0.4371200000000  0.5004910000000 1.0
C      1  0.4403720000000  0.4498450000000  0.5029140000000 1.0
C      1  0.4161600000000  0.4662130000000  0.4994570000000 1.0
C      1  0.4234870000000  0.4942950000000  0.5056110000000 1.0
C      1  0.4491440000000  0.5441170000000  0.5043530000000 1.0
C      1  0.5790210000000  0.5200790000000  0.4357070000000 1.0
C      1  0.5798020000000  0.4748870000000  0.4189310000000 1.0
C      1  0.5493870000000  0.4390230000000  0.4103480000000 1.0
C      1  0.5044280000000  0.4219270000000  0.4124490000000 1.0
C      1  0.4609000000000  0.4290510000000  0.4170130000000 1.0
C      1  0.4282600000000  0.4593880000000  0.4216650000000 1.0
C      1  0.4175880000000  0.5049980000000  0.4237340000000 1.0
C      1  0.4393720000000  0.5433770000000  0.4259900000000 1.0
C      1  0.4748390000000  0.5743230000000  0.4230600000000 1.0
C      1  0.5198520000000  0.5789680000000  0.4328500000000 1.0
C      1  0.5612320000000  0.5604690000000  0.4414670000000 1.0
C      1  0.4712610000000  0.5890510000000  0.5438710000000 1.0
C      1  0.5269390000000  0.5936420000000  0.5437660000000 1.0
C      1  0.5733170000000  0.5687690000000  0.5474640000000 1.0
C      1  0.5867050000000  0.5196660000000  0.5479440000000 1.0
C      1  0.5833620000000  0.4691460000000  0.5458370000000 1.0
C      1  0.5492220000000  0.4281650000000  0.5454260000000 1.0
C      1  0.5014260000000  0.4096630000000  0.5406460000000 1.0
C      1  0.4489290000000  0.4233630000000  0.5439800000000 1.0
C      1  0.4146840000000  0.4605580000000  0.5532500000000 1.0
C      1  0.4067740000000  0.5111280000000  0.5504810000000 1.0
C      1  0.4300850000000  0.5566420000000  0.5494610000000 1.0
C      1  0.4634070000000  0.4664480000000  0.6046010000000 1.0
C      1  0.4474260000000  0.4894730000000  0.6097560000000 1.0
C      1  0.4517610000000  0.5277440000000  0.6062660000000 1.0
C      1  0.4758740000000  0.5357630000000  0.5930960000000 1.0
C      1  0.4951400000000  0.5543560000000  0.6047100000000 1.0
C      1  0.5235230000000  0.5534980000000  0.6048080000000 1.0
C      1  0.5516770000000  0.5275020000000  0.6080690000000 1.0
C      1  0.5544440000000  0.4994650000000  0.6074100000000 1.0
C      1  0.5388740000000  0.4641310000000  0.6074600000000 1.0
C      1  0.5133140000000  0.4523960000000  0.6034480000000 1.0
C      1  0.4897760000000  0.4636870000000  0.6141030000000 1.0
C      1  0.4887410000000  0.5417990000000  0.3839640000000 1.0
C      1  0.5146990000000  0.5367370000000  0.3758030000000 1.0
C      1  0.5393410000000  0.5300780000000  0.3870460000000 1.0
C      1  0.5500390000000  0.5026980000000  0.3828070000000 1.0
C      1  0.5374020000000  0.4872540000000  0.3631550000000 1.0
C      1  0.5255340000000  0.4660450000000  0.3767640000000 1.0
C      1  0.5001040000000  0.4584310000000  0.3699650000000 1.0
C      1  0.4754410000000  0.4602940000000  0.3817880000000 1.0
C      1  0.4582330000000  0.4791690000000  0.3715500000000 1.0
C      1  0.4518360000000  0.5038230000000  0.3817100000000 1.0
C      1  0.4687930000000  0.5247650000000  0.3748240000000 1.0
C      1  0.5426510000000  0.5642200000000  0.5846770000000 1.0
C      1  0.5627880000000  0.5439730000000  0.5867670000000 1.0
C      1  0.5698490000000  0.4874860000000  0.5862010000000 1.0
C      1  0.5586860000000  0.4609600000000  0.5857810000000 1.0
C      1  0.5092900000000  0.4406180000000  0.5774900000000 1.0
C      1  0.4817930000000  0.4377610000000  0.5714770000000 1.0
C      1  0.4597360000000  0.4537950000000  0.5791470000000 1.0
C      1  0.4244250000000  0.4954030000000  0.5925610000000 1.0
C      1  0.4274160000000  0.5243060000000  0.5908080000000 1.0
C      1  0.4755230000000  0.5446530000000  0.5640230000000 1.0
C      1  0.5026120000000  0.5592160000000  0.5670700000000 1.0
C      1  0.5313610000000  0.4178820000000  0.4210100000000 1.0
C      1  0.4822230000000  0.4127020000000  0.4289700000000 1.0
C      1  0.4368300000000  0.4332040000000  0.4347820000000 1.0
C      1  0.4100380000000  0.4782490000000  0.4370600000000 1.0
C      1  0.4182200000000  0.5292830000000  0.4408190000000 1.0
C      1  0.4482690000000  0.5690250000000  0.4357480000000 1.0
C      1  0.4929670000000  0.5849580000000  0.4439450000000 1.0
C      1  0.5414160000000  0.5780690000000  0.4536640000000 1.0
C      1  0.5774090000000  0.5417250000000  0.4572910000000 1.0
C      1  0.5925420000000  0.4930380000000  0.4403250000000 1.0
C      1  0.5713320000000  0.4468430000000  0.4293140000000 1.0
C      1  0.4860350000000  0.4530950000000  0.5235050000000 1.0
C      1  0.4612610000000  0.4671750000000  0.5135460000000 1.0
C      1  0.4498540000000  0.4942700000000  0.5168720000000 1.0
C      1  0.4608370000000  0.5208640000000  0.5187590000000 1.0
C      1  0.4828960000000  0.5276070000000  0.5366510000000 1.0
C      1  0.5022720000000  0.5525710000000  0.5217210000000 1.0
C      1  0.5239750000000  0.5409830000000  0.5520990000000 1.0
C      1  0.5472610000000  0.5266940000000  0.5292320000000 1.0
C      1  0.5531050000000  0.4917050000000  0.5239930000000 1.0
C      1  0.5308340000000  0.4709480000000  0.5200280000000 1.0
C      1  0.5057220000000  0.4733160000000  0.5342680000000 1.0
C      1  0.5636650000000  0.4427870000000  0.4574320000000 1.0
C      1  0.5290140000000  0.4197980000000  0.4487520000000 1.0
C      1  0.4836750000000  0.4141780000000  0.4577610000000 1.0
C      1  0.4469320000000  0.4361100000000  0.4615180000000 1.0
C      1  0.4204310000000  0.4771120000000  0.4649120000000 1.0
C      1  0.4390560000000  0.5343040000000  0.4721110000000 1.0
C      1  0.4521970000000  0.5618610000000  0.4639780000000 1.0
C      1  0.4809900000000  0.5638150000000  0.4705990000000 1.0
C      1  0.5253780000000  0.5636230000000  0.4740010000000 1.0
C      1  0.5645720000000  0.5299110000000  0.4830750000000 1.0
C      1  0.5801770000000  0.4830130000000  0.4641220000000 1.0
C      1  0.5030900000000  0.3800900000000  0.4815160000000 1.0
C      1  0.4288280000000  0.3926100000000  0.4940810000000 1.0
C      1  0.3678760000000  0.4383090000000  0.5142640000000 1.0
C      1  0.3683420000000  0.5150690000000  0.5031010000000 1.0
C      1  0.3945700000000  0.5839470000000  0.5119850000000 1.0
C      1  0.4564090000000  0.6187380000000  0.4871320000000 1.0
C      1  0.5325030000000  0.6233960000000  0.4886470000000 1.0
C      1  0.6016900000000  0.5895470000000  0.4980870000000 1.0
C      1  0.6402070000000  0.5282530000000  0.5220240000000 1.0
C      1  0.6261590000000  0.4577840000000  0.4967770000000 1.0
C      1  0.5745200000000  0.4013450000000  0.4955330000000 1.0
C      1  0.4562730000000  0.5671000000000  0.5580430000000 1.0
C      1  0.4998560000000  0.5844240000000  0.5520820000000 1.0
C      1  0.5471830000000  0.5774630000000  0.5584140000000 1.0
C      1  0.5791700000000  0.5439280000000  0.5621030000000 1.0
C      1  0.5793720000000  0.4941480000000  0.5594200000000 1.0
C      1  0.5642740000000  0.4500580000000  0.5585410000000 1.0
C      1  0.5229210000000  0.4219550000000  0.5580350000000 1.0
C      1  0.4786770000000  0.4293240000000  0.5442960000000 1.0
C      1  0.4371960000000  0.4436380000000  0.5625300000000 1.0
C      1  0.4150430000000  0.4873800000000  0.5652520000000 1.0
C      1  0.4240190000000  0.5311330000000  0.5622970000000 1.0
C      1  0.3906070000000  0.5336040000000  0.5064930000000 1.0
C      1  0.4223490000000  0.5884090000000  0.5124270000000 1.0
C      1  0.4800870000000  0.6154730000000  0.5021450000000 1.0
C      1  0.5533620000000  0.6117790000000  0.5045720000000 1.0
C      1  0.6045010000000  0.5624640000000  0.5066470000000 1.0
C      1  0.6260660000000  0.5034500000000  0.5224170000000 1.0
C      1  0.6041470000000  0.4444330000000  0.5083110000000 1.0
C      1  0.5473180000000  0.3976490000000  0.5035690000000 1.0
C      1  0.4834280000000  0.3886380000000  0.5000150000000 1.0
C      1  0.4121930000000  0.4068900000000  0.5132610000000 1.0
C      1  0.3722860000000  0.4650030000000  0.5247000000000 1.0
C      1  0.5023880000000  0.5031090000000  0.5398260000000 1.0
C      1  0.5186540000000  0.5125540000000  0.5626260000000 1.0
C      1  0.5203720000000  0.5137430000000  0.5172880000000 1.0
C      1  0.5202810000000  0.5019960000000  0.4900680000000 1.0
C      1  0.5102970000000  0.5089450000000  0.5874500000000 1.0
C      1  0.4947640000000  0.4924410000000  0.4490440000000 1.0
C      1  0.5012250000000  0.4873500000000  0.4754150000000 1.0
END
