TITL C-3578209-2550-411 -1.53397316273319e-06 125000 -1084.28422467545 0 0 176 (C1) n - 1
REM
REM in /home/bkarasulu/work/CARBON/AIRSS/Generating-Clusters/EDIP-Nigel-Params/with-SteepDescent/Higher-Symm/SD-CG/HFTN-CG
REM
REM
REM
REM
REM
REM ./C.cell (12c818d87b63d06a65506943cc24bca4)
REM
REM compiler GCC version 9.2.1 20190827 (Red Hat 9.2.1-1)
REM options -cpp -mtune=generic -march=x86-64 -g -O0 -fpre-include=/usr/include/finclude/math-vector-fortran.h
REM seed -275574090 -756140255 70637059 -1236031905 1015273710 -1154632824 1196183742 381107967 755763969 -47929710 -179818594 1350955079 1769809076 -1966567003 -777145248 -492773512 -1023342093 1148195191 616598467 -1442562771 -1901045334 625224403 -261354411 -2066114461 -803981789 317625084 -5252871 399218820 2056105794 266038548 -1832506499 307547532 -1646254124
REM
CELL 1.54180   50.00000   50.00000   50.00000   90.00000   90.00000   90.00000
LATT -1
SFAC C  
C      1  0.4953660000000  0.4444970000000  0.5251820000000 1.0
C      1  0.4511450000000  0.4812770000000  0.5262950000000 1.0
C      1  0.4620610000000  0.5406400000000  0.5252010000000 1.0
C      1  0.5435680000000  0.5543810000000  0.5244400000000 1.0
C      1  0.5521410000000  0.4761090000000  0.5259220000000 1.0
C      1  0.4904370000000  0.5561620000000  0.4765690000000 1.0
C      1  0.4536740000000  0.5140190000000  0.4610730000000 1.0
C      1  0.4694250000000  0.4582760000000  0.4755860000000 1.0
C      1  0.5325150000000  0.4606780000000  0.4766860000000 1.0
C      1  0.5491850000000  0.5217770000000  0.4761870000000 1.0
C      1  0.4343760000000  0.4203390000000  0.5538300000000 1.0
C      1  0.3993030000000  0.5366550000000  0.5565920000000 1.0
C      1  0.5035030000000  0.6043450000000  0.5488710000000 1.0
C      1  0.6000620000000  0.5235090000000  0.5496610000000 1.0
C      1  0.5527610000000  0.4105790000000  0.5510540000000 1.0
C      1  0.4316920000000  0.5822420000000  0.4460310000000 1.0
C      1  0.4057670000000  0.4584580000000  0.4570570000000 1.0
C      1  0.5078830000000  0.3984870000000  0.4491430000000 1.0
C      1  0.5997460000000  0.4777430000000  0.4488230000000 1.0
C      1  0.5540240000000  0.5843640000000  0.4451650000000 1.0
C      1  0.5997840000000  0.4638130000000  0.4745000000000 1.0
C      1  0.4944380000000  0.3943030000000  0.4746580000000 1.0
C      1  0.4088290000000  0.4678630000000  0.4865880000000 1.0
C      1  0.4452530000000  0.5902700000000  0.4715120000000 1.0
C      1  0.5679940000000  0.5793140000000  0.4713780000000 1.0
C      1  0.6018720000000  0.5348740000000  0.5234570000000 1.0
C      1  0.4981130000000  0.6135240000000  0.5224640000000 1.0
C      1  0.3932000000000  0.5302660000000  0.5295330000000 1.0
C      1  0.4416790000000  0.4083160000000  0.5281530000000 1.0
C      1  0.5637990000000  0.4146810000000  0.5230700000000 1.0
C      1  0.5080450000000  0.4737140000000  0.4327460000000 1.0
C      1  0.4783790000000  0.4860240000000  0.4302610000000 1.0
C      1  0.4816430000000  0.5194110000000  0.4283760000000 1.0
C      1  0.5125210000000  0.5268160000000  0.4306500000000 1.0
C      1  0.5292150000000  0.4988990000000  0.4332860000000 1.0
C      1  0.5017930000000  0.5246970000000  0.5693070000000 1.0
C      1  0.4728250000000  0.5109100000000  0.5693280000000 1.0
C      1  0.4772190000000  0.4784490000000  0.5691950000000 1.0
C      1  0.5095590000000  0.4717560000000  0.5676320000000 1.0
C      1  0.5250060000000  0.5011810000000  0.5682560000000 1.0
C      1  0.4492770000000  0.5936880000000  0.4271340000000 1.0
C      1  0.5715290000000  0.5763120000000  0.4245910000000 1.0
C      1  0.5942560000000  0.4583620000000  0.4293110000000 1.0
C      1  0.4871090000000  0.3985250000000  0.4302150000000 1.0
C      1  0.3965070000000  0.4813940000000  0.4443010000000 1.0
C      1  0.4501050000000  0.4102700000000  0.5744500000000 1.0
C      1  0.5706680000000  0.4227920000000  0.5688490000000 1.0
C      1  0.5908230000000  0.5437810000000  0.5665320000000 1.0
C      1  0.4799320000000  0.5997260000000  0.5634490000000 1.0
C      1  0.3905480000000  0.5168650000000  0.5742800000000 1.0
C      1  0.4870530000000  0.4820050000000  0.4767480000000 1.0
C      1  0.4788440000000  0.5077960000000  0.4710910000000 1.0
C      1  0.4978930000000  0.5269540000000  0.4791920000000 1.0
C      1  0.5228420000000  0.5120550000000  0.4874090000000 1.0
C      1  0.5150910000000  0.4835440000000  0.4826430000000 1.0
C      1  0.4814110000000  0.5201060000000  0.5196480000000 1.0
C      1  0.4770670000000  0.4927180000000  0.5260420000000 1.0
C      1  0.4981650000000  0.4744150000000  0.5222490000000 1.0
C      1  0.5239380000000  0.4868640000000  0.5261080000000 1.0
C      1  0.5068620000000  0.5299000000000  0.5264200000000 1.0
C      1  0.4279770000000  0.5449390000000  0.5623150000000 1.0
C      1  0.5218000000000  0.5806020000000  0.5518040000000 1.0
C      1  0.5839090000000  0.4976850000000  0.5565290000000 1.0
C      1  0.5225420000000  0.4167730000000  0.5598740000000 1.0
C      1  0.4272200000000  0.4561360000000  0.5610760000000 1.0
C      1  0.4320280000000  0.4476300000000  0.4439750000000 1.0
C      1  0.5278240000000  0.4230170000000  0.4432900000000 1.0
C      1  0.5822460000000  0.5038340000000  0.4423340000000 1.0
C      1  0.5229050000000  0.5791230000000  0.4374750000000 1.0
C      1  0.4278300000000  0.5515330000000  0.4408220000000 1.0
C      1  0.4707550000000  0.4712990000000  0.5972300000000 1.0
C      1  0.4643310000000  0.5153820000000  0.5975050000000 1.0
C      1  0.5042380000000  0.5349980000000  0.5970260000000 1.0
C      1  0.5344210000000  0.5022050000000  0.5964860000000 1.0
C      1  0.5143380000000  0.4625600000000  0.5957020000000 1.0
C      1  0.4754720000000  0.5244270000000  0.3998590000000 1.0
C      1  0.4713610000000  0.4800090000000  0.4019880000000 1.0
C      1  0.5122360000000  0.4628760000000  0.4053720000000 1.0
C      1  0.5411480000000  0.4966850000000  0.4060880000000 1.0
C      1  0.5186500000000  0.5348780000000  0.4026040000000 1.0
C      1  0.4062150000000  0.5065800000000  0.4393970000000 1.0
C      1  0.4753930000000  0.5956670000000  0.4338500000000 1.0
C      1  0.5844160000000  0.5543130000000  0.4334220000000 1.0
C      1  0.5759450000000  0.4389980000000  0.4318920000000 1.0
C      1  0.4624800000000  0.4080480000000  0.4351700000000 1.0
C      1  0.3930430000000  0.4901600000000  0.5744350000000 1.0
C      1  0.4744350000000  0.4050950000000  0.5642140000000 1.0
C      1  0.5824450000000  0.4465580000000  0.5654190000000 1.0
C      1  0.5710460000000  0.5615320000000  0.5633300000000 1.0
C      1  0.4564270000000  0.5868950000000  0.5664330000000 1.0
C      1  0.5430720000000  0.4470240000000  0.5280030000000 1.0
C      1  0.4650210000000  0.4396000000000  0.5298260000000 1.0
C      1  0.4334380000000  0.5039870000000  0.5329430000000 1.0
C      1  0.4803810000000  0.5648230000000  0.5288670000000 1.0
C      1  0.5527440000000  0.5249100000000  0.5246210000000 1.0
C      1  0.5406430000000  0.5519310000000  0.4721240000000 1.0
C      1  0.4603460000000  0.5554120000000  0.4740530000000 1.0
C      1  0.4357860000000  0.4920480000000  0.4591000000000 1.0
C      1  0.4915990000000  0.4382230000000  0.4720870000000 1.0
C      1  0.5574730000000  0.4754660000000  0.4722960000000 1.0
C      1  0.5543760000000  0.4997010000000  0.4546060000000 1.0
C      1  0.5144840000000  0.4484640000000  0.4543300000000 1.0
C      1  0.4535470000000  0.4691260000000  0.4497320000000 1.0
C      1  0.4551990000000  0.5400100000000  0.4477320000000 1.0
C      1  0.5188150000000  0.5526200000000  0.4505380000000 1.0
C      1  0.5548740000000  0.5057110000000  0.5508180000000 1.0
C      1  0.5045170000000  0.5549530000000  0.5455510000000 1.0
C      1  0.4481870000000  0.5254080000000  0.5488450000000 1.0
C      1  0.4548600000000  0.4620230000000  0.5500130000000 1.0
C      1  0.5185370000000  0.4440610000000  0.5472110000000 1.0
C      1  0.5914010000000  0.5321750000000  0.4493570000000 1.0
C      1  0.5588510000000  0.4241070000000  0.4484220000000 1.0
C      1  0.4442020000000  0.4208890000000  0.4522160000000 1.0
C      1  0.4062420000000  0.5324310000000  0.4530950000000 1.0
C      1  0.4978140000000  0.5913630000000  0.4504370000000 1.0
C      1  0.5890490000000  0.4675530000000  0.5481430000000 1.0
C      1  0.5555420000000  0.5742410000000  0.5430150000000 1.0
C      1  0.4345630000000  0.5734470000000  0.5547150000000 1.0
C      1  0.4063900000000  0.4763780000000  0.5540520000000 1.0
C      1  0.4987160000000  0.3998310000000  0.5514320000000 1.0
C      1  0.4272680000000  0.5119160000000  0.5045200000000 1.0
C      1  0.4971500000000  0.5716000000000  0.5020790000000 1.0
C      1  0.5689720000000  0.5164260000000  0.4999180000000 1.0
C      1  0.5345720000000  0.4385960000000  0.4991040000000 1.0
C      1  0.4507200000000  0.4510150000000  0.5029700000000 1.0
C      1  0.4306870000000  0.4871170000000  0.4874220000000 1.0
C      1  0.5049340000000  0.4294160000000  0.4990460000000 1.0
C      1  0.5689400000000  0.4846310000000  0.4994420000000 1.0
C      1  0.5304720000000  0.5683060000000  0.4996830000000 1.0
C      1  0.4433780000000  0.5421760000000  0.5005490000000 1.0
C      1  0.5396670000000  0.5203580000000  0.3914890000000 1.0
C      1  0.5350880000000  0.4728520000000  0.3930280000000 1.0
C      1  0.4887950000000  0.4616700000000  0.3903510000000 1.0
C      1  0.4642430000000  0.5024110000000  0.3870520000000 1.0
C      1  0.4958300000000  0.5384150000000  0.3869500000000 1.0
C      1  0.5335230000000  0.4775330000000  0.6092850000000 1.0
C      1  0.5265150000000  0.5249750000000  0.6104150000000 1.0
C      1  0.4798220000000  0.5345820000000  0.6105180000000 1.0
C      1  0.4585320000000  0.4919140000000  0.6113360000000 1.0
C      1  0.4909050000000  0.4566590000000  0.6096060000000 1.0
C      1  0.6055070000000  0.4616230000000  0.5241050000000 1.0
C      1  0.4994320000000  0.3926600000000  0.5228080000000 1.0
C      1  0.3912060000000  0.4675260000000  0.5301430000000 1.0
C      1  0.4422160000000  0.6024270000000  0.5165260000000 1.0
C      1  0.5733170000000  0.5872860000000  0.5217600000000 1.0
C      1  0.6074430000000  0.5341400000000  0.4741060000000 1.0
C      1  0.5028240000000  0.6097060000000  0.4728630000000 1.0
C      1  0.3942780000000  0.5364470000000  0.4805850000000 1.0
C      1  0.4367600000000  0.4097510000000  0.4786820000000 1.0
C      1  0.5695080000000  0.4113780000000  0.4733080000000 1.0
C      1  0.4043330000000  0.4427080000000  0.5254780000000 1.0
C      1  0.4262500000000  0.5820000000000  0.5275290000000 1.0
C      1  0.5589490000000  0.6096250000000  0.5133640000000 1.0
C      1  0.6209710000000  0.4843420000000  0.5187100000000 1.0
C      1  0.5251190000000  0.3835970000000  0.5160160000000 1.0
C      1  0.3980260000000  0.5626920000000  0.4902020000000 1.0
C      1  0.4121920000000  0.4202530000000  0.4860790000000 1.0
C      1  0.5529590000000  0.3895380000000  0.4788210000000 1.0
C      1  0.6203390000000  0.5097480000000  0.4792460000000 1.0
C      1  0.5296180000000  0.6151310000000  0.4768380000000 1.0
C      1  0.5986630000000  0.5484830000000  0.4987240000000 1.0
C      1  0.5767660000000  0.4255990000000  0.4986660000000 1.0
C      1  0.4545310000000  0.4068370000000  0.5020710000000 1.0
C      1  0.3973990000000  0.5161630000000  0.5044170000000 1.0
C      1  0.4886650000000  0.6011520000000  0.4978310000000 1.0
C      1  0.5947710000000  0.4492010000000  0.4988110000000 1.0
C      1  0.5801210000000  0.5711950000000  0.4971890000000 1.0
C      1  0.4583440000000  0.6036730000000  0.4940230000000 1.0
C      1  0.3886180000000  0.4839770000000  0.5043940000000 1.0
C      1  0.4805460000000  0.3935820000000  0.4998160000000 1.0
C      1  0.6041910000000  0.4987250000000  0.5003220000000 1.0
C      1  0.5323760000000  0.4014470000000  0.4949390000000 1.0
C      1  0.4191830000000  0.4439750000000  0.5010270000000 1.0
C      1  0.4193080000000  0.5596250000000  0.5088450000000 1.0
C      1  0.5380680000000  0.5987340000000  0.4977750000000 1.0
C      1  0.5266580000000  0.5134080000000  0.5163080000000 1.0
END
