TITL C-3578195-8548-507 6.39879441828346e-06 125000 -787.098579006986 0 0 128 (C1) n - 1
REM
REM in /home/bkarasulu/work/CARBON/AIRSS/Generating-Clusters/EDIP-Nigel-Params/with-SteepDescent/Higher-Symm/SD-CG/HFTN-CG
REM
REM
REM
REM
REM
REM ./C.cell (12c818d87b63d06a65506943cc24bca4)
REM
REM compiler GCC version 9.2.1 20190827 (Red Hat 9.2.1-1)
REM options -cpp -mtune=generic -march=x86-64 -g -O0 -fpre-include=/usr/include/finclude/math-vector-fortran.h
REM seed 54054668 -19694773 -1066985901 1377265886 1042700168 552986376 1814521154 -1944160268 1200306198 295406756 863064163 -1553003074 545176495 1751937954 1786240369 548611233 94043074 641218418 -2090463573 -415122586 1686722517 -443722312 506432353 11902296 53792197 -954973318 -2009332663 705663551 398596753 274044616 -1251067987 -67186240 1922602522
REM
CELL 1.54180   50.00000   50.00000   50.00000   90.00000   90.00000   90.00000
LATT -1
SFAC C  
C      1  0.4446190000000  0.4686870000000  0.5880790000000 1.0
C      1  0.4503260000000  0.5295990000000  0.5879170000000 1.0
C      1  0.4463290000000  0.5724670000000  0.5447030000000 1.0
C      1  0.4440380000000  0.5912350000000  0.4847620000000 1.0
C      1  0.4500230000000  0.5581990000000  0.4308510000000 1.0
C      1  0.4456340000000  0.5003550000000  0.4077690000000 1.0
C      1  0.4457220000000  0.4464590000000  0.4293940000000 1.0
C      1  0.4432920000000  0.4096970000000  0.4812890000000 1.0
C      1  0.4489180000000  0.4204120000000  0.5448590000000 1.0
C      1  0.4260140000000  0.4941530000000  0.5443770000000 1.0
C      1  0.4301490000000  0.5238450000000  0.5348280000000 1.0
C      1  0.4264150000000  0.5436950000000  0.5123430000000 1.0
C      1  0.4295950000000  0.5433940000000  0.4818350000000 1.0
C      1  0.4262470000000  0.5187370000000  0.4634240000000 1.0
C      1  0.4274750000000  0.4892130000000  0.4571370000000 1.0
C      1  0.4247250000000  0.4628590000000  0.4720980000000 1.0
C      1  0.4271200000000  0.4529950000000  0.5004500000000 1.0
C      1  0.4283700000000  0.4668520000000  0.5282160000000 1.0
C      1  0.5789330000000  0.5163220000000  0.5728330000000 1.0
C      1  0.5745720000000  0.5580740000000  0.5449510000000 1.0
C      1  0.5790070000000  0.5716690000000  0.4980790000000 1.0
C      1  0.5766930000000  0.5433170000000  0.4520790000000 1.0
C      1  0.5809780000000  0.5184930000000  0.4338870000000 1.0
C      1  0.5755190000000  0.4606980000000  0.4381510000000 1.0
C      1  0.5804340000000  0.4279660000000  0.4740110000000 1.0
C      1  0.5773650000000  0.4426780000000  0.5303060000000 1.0
C      1  0.5765010000000  0.4628470000000  0.5519600000000 1.0
C      1  0.5502580000000  0.5133670000000  0.5676010000000 1.0
C      1  0.5454030000000  0.5581910000000  0.5447860000000 1.0
C      1  0.5498020000000  0.5709360000000  0.4970500000000 1.0
C      1  0.5465870000000  0.5516710000000  0.4535660000000 1.0
C      1  0.5494950000000  0.5116830000000  0.4318060000000 1.0
C      1  0.5465740000000  0.4640910000000  0.4407050000000 1.0
C      1  0.5517630000000  0.4338210000000  0.4777090000000 1.0
C      1  0.5478630000000  0.4350940000000  0.5257220000000 1.0
C      1  0.5461810000000  0.4666060000000  0.5589670000000 1.0
C      1  0.4315710000000  0.5345740000000  0.5625690000000 1.0
C      1  0.4256620000000  0.5709980000000  0.5243250000000 1.0
C      1  0.4303560000000  0.5713660000000  0.4683410000000 1.0
C      1  0.4318530000000  0.5344470000000  0.4383660000000 1.0
C      1  0.4255020000000  0.4875800000000  0.4273970000000 1.0
C      1  0.4294040000000  0.4408180000000  0.4527940000000 1.0
C      1  0.4281890000000  0.4227930000000  0.5025360000000 1.0
C      1  0.4350450000000  0.4460710000000  0.5487300000000 1.0
C      1  0.4245750000000  0.4887320000000  0.5752390000000 1.0
C      1  0.5374290000000  0.4609430000000  0.5133220000000 1.0
C      1  0.5370690000000  0.4818020000000  0.5350650000000 1.0
C      1  0.5467570000000  0.5090700000000  0.5379610000000 1.0
C      1  0.5366720000000  0.5348940000000  0.5260620000000 1.0
C      1  0.5462520000000  0.5415610000000  0.4992020000000 1.0
C      1  0.5360800000000  0.5309700000000  0.4735110000000 1.0
C      1  0.5500450000000  0.5067700000000  0.4626010000000 1.0
C      1  0.5402990000000  0.4795820000000  0.4666540000000 1.0
C      1  0.5523950000000  0.4631890000000  0.4878930000000 1.0
C      1  0.4667060000000  0.4550050000000  0.5188200000000 1.0
C      1  0.4637300000000  0.4850160000000  0.5472460000000 1.0
C      1  0.4707490000000  0.5177500000000  0.5501460000000 1.0
C      1  0.4647520000000  0.5516800000000  0.5328410000000 1.0
C      1  0.4680400000000  0.5511680000000  0.4998170000000 1.0
C      1  0.4669210000000  0.5331200000000  0.4654410000000 1.0
C      1  0.4702320000000  0.4988340000000  0.4511340000000 1.0
C      1  0.4650910000000  0.4667230000000  0.4562230000000 1.0
C      1  0.4710290000000  0.4514270000000  0.4850910000000 1.0
C      1  0.4875100000000  0.4501340000000  0.5731690000000 1.0
C      1  0.4875820000000  0.4948040000000  0.5893730000000 1.0
C      1  0.4962760000000  0.5661020000000  0.5691770000000 1.0
C      1  0.4895280000000  0.5953560000000  0.5059660000000 1.0
C      1  0.4863250000000  0.5783580000000  0.4622620000000 1.0
C      1  0.4887810000000  0.5225990000000  0.4121710000000 1.0
C      1  0.4895420000000  0.4752420000000  0.4131410000000 1.0
C      1  0.4890610000000  0.4140160000000  0.4598010000000 1.0
C      1  0.4860630000000  0.4106970000000  0.5076480000000 1.0
C      1  0.5070340000000  0.5370350000000  0.5260740000000 1.0
C      1  0.4940910000000  0.5363290000000  0.4988780000000 1.0
C      1  0.5050420000000  0.5302070000000  0.4707180000000 1.0
C      1  0.4981530000000  0.5030200000000  0.4597110000000 1.0
C      1  0.5122050000000  0.4835780000000  0.4758390000000 1.0
C      1  0.5001060000000  0.4569830000000  0.4817920000000 1.0
C      1  0.5099310000000  0.4520520000000  0.5088020000000 1.0
C      1  0.4922820000000  0.4688550000000  0.5266360000000 1.0
C      1  0.4957880000000  0.5136870000000  0.5371860000000 1.0
C      1  0.4375510000000  0.4430990000000  0.5763160000000 1.0
C      1  0.4350540000000  0.5059020000000  0.5961580000000 1.0
C      1  0.4379900000000  0.5616330000000  0.5695080000000 1.0
C      1  0.4280340000000  0.5929310000000  0.5072750000000 1.0
C      1  0.4337370000000  0.5788260000000  0.4412490000000 1.0
C      1  0.4366750000000  0.5274620000000  0.4109790000000 1.0
C      1  0.4318940000000  0.4642290000000  0.4122980000000 1.0
C      1  0.4289550000000  0.4135150000000  0.4580740000000 1.0
C      1  0.4318020000000  0.4079860000000  0.5262190000000 1.0
C      1  0.5146120000000  0.4891670000000  0.5914390000000 1.0
C      1  0.5047850000000  0.5418090000000  0.5788590000000 1.0
C      1  0.5059250000000  0.5849550000000  0.5260750000000 1.0
C      1  0.5132970000000  0.5845870000000  0.4639650000000 1.0
C      1  0.5004070000000  0.5417690000000  0.4285230000000 1.0
C      1  0.5158580000000  0.4807030000000  0.4074200000000 1.0
C      1  0.5032030000000  0.4332060000000  0.4445920000000 1.0
C      1  0.5139440000000  0.4085210000000  0.5035300000000 1.0
C      1  0.4994140000000  0.4345000000000  0.5534230000000 1.0
C      1  0.5401040000000  0.4845760000000  0.4196220000000 1.0
C      1  0.5331110000000  0.4369290000000  0.4484860000000 1.0
C      1  0.5409950000000  0.4164870000000  0.5019400000000 1.0
C      1  0.5299300000000  0.4365970000000  0.5526570000000 1.0
C      1  0.5402320000000  0.4876950000000  0.5808650000000 1.0
C      1  0.5341870000000  0.5396560000000  0.5721670000000 1.0
C      1  0.5355530000000  0.5812100000000  0.5240990000000 1.0
C      1  0.5397030000000  0.5774570000000  0.4683740000000 1.0
C      1  0.5305570000000  0.5409730000000  0.4291230000000 1.0
C      1  0.5942900000000  0.4521930000000  0.4811170000000 1.0
C      1  0.5906730000000  0.4592080000000  0.5096660000000 1.0
C      1  0.5903510000000  0.4847700000000  0.5375000000000 1.0
C      1  0.5899530000000  0.5126290000000  0.5469190000000 1.0
C      1  0.5859600000000  0.5370250000000  0.5298650000000 1.0
C      1  0.5902730000000  0.5454430000000  0.5012870000000 1.0
C      1  0.5860230000000  0.5282420000000  0.4767660000000 1.0
C      1  0.5937710000000  0.5028660000000  0.4585610000000 1.0
C      1  0.5862110000000  0.4731780000000  0.4610160000000 1.0
C      1  0.4736530000000  0.4995800000000  0.4201010000000 1.0
C      1  0.4829770000000  0.4537480000000  0.4329130000000 1.0
C      1  0.4720090000000  0.4202050000000  0.4825300000000 1.0
C      1  0.4765680000000  0.4274370000000  0.5316250000000 1.0
C      1  0.4717310000000  0.4740420000000  0.5752410000000 1.0
C      1  0.4800390000000  0.5216690000000  0.5790010000000 1.0
C      1  0.4941770000000  0.5617240000000  0.5405310000000 1.0
C      1  0.4722170000000  0.5801380000000  0.4885670000000 1.0
C      1  0.4776920000000  0.5547380000000  0.4457480000000 1.0
C      1  0.5153380000000  0.4979460000000  0.5001570000000 1.0
C      1  0.4935680000000  0.4955520000000  0.5165440000000 1.0
END
