TITL C-3577080-309-467 2.2629398093191e-06 125000 -799.153275903031 0 0 129 (C1) n - 1
REM
REM in /home/bkarasulu/work/CARBON/AIRSS/Generating-Clusters/EDIP-Nigel-Params/with-SteepDescent/Higher-Symm/SD-CG/HFTN-CG
REM
REM
REM
REM
REM
REM ./C.cell (12c818d87b63d06a65506943cc24bca4)
REM
REM compiler GCC version 9.2.1 20190827 (Red Hat 9.2.1-1)
REM options -cpp -mtune=generic -march=x86-64 -g -O0 -fpre-include=/usr/include/finclude/math-vector-fortran.h
REM seed 1444512987 153729166 -1217767239 249036004 -149043772 -87219935 -1482297563 1071765406 1257314662 -953320478 -775408660 1477843149 -1203885067 -719468690 1645338800 2011283557 -1863699807 162785553 144043681 75144812 -629681657 -434319086 -2073715736 1592482934 870294295 2057984153 991965068 1372856200 219717311 -82507157 -147249167 -521658891 451835185
REM
CELL 1.54180   50.00000   50.00000   50.00000   90.00000   90.00000   90.00000
LATT -1
SFAC C  
C      1  0.4143950000000  0.4695040000000  0.5227730000000 1.0
C      1  0.5846840000000  0.4695500000000  0.5234710000000 1.0
C      1  0.5937660000000  0.5155360000000  0.4842290000000 1.0
C      1  0.4047850000000  0.5095950000000  0.4754680000000 1.0
C      1  0.5746370000000  0.4656660000000  0.4962510000000 1.0
C      1  0.4245590000000  0.4606490000000  0.4972080000000 1.0
C      1  0.5811500000000  0.5471000000000  0.5202850000000 1.0
C      1  0.4195310000000  0.5450010000000  0.5076340000000 1.0
C      1  0.4762310000000  0.5752530000000  0.5561590000000 1.0
C      1  0.5239840000000  0.5813440000000  0.5661440000000 1.0
C      1  0.5803450000000  0.5673940000000  0.5008680000000 1.0
C      1  0.4212150000000  0.5631590000000  0.4868340000000 1.0
C      1  0.4187690000000  0.5068800000000  0.5520580000000 1.0
C      1  0.5768030000000  0.5025040000000  0.5586040000000 1.0
C      1  0.5324950000000  0.5523350000000  0.4985390000000 1.0
C      1  0.4762740000000  0.5518660000000  0.4967430000000 1.0
C      1  0.4559320000000  0.4726480000000  0.4631240000000 1.0
C      1  0.5417420000000  0.4799710000000  0.4642020000000 1.0
C      1  0.5426160000000  0.5284140000000  0.5172720000000 1.0
C      1  0.4603040000000  0.5297070000000  0.5145450000000 1.0
C      1  0.5857780000000  0.4981450000000  0.5311330000000 1.0
C      1  0.4138220000000  0.4987070000000  0.5248360000000 1.0
C      1  0.5481280000000  0.5764740000000  0.5448640000000 1.0
C      1  0.4526760000000  0.5777430000000  0.5338810000000 1.0
C      1  0.5257170000000  0.5249420000000  0.5455170000000 1.0
C      1  0.4761450000000  0.5268770000000  0.5416690000000 1.0
C      1  0.4709400000000  0.4160300000000  0.5351170000000 1.0
C      1  0.5260290000000  0.4167040000000  0.5311330000000 1.0
C      1  0.4719970000000  0.4948330000000  0.4484300000000 1.0
C      1  0.5219180000000  0.4768550000000  0.4173830000000 1.0
C      1  0.5806970000000  0.4902540000000  0.4386300000000 1.0
C      1  0.4133630000000  0.4675580000000  0.4429630000000 1.0
C      1  0.5517060000000  0.5318640000000  0.5884330000000 1.0
C      1  0.4411620000000  0.5353590000000  0.5803240000000 1.0
C      1  0.5408930000000  0.4428040000000  0.5783270000000 1.0
C      1  0.4576500000000  0.4524400000000  0.5803180000000 1.0
C      1  0.4536970000000  0.5305720000000  0.4195730000000 1.0
C      1  0.5478190000000  0.5199090000000  0.4070130000000 1.0
C      1  0.4216590000000  0.4868390000000  0.5721110000000 1.0
C      1  0.5751080000000  0.4792150000000  0.5755010000000 1.0
C      1  0.5662920000000  0.5291960000000  0.5647750000000 1.0
C      1  0.4280320000000  0.5337100000000  0.5562760000000 1.0
C      1  0.5838530000000  0.5194580000000  0.5107610000000 1.0
C      1  0.4126040000000  0.5172670000000  0.5020330000000 1.0
C      1  0.4619330000000  0.5491280000000  0.4682130000000 1.0
C      1  0.5494760000000  0.5518120000000  0.4710010000000 1.0
C      1  0.4502490000000  0.4319760000000  0.4386470000000 1.0
C      1  0.5500210000000  0.4521140000000  0.4241420000000 1.0
C      1  0.4755910000000  0.5820270000000  0.5086680000000 1.0
C      1  0.5302730000000  0.5824230000000  0.5114020000000 1.0
C      1  0.5587650000000  0.4734210000000  0.4413200000000 1.0
C      1  0.4396130000000  0.4577550000000  0.4440330000000 1.0
C      1  0.4439050000000  0.4293900000000  0.5291740000000 1.0
C      1  0.5508130000000  0.4321790000000  0.5231140000000 1.0
C      1  0.5689200000000  0.4512550000000  0.5699380000000 1.0
C      1  0.4299900000000  0.4594830000000  0.5702300000000 1.0
C      1  0.4799730000000  0.5041730000000  0.5839940000000 1.0
C      1  0.5084950000000  0.5085390000000  0.5915490000000 1.0
C      1  0.5217880000000  0.5022220000000  0.4598170000000 1.0
C      1  0.4752670000000  0.5129370000000  0.4735670000000 1.0
C      1  0.5537930000000  0.5974440000000  0.4742700000000 1.0
C      1  0.4534000000000  0.5942520000000  0.4685050000000 1.0
C      1  0.4359310000000  0.4850340000000  0.4826450000000 1.0
C      1  0.5613990000000  0.4907300000000  0.4854840000000 1.0
C      1  0.4769650000000  0.5987010000000  0.4832370000000 1.0
C      1  0.5288860000000  0.6000800000000  0.4869490000000 1.0
C      1  0.5171750000000  0.5528300000000  0.5402120000000 1.0
C      1  0.4881100000000  0.5529630000000  0.5394500000000 1.0
C      1  0.5120690000000  0.5582370000000  0.5837500000000 1.0
C      1  0.4821630000000  0.5575860000000  0.5826900000000 1.0
C      1  0.4733140000000  0.4761340000000  0.5670420000000 1.0
C      1  0.5273910000000  0.4686840000000  0.5683380000000 1.0
C      1  0.5271370000000  0.4549530000000  0.4752130000000 1.0
C      1  0.4744880000000  0.4582120000000  0.4833830000000 1.0
C      1  0.4339790000000  0.5521310000000  0.5328740000000 1.0
C      1  0.5661100000000  0.5515120000000  0.5451600000000 1.0
C      1  0.4036330000000  0.4891770000000  0.4566180000000 1.0
C      1  0.5879660000000  0.5074560000000  0.4585010000000 1.0
C      1  0.5242550000000  0.5311730000000  0.5788620000000 1.0
C      1  0.4689200000000  0.5307160000000  0.5736520000000 1.0
C      1  0.4743990000000  0.4790490000000  0.5131810000000 1.0
C      1  0.5279430000000  0.4809780000000  0.5195460000000 1.0
C      1  0.4607380000000  0.4885950000000  0.4013950000000 1.0
C      1  0.5036210000000  0.5067220000000  0.3911120000000 1.0
C      1  0.5276280000000  0.4181370000000  0.5695250000000 1.0
C      1  0.4674040000000  0.4254110000000  0.5725780000000 1.0
C      1  0.4383840000000  0.4333040000000  0.5005820000000 1.0
C      1  0.5571640000000  0.4415370000000  0.4959830000000 1.0
C      1  0.4618050000000  0.4173650000000  0.4599570000000 1.0
C      1  0.5375530000000  0.4286850000000  0.4360260000000 1.0
C      1  0.4640680000000  0.4302240000000  0.4862800000000 1.0
C      1  0.5390830000000  0.4296980000000  0.4644550000000 1.0
C      1  0.5323470000000  0.5545350000000  0.4458550000000 1.0
C      1  0.4811590000000  0.5565900000000  0.4470630000000 1.0
C      1  0.5326210000000  0.4979890000000  0.3962580000000 1.0
C      1  0.4551140000000  0.5033180000000  0.4245310000000 1.0
C      1  0.5681620000000  0.5733920000000  0.4764530000000 1.0
C      1  0.4404960000000  0.5694250000000  0.4681500000000 1.0
C      1  0.4795970000000  0.5401710000000  0.4236250000000 1.0
C      1  0.5293970000000  0.5339190000000  0.4235760000000 1.0
C      1  0.4597780000000  0.5027170000000  0.4982070000000 1.0
C      1  0.5365640000000  0.5026980000000  0.5019170000000 1.0
C      1  0.4583560000000  0.4760690000000  0.5393520000000 1.0
C      1  0.5438220000000  0.4769390000000  0.5438480000000 1.0
C      1  0.4356960000000  0.4569870000000  0.5404650000000 1.0
C      1  0.5635550000000  0.4549560000000  0.5397580000000 1.0
C      1  0.5055560000000  0.5447600000000  0.4861990000000 1.0
C      1  0.5025110000000  0.4311480000000  0.4035460000000 1.0
C      1  0.5036310000000  0.4034840000000  0.4580500000000 1.0
C      1  0.4991220000000  0.4097500000000  0.5146970000000 1.0
C      1  0.5066000000000  0.5623810000000  0.4607090000000 1.0
C      1  0.5054640000000  0.5141550000000  0.4816150000000 1.0
C      1  0.5086890000000  0.4203230000000  0.4313200000000 1.0
C      1  0.5001240000000  0.4673210000000  0.5544610000000 1.0
C      1  0.4984800000000  0.4402330000000  0.5454600000000 1.0
C      1  0.5026760000000  0.5214810000000  0.4191730000000 1.0
C      1  0.4982910000000  0.4568100000000  0.4660370000000 1.0
C      1  0.5040260000000  0.4961760000000  0.4373320000000 1.0
C      1  0.4875690000000  0.4401920000000  0.4433850000000 1.0
C      1  0.4859960000000  0.4818160000000  0.3912220000000 1.0
C      1  0.5045570000000  0.5925460000000  0.4702030000000 1.0
C      1  0.5007010000000  0.5107130000000  0.5388650000000 1.0
C      1  0.4973210000000  0.4225780000000  0.5699280000000 1.0
C      1  0.5005260000000  0.4051830000000  0.4860710000000 1.0
C      1  0.5246420000000  0.4863330000000  0.5903210000000 1.0
C      1  0.5011350000000  0.4842400000000  0.5293510000000 1.0
C      1  0.5001620000000  0.5938060000000  0.5514160000000 1.0
C      1  0.5026940000000  0.5906740000000  0.5219350000000 1.0
C      1  0.5002770000000  0.4597210000000  0.4058690000000 1.0
END
