TITL C-3578198-8939-657 -1.57621656975994e-06 125000 -759.957971851664 0 0 120 (C1) n - 1
REM
REM in /home/bkarasulu/work/CARBON/AIRSS/Generating-Clusters/EDIP-Nigel-Params/with-SteepDescent/Higher-Symm/SD-CG/HFTN-CG
REM
REM
REM
REM
REM
REM ./C.cell (12c818d87b63d06a65506943cc24bca4)
REM
REM compiler GCC version 9.2.1 20190827 (Red Hat 9.2.1-1)
REM options -cpp -mtune=generic -march=x86-64 -g -O0 -fpre-include=/usr/include/finclude/math-vector-fortran.h
REM seed 781408379 -2142748665 -2077433569 724276694 1943046990 -1532626157 -1186287458 1470946376 -258988071 37301788 -1111829811 -288603145 -30906608 -1649379301 -404838087 1370007586 -859534976 2128310331 1469064460 1635478654 239244162 -1304861879 -1009984185 1115730354 360281901 1757910454 1824155601 -1270719040 -2004400006 -699130991 52419999 1006620578 1032804461
REM
CELL 1.54180   50.00000   50.00000   50.00000   90.00000   90.00000   90.00000
LATT -1
SFAC C  
C      1  0.4758940000000  0.5316040000000  0.4851200000000 1.0
C      1  0.4816680000000  0.4698030000000  0.5137960000000 1.0
C      1  0.5221350000000  0.5314200000000  0.4840660000000 1.0
C      1  0.5164600000000  0.4695760000000  0.5147840000000 1.0
C      1  0.4760840000000  0.4695660000000  0.4847390000000 1.0
C      1  0.4823460000000  0.5293570000000  0.5140300000000 1.0
C      1  0.5227580000000  0.4664680000000  0.4861460000000 1.0
C      1  0.5159120000000  0.5294290000000  0.5128580000000 1.0
C      1  0.4322500000000  0.4433560000000  0.4725740000000 1.0
C      1  0.4330580000000  0.5574610000000  0.5298140000000 1.0
C      1  0.5688060000000  0.4421600000000  0.4722230000000 1.0
C      1  0.5670120000000  0.5563490000000  0.5278860000000 1.0
C      1  0.4327420000000  0.5571450000000  0.4727740000000 1.0
C      1  0.4321790000000  0.4426680000000  0.5296120000000 1.0
C      1  0.5683430000000  0.5571950000000  0.4719260000000 1.0
C      1  0.5655210000000  0.4432250000000  0.5281370000000 1.0
C      1  0.5584590000000  0.4480360000000  0.4452950000000 1.0
C      1  0.5557890000000  0.5530110000000  0.5547850000000 1.0
C      1  0.4440000000000  0.4487330000000  0.4449480000000 1.0
C      1  0.4435200000000  0.5521660000000  0.5569060000000 1.0
C      1  0.5582310000000  0.5525550000000  0.4440650000000 1.0
C      1  0.5554110000000  0.4475700000000  0.5561840000000 1.0
C      1  0.4444640000000  0.5515240000000  0.4452430000000 1.0
C      1  0.4431840000000  0.4475030000000  0.5564670000000 1.0
C      1  0.5295210000000  0.4835790000000  0.4085910000000 1.0
C      1  0.5239780000000  0.5167440000000  0.5876550000000 1.0
C      1  0.4760300000000  0.4840470000000  0.4086250000000 1.0
C      1  0.4764380000000  0.5151560000000  0.5881140000000 1.0
C      1  0.5291630000000  0.5150620000000  0.4084420000000 1.0
C      1  0.5235290000000  0.4856180000000  0.5881010000000 1.0
C      1  0.4761740000000  0.5159090000000  0.4087940000000 1.0
C      1  0.4760960000000  0.4839350000000  0.5882330000000 1.0
C      1  0.4081610000000  0.4841880000000  0.5599300000000 1.0
C      1  0.4082380000000  0.5156780000000  0.4453760000000 1.0
C      1  0.5904480000000  0.4842170000000  0.5568950000000 1.0
C      1  0.5938700000000  0.5159070000000  0.4448010000000 1.0
C      1  0.4083250000000  0.5158450000000  0.5600810000000 1.0
C      1  0.4082450000000  0.4848840000000  0.4454070000000 1.0
C      1  0.5904490000000  0.5158600000000  0.5564310000000 1.0
C      1  0.5941800000000  0.4842800000000  0.4446960000000 1.0
C      1  0.5185570000000  0.5259260000000  0.4347190000000 1.0
C      1  0.5153450000000  0.4746510000000  0.5610690000000 1.0
C      1  0.4882570000000  0.5278050000000  0.4325870000000 1.0
C      1  0.4836450000000  0.4736330000000  0.5608250000000 1.0
C      1  0.5183960000000  0.4726920000000  0.4346960000000 1.0
C      1  0.5156810000000  0.5267230000000  0.5602660000000 1.0
C      1  0.4881930000000  0.4716710000000  0.4321680000000 1.0
C      1  0.4840260000000  0.5257620000000  0.5606460000000 1.0
C      1  0.4528630000000  0.4849200000000  0.4739510000000 1.0
C      1  0.4602790000000  0.5149130000000  0.5312680000000 1.0
C      1  0.5390490000000  0.4828190000000  0.4664180000000 1.0
C      1  0.5379160000000  0.5154380000000  0.5299820000000 1.0
C      1  0.4528680000000  0.5160520000000  0.4739020000000 1.0
C      1  0.4600890000000  0.4842730000000  0.5312440000000 1.0
C      1  0.5392120000000  0.5146530000000  0.4659410000000 1.0
C      1  0.5381660000000  0.4849210000000  0.5306350000000 1.0
C      1  0.5664120000000  0.5285420000000  0.4836980000000 1.0
C      1  0.5652520000000  0.4713840000000  0.5160910000000 1.0
C      1  0.4290440000000  0.5294870000000  0.4871280000000 1.0
C      1  0.4316980000000  0.4711540000000  0.5188640000000 1.0
C      1  0.5668890000000  0.4706210000000  0.4835080000000 1.0
C      1  0.5653690000000  0.5283450000000  0.5161500000000 1.0
C      1  0.4290640000000  0.4710280000000  0.4869360000000 1.0
C      1  0.4320290000000  0.5289250000000  0.5190380000000 1.0
C      1  0.4830420000000  0.4141840000000  0.5087120000000 1.0
C      1  0.4736890000000  0.5830730000000  0.4805290000000 1.0
C      1  0.5259150000000  0.4171540000000  0.5176220000000 1.0
C      1  0.5263740000000  0.5809960000000  0.4845360000000 1.0
C      1  0.4834460000000  0.5905380000000  0.5073930000000 1.0
C      1  0.4734470000000  0.4187440000000  0.4810140000000 1.0
C      1  0.5131090000000  0.5850550000000  0.5106850000000 1.0
C      1  0.5168060000000  0.4151730000000  0.4891960000000 1.0
C      1  0.4065320000000  0.5157590000000  0.5294060000000 1.0
C      1  0.4041330000000  0.4846150000000  0.4761620000000 1.0
C      1  0.5910580000000  0.5150290000000  0.5255810000000 1.0
C      1  0.5929040000000  0.4844400000000  0.4754970000000 1.0
C      1  0.4063740000000  0.4846040000000  0.5292500000000 1.0
C      1  0.4041450000000  0.5159760000000  0.4761630000000 1.0
C      1  0.5910150000000  0.4842210000000  0.5259160000000 1.0
C      1  0.5926500000000  0.5153880000000  0.4756900000000 1.0
C      1  0.5148350000000  0.4415820000000  0.5299330000000 1.0
C      1  0.5156120000000  0.5568410000000  0.4702330000000 1.0
C      1  0.4843270000000  0.4403280000000  0.5274540000000 1.0
C      1  0.4847100000000  0.5568380000000  0.4701010000000 1.0
C      1  0.5141140000000  0.5588250000000  0.5266890000000 1.0
C      1  0.5144370000000  0.4418310000000  0.4720900000000 1.0
C      1  0.4829010000000  0.5575390000000  0.5278830000000 1.0
C      1  0.4840950000000  0.4443770000000  0.4700090000000 1.0
C      1  0.4732150000000  0.5534380000000  0.5558670000000 1.0
C      1  0.4743350000000  0.4479140000000  0.4427010000000 1.0
C      1  0.5259330000000  0.5549080000000  0.5544770000000 1.0
C      1  0.5285700000000  0.4457390000000  0.4445640000000 1.0
C      1  0.4729270000000  0.4455070000000  0.5553630000000 1.0
C      1  0.4746950000000  0.5520430000000  0.4430060000000 1.0
C      1  0.5256370000000  0.4466960000000  0.5571380000000 1.0
C      1  0.5283980000000  0.5532470000000  0.4429190000000 1.0
C      1  0.5636150000000  0.5805070000000  0.5142990000000 1.0
C      1  0.5550800000000  0.4203310000000  0.4843620000000 1.0
C      1  0.4468270000000  0.5784780000000  0.5158500000000 1.0
C      1  0.4449440000000  0.4203010000000  0.4869150000000 1.0
C      1  0.5541700000000  0.4195180000000  0.5131380000000 1.0
C      1  0.5557220000000  0.5797060000000  0.4874210000000 1.0
C      1  0.4454870000000  0.4215390000000  0.5157210000000 1.0
C      1  0.4453860000000  0.5802490000000  0.4870740000000 1.0
C      1  0.5601300000000  0.4839080000000  0.4091870000000 1.0
C      1  0.5545460000000  0.5166730000000  0.5898890000000 1.0
C      1  0.4451530000000  0.4849310000000  0.4116710000000 1.0
C      1  0.4458740000000  0.5156310000000  0.5914630000000 1.0
C      1  0.5598110000000  0.5154480000000  0.4089720000000 1.0
C      1  0.5542400000000  0.4850010000000  0.5903380000000 1.0
C      1  0.4453070000000  0.5153410000000  0.4116420000000 1.0
C      1  0.4456430000000  0.4839790000000  0.5914620000000 1.0
C      1  0.5675770000000  0.5255740000000  0.4354400000000 1.0
C      1  0.5638590000000  0.4746250000000  0.5647140000000 1.0
C      1  0.4367630000000  0.5235430000000  0.4392610000000 1.0
C      1  0.4351020000000  0.4742900000000  0.5660250000000 1.0
C      1  0.5679630000000  0.4744280000000  0.4357470000000 1.0
C      1  0.5638780000000  0.5260210000000  0.5639070000000 1.0
C      1  0.4367760000000  0.4769190000000  0.4394010000000 1.0
C      1  0.4353980000000  0.5253310000000  0.5660420000000 1.0
END
