TITL C-3578197-9521-555 1.30908337312708e-07 125000 -338.301987898342 0 0 56 (C1) n - 1
REM
REM in /home/bkarasulu/work/CARBON/AIRSS/Generating-Clusters/EDIP-Nigel-Params/with-SteepDescent/Higher-Symm/SD-CG/HFTN-CG
REM
REM
REM
REM
REM
REM ./C.cell (12c818d87b63d06a65506943cc24bca4)
REM
REM compiler GCC version 9.2.1 20190827 (Red Hat 9.2.1-1)
REM options -cpp -mtune=generic -march=x86-64 -g -O0 -fpre-include=/usr/include/finclude/math-vector-fortran.h
REM seed -1468236189 -1963548295 -211953257 -804852316 596007921 1002050603 1509795538 -605853464 -903528463 1196988405 1457311415 -2001423199 31027255 -2055942183 -2082556638 -35653965 2055924251 -1385459590 2144135078 -2029172786 1504480963 -160334760 1882160167 1054061484 -1251600497 -687583237 -833773807 797094906 906001152 -520300067 -615366215 669057965 14022171
REM
CELL 1.54180   50.00000   50.00000   50.00000   90.00000   90.00000   90.00000
LATT -1
SFAC C  
C      1  0.4954710000000  0.4876980000000  0.4822300000000 1.0
C      1  0.4964110000000  0.4751100000000  0.5230430000000 1.0
C      1  0.5240520000000  0.4910540000000  0.4926070000000 1.0
C      1  0.4801150000000  0.5146660000000  0.4861490000000 1.0
C      1  0.5006130000000  0.5061650000000  0.5289810000000 1.0
C      1  0.5271860000000  0.5160090000000  0.5111160000000 1.0
C      1  0.4758750000000  0.4801130000000  0.5617450000000 1.0
C      1  0.5785210000000  0.4870610000000  0.4875270000000 1.0
C      1  0.4548530000000  0.4845000000000  0.4389040000000 1.0
C      1  0.4763520000000  0.5090000000000  0.5657550000000 1.0
C      1  0.5800710000000  0.5171830000000  0.4911180000000 1.0
C      1  0.4545700000000  0.5148170000000  0.4412220000000 1.0
C      1  0.4443910000000  0.5173250000000  0.4699340000000 1.0
C      1  0.5021370000000  0.5217360000000  0.5645430000000 1.0
C      1  0.5519820000000  0.5212950000000  0.4809260000000 1.0
C      1  0.4595440000000  0.4811430000000  0.4688220000000 1.0
C      1  0.4991040000000  0.4651880000000  0.5654990000000 1.0
C      1  0.5545410000000  0.4839150000000  0.4688940000000 1.0
C      1  0.5146980000000  0.5423660000000  0.5484910000000 1.0
C      1  0.5395830000000  0.5351730000000  0.4580180000000 1.0
C      1  0.4455580000000  0.5424860000000  0.4864810000000 1.0
C      1  0.5181520000000  0.4505700000000  0.5512040000000 1.0
C      1  0.5375830000000  0.4585020000000  0.4659090000000 1.0
C      1  0.4416720000000  0.4645190000000  0.4853300000000 1.0
C      1  0.4407010000000  0.5173310000000  0.5343250000000 1.0
C      1  0.5620090000000  0.5155750000000  0.5376890000000 1.0
C      1  0.5054760000000  0.5081810000000  0.4331820000000 1.0
C      1  0.4417640000000  0.4892880000000  0.5260760000000 1.0
C      1  0.5600340000000  0.4861190000000  0.5345350000000 1.0
C      1  0.5012780000000  0.4787840000000  0.4312520000000 1.0
C      1  0.4880560000000  0.4495290000000  0.4804170000000 1.0
C      1  0.4690790000000  0.4469330000000  0.5249230000000 1.0
C      1  0.5273020000000  0.4681290000000  0.5120120000000 1.0
C      1  0.4882350000000  0.5384620000000  0.4676870000000 1.0
C      1  0.4793440000000  0.5241050000000  0.5151750000000 1.0
C      1  0.5207750000000  0.5443910000000  0.5016020000000 1.0
C      1  0.4433530000000  0.5388230000000  0.5153420000000 1.0
C      1  0.5421010000000  0.5338900000000  0.5469960000000 1.0
C      1  0.5309640000000  0.5191200000000  0.4369850000000 1.0
C      1  0.4273160000000  0.4785870000000  0.5048150000000 1.0
C      1  0.5430730000000  0.4663710000000  0.5476800000000 1.0
C      1  0.5113930000000  0.4604450000000  0.4520790000000 1.0
C      1  0.4999810000000  0.4365860000000  0.5266210000000 1.0
C      1  0.5339480000000  0.4451910000000  0.4927620000000 1.0
C      1  0.4620190000000  0.4460890000000  0.4954810000000 1.0
C      1  0.4966930000000  0.5500830000000  0.5184250000000 1.0
C      1  0.5169450000000  0.5472880000000  0.4727480000000 1.0
C      1  0.4694620000000  0.5589330000000  0.4802410000000 1.0
C      1  0.5759540000000  0.4763600000000  0.5135700000000 1.0
C      1  0.4750680000000  0.4739950000000  0.4226480000000 1.0
C      1  0.4572410000000  0.4700260000000  0.5415110000000 1.0
C      1  0.5806140000000  0.5245490000000  0.5184780000000 1.0
C      1  0.4824640000000  0.5267140000000  0.4398950000000 1.0
C      1  0.4529610000000  0.5226220000000  0.5588340000000 1.0
C      1  0.5075110000000  0.4327290000000  0.4965080000000 1.0
C      1  0.4806990000000  0.5703860000000  0.5039500000000 1.0
END
