TITL C-3577079-311-25 -1.26442245348575e-06 125000 -1145.62919447849 0 0 182 (C1) n - 1
REM
REM in /home/bkarasulu/work/CARBON/AIRSS/Generating-Clusters/EDIP-Nigel-Params/with-SteepDescent/Higher-Symm/SD-CG/HFTN-CG
REM
REM
REM
REM
REM
REM ./C.cell (12c818d87b63d06a65506943cc24bca4)
REM
REM compiler GCC version 9.2.1 20190827 (Red Hat 9.2.1-1)
REM options -cpp -mtune=generic -march=x86-64 -g -O0 -fpre-include=/usr/include/finclude/math-vector-fortran.h
REM seed -387756711 220836109 -138467870 790859269 1527560410 390323285 783244722 242514344 1800979899 -140449264 1023409027 -1144869753 386242051 -921053108 -1242807029 -1845679634 931878801 -2106360498 -1984539777 560488565 1696639355 474514962 -1670229621 -1244762483 -418365982 -1460001588 -1272460541 944816717 1555552617 1521924730 25438878 114600951 1321276555
REM
CELL 1.54180   50.00000   50.00000   50.00000   90.00000   90.00000   90.00000
LATT -1
SFAC C  
C      1  0.4517780000000  0.5283490000000  0.5125230000000 1.0
C      1  0.4616630000000  0.5020370000000  0.5203730000000 1.0
C      1  0.4537220000000  0.4744150000000  0.5215320000000 1.0
C      1  0.4605890000000  0.4653240000000  0.4953040000000 1.0
C      1  0.4527170000000  0.4829170000000  0.4695830000000 1.0
C      1  0.4550910000000  0.5127460000000  0.4603670000000 1.0
C      1  0.4599380000000  0.5330270000000  0.4818430000000 1.0
C      1  0.5233270000000  0.4467990000000  0.5596580000000 1.0
C      1  0.5200210000000  0.4165990000000  0.4974170000000 1.0
C      1  0.5215160000000  0.4510080000000  0.4356360000000 1.0
C      1  0.5198150000000  0.5198910000000  0.4251740000000 1.0
C      1  0.5222840000000  0.5753420000000  0.4690370000000 1.0
C      1  0.5210180000000  0.5727530000000  0.5389010000000 1.0
C      1  0.5238210000000  0.5143050000000  0.5799420000000 1.0
C      1  0.6252550000000  0.5182870000000  0.4735650000000 1.0
C      1  0.6137360000000  0.5307300000000  0.4959490000000 1.0
C      1  0.6251630000000  0.5240460000000  0.5209270000000 1.0
C      1  0.6172420000000  0.4987540000000  0.5309310000000 1.0
C      1  0.6274730000000  0.4768850000000  0.5161160000000 1.0
C      1  0.6172150000000  0.4734390000000  0.4900150000000 1.0
C      1  0.6268000000000  0.4914130000000  0.4707060000000 1.0
C      1  0.4533920000000  0.5639200000000  0.4215100000000 1.0
C      1  0.4454890000000  0.6066090000000  0.5015620000000 1.0
C      1  0.4564530000000  0.5624240000000  0.5781610000000 1.0
C      1  0.4513680000000  0.4756270000000  0.5971000000000 1.0
C      1  0.4528690000000  0.4086170000000  0.5436640000000 1.0
C      1  0.4529680000000  0.4077060000000  0.4550060000000 1.0
C      1  0.4528610000000  0.4779870000000  0.3993390000000 1.0
C      1  0.5477210000000  0.5082680000000  0.5988690000000 1.0
C      1  0.5487130000000  0.4319500000000  0.5680270000000 1.0
C      1  0.5459330000000  0.4014840000000  0.4886940000000 1.0
C      1  0.5467050000000  0.4483550000000  0.4188070000000 1.0
C      1  0.5447190000000  0.5334860000000  0.4121340000000 1.0
C      1  0.5470790000000  0.5941920000000  0.4695250000000 1.0
C      1  0.5474840000000  0.5779020000000  0.5528780000000 1.0
C      1  0.4267130000000  0.4450680000000  0.5641670000000 1.0
C      1  0.4307310000000  0.4158400000000  0.4970800000000 1.0
C      1  0.4318290000000  0.4489050000000  0.4320320000000 1.0
C      1  0.4277210000000  0.5211970000000  0.4178910000000 1.0
C      1  0.4335900000000  0.5755890000000  0.4677370000000 1.0
C      1  0.4366820000000  0.5730790000000  0.5363420000000 1.0
C      1  0.4343220000000  0.5157690000000  0.5790600000000 1.0
C      1  0.4963630000000  0.5409140000000  0.5544820000000 1.0
C      1  0.4954360000000  0.4841460000000  0.5662590000000 1.0
C      1  0.4902430000000  0.4378140000000  0.5271260000000 1.0
C      1  0.4918030000000  0.4353800000000  0.4692870000000 1.0
C      1  0.4891830000000  0.4881520000000  0.4311920000000 1.0
C      1  0.4907810000000  0.5457360000000  0.4460360000000 1.0
C      1  0.4899470000000  0.5718580000000  0.4990280000000 1.0
C      1  0.5021640000000  0.5971620000000  0.5447150000000 1.0
C      1  0.5022340000000  0.5262700000000  0.6004710000000 1.0
C      1  0.4990510000000  0.4370870000000  0.5774350000000 1.0
C      1  0.4990800000000  0.3946260000000  0.5049420000000 1.0
C      1  0.4996230000000  0.4325370000000  0.4215660000000 1.0
C      1  0.4998530000000  0.5187920000000  0.4004870000000 1.0
C      1  0.5006610000000  0.5920850000000  0.4533700000000 1.0
C      1  0.5042060000000  0.5554620000000  0.6007670000000 1.0
C      1  0.5029840000000  0.4540010000000  0.6014070000000 1.0
C      1  0.5012770000000  0.3915700000000  0.5338130000000 1.0
C      1  0.5016420000000  0.4062430000000  0.4340080000000 1.0
C      1  0.5026240000000  0.4932350000000  0.3860000000000 1.0
C      1  0.5013940000000  0.5861890000000  0.4245850000000 1.0
C      1  0.5027160000000  0.6132810000000  0.5208390000000 1.0
C      1  0.4372120000000  0.4330530000000  0.4557030000000 1.0
C      1  0.4364670000000  0.4928860000000  0.4198540000000 1.0
C      1  0.4384760000000  0.5567630000000  0.4464340000000 1.0
C      1  0.4270730000000  0.5865280000000  0.5126370000000 1.0
C      1  0.4408090000000  0.5402600000000  0.5659760000000 1.0
C      1  0.4342880000000  0.4716320000000  0.5733520000000 1.0
C      1  0.4372330000000  0.4245230000000  0.5240010000000 1.0
C      1  0.5240290000000  0.5447240000000  0.4533910000000 1.0
C      1  0.5228860000000  0.5677910000000  0.5053440000000 1.0
C      1  0.5285780000000  0.5379050000000  0.5547270000000 1.0
C      1  0.5264770000000  0.4801020000000  0.5629470000000 1.0
C      1  0.5224000000000  0.4371770000000  0.5252630000000 1.0
C      1  0.5234420000000  0.4385230000000  0.4668200000000 1.0
C      1  0.5232210000000  0.4866050000000  0.4389240000000 1.0
C      1  0.5279320000000  0.4021030000000  0.4426570000000 1.0
C      1  0.5286840000000  0.4834710000000  0.3879140000000 1.0
C      1  0.5275760000000  0.5799530000000  0.4169560000000 1.0
C      1  0.5279720000000  0.6115310000000  0.5097120000000 1.0
C      1  0.5307430000000  0.5636760000000  0.5971580000000 1.0
C      1  0.5294060000000  0.4622400000000  0.6036680000000 1.0
C      1  0.5275800000000  0.3970560000000  0.5417190000000 1.0
C      1  0.5784090000000  0.5330970000000  0.4462610000000 1.0
C      1  0.5852440000000  0.5722770000000  0.4869490000000 1.0
C      1  0.5815380000000  0.5461230000000  0.5446120000000 1.0
C      1  0.5883990000000  0.4965190000000  0.5774090000000 1.0
C      1  0.5825700000000  0.4463990000000  0.5366570000000 1.0
C      1  0.5846860000000  0.4280740000000  0.4816930000000 1.0
C      1  0.5790970000000  0.4750910000000  0.4418270000000 1.0
C      1  0.5475540000000  0.4661300000000  0.5181220000000 1.0
C      1  0.5353100000000  0.4623150000000  0.4876390000000 1.0
C      1  0.5400670000000  0.4873600000000  0.4691100000000 1.0
C      1  0.5384950000000  0.5258130000000  0.4764080000000 1.0
C      1  0.5285290000000  0.5355150000000  0.5055010000000 1.0
C      1  0.5420560000000  0.5212200000000  0.5298350000000 1.0
C      1  0.5329730000000  0.4886570000000  0.5335890000000 1.0
C      1  0.4755620000000  0.6026840000000  0.4616540000000 1.0
C      1  0.4757620000000  0.5971970000000  0.5546470000000 1.0
C      1  0.4755050000000  0.5185610000000  0.6065380000000 1.0
C      1  0.4709380000000  0.4468450000000  0.5701910000000 1.0
C      1  0.4726190000000  0.3901540000000  0.4959870000000 1.0
C      1  0.4737570000000  0.4353700000000  0.4105360000000 1.0
C      1  0.4713930000000  0.5255460000000  0.3998620000000 1.0
C      1  0.4756270000000  0.5172790000000  0.4375590000000 1.0
C      1  0.4744440000000  0.5616630000000  0.4709280000000 1.0
C      1  0.4799990000000  0.5516280000000  0.5221760000000 1.0
C      1  0.4873470000000  0.5115750000000  0.5556240000000 1.0
C      1  0.4769580000000  0.4610600000000  0.5430770000000 1.0
C      1  0.4780320000000  0.4406820000000  0.4971970000000 1.0
C      1  0.4772930000000  0.4673670000000  0.4533870000000 1.0
C      1  0.4217670000000  0.4839020000000  0.4658760000000 1.0
C      1  0.4115800000000  0.5163130000000  0.4672960000000 1.0
C      1  0.4091550000000  0.5390840000000  0.4964090000000 1.0
C      1  0.4225680000000  0.5281790000000  0.5219140000000 1.0
C      1  0.4113890000000  0.4976150000000  0.5349310000000 1.0
C      1  0.4230120000000  0.4709910000000  0.5207640000000 1.0
C      1  0.4110900000000  0.4641140000000  0.4888830000000 1.0
C      1  0.4874750000000  0.4786120000000  0.5955560000000 1.0
C      1  0.4832480000000  0.4129070000000  0.5438870000000 1.0
C      1  0.4836600000000  0.4088530000000  0.4575950000000 1.0
C      1  0.4837320000000  0.4775060000000  0.4031940000000 1.0
C      1  0.4842780000000  0.5622030000000  0.4214250000000 1.0
C      1  0.4821460000000  0.5999880000000  0.5051610000000 1.0
C      1  0.4872650000000  0.5606460000000  0.5765790000000 1.0
C      1  0.5506150000000  0.6012650000000  0.4976410000000 1.0
C      1  0.5522420000000  0.5652230000000  0.5791150000000 1.0
C      1  0.5513610000000  0.4788910000000  0.5993290000000 1.0
C      1  0.5508240000000  0.4114330000000  0.5473100000000 1.0
C      1  0.5502870000000  0.4046530000000  0.4593150000000 1.0
C      1  0.5489520000000  0.4742720000000  0.4048630000000 1.0
C      1  0.5482670000000  0.5613800000000  0.4205930000000 1.0
C      1  0.5661720000000  0.4291110000000  0.4602860000000 1.0
C      1  0.5639880000000  0.4905850000000  0.4232020000000 1.0
C      1  0.5647030000000  0.5584060000000  0.4442970000000 1.0
C      1  0.5658560000000  0.5782960000000  0.5067510000000 1.0
C      1  0.5688440000000  0.5424310000000  0.5709680000000 1.0
C      1  0.5685600000000  0.4760900000000  0.5763950000000 1.0
C      1  0.5646570000000  0.4258710000000  0.5265180000000 1.0
C      1  0.4889960000000  0.5056650000000  0.5270390000000 1.0
C      1  0.5072340000000  0.4845550000000  0.5213590000000 1.0
C      1  0.5067770000000  0.4668260000000  0.4979530000000 1.0
C      1  0.4967670000000  0.4791340000000  0.4737530000000 1.0
C      1  0.5000710000000  0.5054910000000  0.4715960000000 1.0
C      1  0.4891710000000  0.5258580000000  0.4856150000000 1.0
C      1  0.4987210000000  0.5290920000000  0.5115460000000 1.0
C      1  0.4505610000000  0.5983620000000  0.4740340000000 1.0
C      1  0.4512050000000  0.5845540000000  0.5590510000000 1.0
C      1  0.4518390000000  0.5048250000000  0.5997530000000 1.0
C      1  0.4484780000000  0.4247490000000  0.5689140000000 1.0
C      1  0.4487780000000  0.3973470000000  0.4827460000000 1.0
C      1  0.4495520000000  0.4495220000000  0.4083220000000 1.0
C      1  0.4468300000000  0.5400860000000  0.4042330000000 1.0
C      1  0.3814130000000  0.5150840000000  0.4715040000000 1.0
C      1  0.3796370000000  0.5322620000000  0.4957570000000 1.0
C      1  0.3713350000000  0.5184160000000  0.5185580000000 1.0
C      1  0.3818010000000  0.4959860000000  0.5312010000000 1.0
C      1  0.3746550000000  0.4723430000000  0.5181870000000 1.0
C      1  0.3816000000000  0.4681850000000  0.4914810000000 1.0
C      1  0.3723330000000  0.4888950000000  0.4753830000000 1.0
C      1  0.5741810000000  0.5234340000000  0.5258350000000 1.0
C      1  0.5875660000000  0.4969040000000  0.5335660000000 1.0
C      1  0.5779600000000  0.4710570000000  0.5196770000000 1.0
C      1  0.5879910000000  0.4711360000000  0.4909930000000 1.0
C      1  0.5725050000000  0.4863740000000  0.4687950000000 1.0
C      1  0.5703160000000  0.5194430000000  0.4721770000000 1.0
C      1  0.5844120000000  0.5293040000000  0.4972260000000 1.0
C      1  0.4198290000000  0.4446500000000  0.5356860000000 1.0
C      1  0.4194780000000  0.4358250000000  0.4788520000000 1.0
C      1  0.4204970000000  0.4751770000000  0.4369350000000 1.0
C      1  0.4201700000000  0.5339730000000  0.4433310000000 1.0
C      1  0.4175950000000  0.5682670000000  0.4909360000000 1.0
C      1  0.4245400000000  0.5483270000000  0.5436200000000 1.0
C      1  0.4199570000000  0.4950640000000  0.5642830000000 1.0
C      1  0.5685200000000  0.5190660000000  0.4217650000000 1.0
C      1  0.5714010000000  0.5793620000000  0.4628060000000 1.0
C      1  0.5702180000000  0.5722140000000  0.5350620000000 1.0
C      1  0.5731310000000  0.5186940000000  0.5876050000000 1.0
C      1  0.5728000000000  0.4495220000000  0.5651380000000 1.0
C      1  0.5700930000000  0.4131430000000  0.5013150000000 1.0
C      1  0.5699540000000  0.4467190000000  0.4373280000000 1.0
END
