TITL C-3578196-9646-120 -3.03764036048488e-06 125000 -1240.05006417566 0 0 195 (C1) n - 1
REM
REM in /home/bkarasulu/work/CARBON/AIRSS/Generating-Clusters/EDIP-Nigel-Params/with-SteepDescent/Higher-Symm/SD-CG/HFTN-CG
REM
REM
REM
REM
REM
REM ./C.cell (12c818d87b63d06a65506943cc24bca4)
REM
REM compiler GCC version 9.2.1 20190827 (Red Hat 9.2.1-1)
REM options -cpp -mtune=generic -march=x86-64 -g -O0 -fpre-include=/usr/include/finclude/math-vector-fortran.h
REM seed -859231222 1587625205 -222754750 -1303447987 512769124 992264928 963964001 854918968 -1525145740 1851355490 -538496380 -1305584833 63254270 1603682986 -1939868749 -720144926 -1774933665 -506312999 -1778777508 284030005 -1032481670 1826136003 -676721905 -1175285052 -652293620 1209099789 702284341 412282666 -1986764662 -2040969829 204432497 -1592936348 -5013722
REM
CELL 1.54180   50.00000   50.00000   50.00000   90.00000   90.00000   90.00000
LATT -1
SFAC C  
C      1  0.5555990000000  0.4349700000000  0.4327280000000 1.0
C      1  0.4569430000000  0.4275110000000  0.4315970000000 1.0
C      1  0.4199160000000  0.5167250000000  0.4344830000000 1.0
C      1  0.4933310000000  0.5817120000000  0.4348570000000 1.0
C      1  0.5692930000000  0.5335150000000  0.4390490000000 1.0
C      1  0.6080380000000  0.4711640000000  0.5028610000000 1.0
C      1  0.5045010000000  0.3851460000000  0.5000860000000 1.0
C      1  0.3972730000000  0.4604120000000  0.5020580000000 1.0
C      1  0.4288810000000  0.5867060000000  0.5032760000000 1.0
C      1  0.5617910000000  0.5961670000000  0.5025680000000 1.0
C      1  0.4884340000000  0.4303530000000  0.5025340000000 1.0
C      1  0.4307820000000  0.4923160000000  0.5100420000000 1.0
C      1  0.4664940000000  0.5648030000000  0.5046200000000 1.0
C      1  0.5503620000000  0.5522430000000  0.5036850000000 1.0
C      1  0.5617380000000  0.4679580000000  0.5083840000000 1.0
C      1  0.5248010000000  0.4973260000000  0.4163710000000 1.0
C      1  0.5073870000000  0.4745820000000  0.4139180000000 1.0
C      1  0.4791440000000  0.4835650000000  0.4141640000000 1.0
C      1  0.4793060000000  0.5133440000000  0.4171070000000 1.0
C      1  0.5081630000000  0.5217170000000  0.4173880000000 1.0
C      1  0.4642020000000  0.5234440000000  0.3933510000000 1.0
C      1  0.5125570000000  0.5405490000000  0.3943530000000 1.0
C      1  0.5444630000000  0.5008450000000  0.3939290000000 1.0
C      1  0.5161050000000  0.4575090000000  0.3912590000000 1.0
C      1  0.4654120000000  0.4716620000000  0.3905780000000 1.0
C      1  0.5020060000000  0.6057290000000  0.5216050000000 1.0
C      1  0.6023000000000  0.5328230000000  0.5226210000000 1.0
C      1  0.5617780000000  0.4121250000000  0.5212690000000 1.0
C      1  0.4383610000000  0.4201250000000  0.5194010000000 1.0
C      1  0.4035920000000  0.5342820000000  0.5210550000000 1.0
C      1  0.4678030000000  0.4126340000000  0.5642510000000 1.0
C      1  0.4050650000000  0.5049510000000  0.5670720000000 1.0
C      1  0.4744760000000  0.5927960000000  0.5671950000000 1.0
C      1  0.5782830000000  0.5540270000000  0.5667410000000 1.0
C      1  0.5725260000000  0.4436980000000  0.5649130000000 1.0
C      1  0.4827850000000  0.3954880000000  0.5187990000000 1.0
C      1  0.3946600000000  0.4838820000000  0.5220530000000 1.0
C      1  0.4512390000000  0.5963150000000  0.5222420000000 1.0
C      1  0.5753220000000  0.5766360000000  0.5214500000000 1.0
C      1  0.5876090000000  0.4549400000000  0.5183210000000 1.0
C      1  0.5713730000000  0.4961440000000  0.6119040000000 1.0
C      1  0.5192690000000  0.4314370000000  0.6100970000000 1.0
C      1  0.4407700000000  0.4610260000000  0.6127190000000 1.0
C      1  0.4448370000000  0.5454750000000  0.6131520000000 1.0
C      1  0.5258860000000  0.5677270000000  0.6122440000000 1.0
C      1  0.4944290000000  0.4449060000000  0.6125430000000 1.0
C      1  0.4465710000000  0.4886050000000  0.6108300000000 1.0
C      1  0.4728890000000  0.5482730000000  0.6113000000000 1.0
C      1  0.5372490000000  0.5418590000000  0.6109250000000 1.0
C      1  0.5502020000000  0.4775700000000  0.6094270000000 1.0
C      1  0.5428200000000  0.4919570000000  0.4395200000000 1.0
C      1  0.5121060000000  0.4575030000000  0.4355030000000 1.0
C      1  0.4631820000000  0.4714460000000  0.4351390000000 1.0
C      1  0.4632770000000  0.5235550000000  0.4403370000000 1.0
C      1  0.5175830000000  0.5387820000000  0.4381920000000 1.0
C      1  0.4228410000000  0.5489030000000  0.5665740000000 1.0
C      1  0.5215440000000  0.5892930000000  0.5654280000000 1.0
C      1  0.5908450000000  0.5080270000000  0.5660590000000 1.0
C      1  0.5347120000000  0.4156830000000  0.5642290000000 1.0
C      1  0.4303440000000  0.4411830000000  0.5661760000000 1.0
C      1  0.5103930000000  0.4084770000000  0.4598540000000 1.0
C      1  0.4142180000000  0.4584230000000  0.4571300000000 1.0
C      1  0.4320210000000  0.5704570000000  0.4578470000000 1.0
C      1  0.5442430000000  0.5809180000000  0.4616690000000 1.0
C      1  0.5971690000000  0.4827940000000  0.4584520000000 1.0
C      1  0.5501160000000  0.5089760000000  0.4818040000000 1.0
C      1  0.5268130000000  0.4526490000000  0.4787010000000 1.0
C      1  0.4613810000000  0.4648310000000  0.4865490000000 1.0
C      1  0.4539740000000  0.5202810000000  0.4862060000000 1.0
C      1  0.5052860000000  0.5495140000000  0.4793450000000 1.0
C      1  0.4280390000000  0.4667570000000  0.5516750000000 1.0
C      1  0.4461550000000  0.5587390000000  0.5512750000000 1.0
C      1  0.5366730000000  0.5696940000000  0.5491860000000 1.0
C      1  0.5755360000000  0.4888010000000  0.5491620000000 1.0
C      1  0.5118120000000  0.4200460000000  0.5457460000000 1.0
C      1  0.4578720000000  0.5497630000000  0.4781960000000 1.0
C      1  0.5372760000000  0.5548850000000  0.4748710000000 1.0
C      1  0.5648580000000  0.4815540000000  0.4799770000000 1.0
C      1  0.5010180000000  0.4339510000000  0.4726950000000 1.0
C      1  0.4399050000000  0.4846670000000  0.4805590000000 1.0
C      1  0.5471720000000  0.4687200000000  0.4596410000000 1.0
C      1  0.4873920000000  0.4527400000000  0.4512850000000 1.0
C      1  0.4477560000000  0.4948840000000  0.4503650000000 1.0
C      1  0.4801700000000  0.5475450000000  0.4592860000000 1.0
C      1  0.5430420000000  0.5330910000000  0.4551140000000 1.0
C      1  0.4741620000000  0.5672970000000  0.3927360000000 1.0
C      1  0.5574960000000  0.5473040000000  0.3940020000000 1.0
C      1  0.5635930000000  0.4601550000000  0.3916310000000 1.0
C      1  0.4827520000000  0.4276710000000  0.3906230000000 1.0
C      1  0.4264460000000  0.4947290000000  0.3914690000000 1.0
C      1  0.4790940000000  0.5075610000000  0.4781640000000 1.0
C      1  0.5036950000000  0.5202920000000  0.4868450000000 1.0
C      1  0.5228930000000  0.5010390000000  0.4778900000000 1.0
C      1  0.5105700000000  0.4756720000000  0.4881550000000 1.0
C      1  0.4839340000000  0.4775220000000  0.4739820000000 1.0
C      1  0.3920120000000  0.5108820000000  0.5078140000000 1.0
C      1  0.4759620000000  0.6073540000000  0.5080210000000 1.0
C      1  0.5939510000000  0.5571580000000  0.5083760000000 1.0
C      1  0.5841110000000  0.4262080000000  0.5079700000000 1.0
C      1  0.4562600000000  0.4014190000000  0.5058690000000 1.0
C      1  0.4425710000000  0.5655630000000  0.4295250000000 1.0
C      1  0.5446710000000  0.5762710000000  0.4308860000000 1.0
C      1  0.5868280000000  0.4808040000000  0.4297470000000 1.0
C      1  0.5079350000000  0.4119490000000  0.4294530000000 1.0
C      1  0.4196890000000  0.4648120000000  0.4287510000000 1.0
C      1  0.4075370000000  0.5243360000000  0.4612850000000 1.0
C      1  0.4950510000000  0.5924340000000  0.4630420000000 1.0
C      1  0.5893680000000  0.5354640000000  0.4619150000000 1.0
C      1  0.5588940000000  0.4263250000000  0.4617460000000 1.0
C      1  0.4487940000000  0.4208730000000  0.4593180000000 1.0
C      1  0.4806870000000  0.4167140000000  0.4166900000000 1.0
C      1  0.4149570000000  0.4918740000000  0.4170980000000 1.0
C      1  0.4681150000000  0.5775800000000  0.4184030000000 1.0
C      1  0.5648870000000  0.5567970000000  0.4196350000000 1.0
C      1  0.5741240000000  0.4548720000000  0.4174980000000 1.0
C      1  0.5134190000000  0.5215290000000  0.5633140000000 1.0
C      1  0.5219090000000  0.4941980000000  0.5572280000000 1.0
C      1  0.4991470000000  0.4781830000000  0.5696670000000 1.0
C      1  0.4756970000000  0.4889810000000  0.5553410000000 1.0
C      1  0.4838800000000  0.5214990000000  0.5564210000000 1.0
C      1  0.4429880000000  0.5911210000000  0.4772080000000 1.0
C      1  0.5703800000000  0.5848580000000  0.4759360000000 1.0
C      1  0.6020830000000  0.4584460000000  0.4760020000000 1.0
C      1  0.4911530000000  0.3903040000000  0.4735520000000 1.0
C      1  0.3976280000000  0.4742850000000  0.4757450000000 1.0
C      1  0.4892790000000  0.4011800000000  0.5476680000000 1.0
C      1  0.4013890000000  0.4802010000000  0.5515740000000 1.0
C      1  0.4501990000000  0.5881720000000  0.5513580000000 1.0
C      1  0.5659560000000  0.5747600000000  0.5498590000000 1.0
C      1  0.5881630000000  0.4615160000000  0.5476880000000 1.0
C      1  0.5594450000000  0.4210770000000  0.5500030000000 1.0
C      1  0.4434920000000  0.4214280000000  0.5491570000000 1.0
C      1  0.4071240000000  0.5301480000000  0.5507270000000 1.0
C      1  0.4986750000000  0.5987740000000  0.5505970000000 1.0
C      1  0.5939370000000  0.5332970000000  0.5516420000000 1.0
C      1  0.4973070000000  0.4750350000000  0.6138830000000 1.0
C      1  0.4753350000000  0.4954730000000  0.6148890000000 1.0
C      1  0.4878900000000  0.5226410000000  0.6145480000000 1.0
C      1  0.5176620000000  0.5192590000000  0.6147510000000 1.0
C      1  0.5234520000000  0.4897160000000  0.6148700000000 1.0
C      1  0.5125640000000  0.5691530000000  0.5866360000000 1.0
C      1  0.5689400000000  0.5107930000000  0.5871850000000 1.0
C      1  0.5270870000000  0.4390490000000  0.5829810000000 1.0
C      1  0.4501980000000  0.4514100000000  0.5872580000000 1.0
C      1  0.4386700000000  0.5334310000000  0.5876770000000 1.0
C      1  0.5262120000000  0.4347310000000  0.4209000000000 1.0
C      1  0.4452170000000  0.4525760000000  0.4176000000000 1.0
C      1  0.4414360000000  0.5365790000000  0.4217200000000 1.0
C      1  0.5173980000000  0.5654540000000  0.4234300000000 1.0
C      1  0.5677240000000  0.5039910000000  0.4248200000000 1.0
C      1  0.5275180000000  0.5692190000000  0.5183670000000 1.0
C      1  0.5722620000000  0.5009180000000  0.5196540000000 1.0
C      1  0.5179340000000  0.4256420000000  0.5158870000000 1.0
C      1  0.4357090000000  0.4639390000000  0.5226350000000 1.0
C      1  0.4446980000000  0.5498710000000  0.5220050000000 1.0
C      1  0.5835770000000  0.4333130000000  0.4783840000000 1.0
C      1  0.4641590000000  0.4034960000000  0.4776500000000 1.0
C      1  0.3999890000000  0.5036870000000  0.4804410000000 1.0
C      1  0.4717310000000  0.6004020000000  0.4795950000000 1.0
C      1  0.5866040000000  0.5591110000000  0.4800090000000 1.0
C      1  0.5065040000000  0.5213360000000  0.5163690000000 1.0
C      1  0.5214800000000  0.4962470000000  0.5278190000000 1.0
C      1  0.5069760000000  0.4744900000000  0.5175970000000 1.0
C      1  0.4802680000000  0.4758960000000  0.5278460000000 1.0
C      1  0.4802030000000  0.5237770000000  0.5283600000000 1.0
C      1  0.5291670000000  0.5983550000000  0.5042330000000 1.0
C      1  0.6010880000000  0.5029660000000  0.5038410000000 1.0
C      1  0.5321110000000  0.4008170000000  0.5015900000000 1.0
C      1  0.4183230000000  0.4362320000000  0.5006100000000 1.0
C      1  0.4124610000000  0.5582950000000  0.5019040000000 1.0
C      1  0.4314740000000  0.5034780000000  0.5870730000000 1.0
C      1  0.4818780000000  0.5671610000000  0.5870930000000 1.0
C      1  0.5572780000000  0.5391260000000  0.5867350000000 1.0
C      1  0.5512690000000  0.4592120000000  0.5832640000000 1.0
C      1  0.4767060000000  0.4355130000000  0.5861560000000 1.0
C      1  0.5390710000000  0.4464550000000  0.5057210000000 1.0
C      1  0.4652350000000  0.4549370000000  0.5141380000000 1.0
C      1  0.4524750000000  0.5208930000000  0.5171390000000 1.0
C      1  0.4984940000000  0.5585630000000  0.5089160000000 1.0
C      1  0.5516460000000  0.5221400000000  0.5090980000000 1.0
C      1  0.4876290000000  0.4527690000000  0.3789970000000 1.0
C      1  0.4520940000000  0.4977880000000  0.3805060000000 1.0
C      1  0.4843920000000  0.5436270000000  0.3819930000000 1.0
C      1  0.5388820000000  0.5293520000000  0.3829420000000 1.0
C      1  0.5411610000000  0.4728820000000  0.3807300000000 1.0
C      1  0.4143320000000  0.5505710000000  0.4724580000000 1.0
C      1  0.5218880000000  0.5969350000000  0.4741100000000 1.0
C      1  0.5979410000000  0.5094890000000  0.4738300000000 1.0
C      1  0.5383250000000  0.4070430000000  0.4718660000000 1.0
C      1  0.4254170000000  0.4348280000000  0.4707560000000 1.0
C      1  0.5331650000000  0.5432610000000  0.5668290000000 1.0
C      1  0.5492090000000  0.4846790000000  0.5658620000000 1.0
C      1  0.5004130000000  0.4489800000000  0.5692320000000 1.0
C      1  0.4475900000000  0.4848370000000  0.5668880000000 1.0
C      1  0.4694580000000  0.5460880000000  0.5673720000000 1.0
END
