TITL C-3578205-846-395 -9.33115282264485e-07 125000 -729.021271225574 0 0 120 (C1) n - 1
REM
REM in /home/bkarasulu/work/CARBON/AIRSS/Generating-Clusters/EDIP-Nigel-Params/with-SteepDescent/Higher-Symm/SD-CG/HFTN-CG
REM
REM
REM
REM
REM
REM ./C.cell (12c818d87b63d06a65506943cc24bca4)
REM
REM compiler GCC version 9.2.1 20190827 (Red Hat 9.2.1-1)
REM options -cpp -mtune=generic -march=x86-64 -g -O0 -fpre-include=/usr/include/finclude/math-vector-fortran.h
REM seed 1926067864 -653218110 645791463 428042876 -1736108127 1708021950 -48120528 178419404 -1695091175 66431838 1802524355 815442219 435449667 1114603864 1660642528 -70795145 733149795 -2134648264 1256844096 58886707 1545002494 -721867337 1397010492 -797002374 -699707227 -1265090844 200302309 -25264728 -383125690 -995387948 1062598450 1168761369 -2030714676
REM
CELL 1.54180   50.00000   50.00000   50.00000   90.00000   90.00000   90.00000
LATT -1
SFAC C  
C      1  0.4582720000000  0.4202830000000  0.5440060000000 1.0
C      1  0.5412900000000  0.4222860000000  0.4557340000000 1.0
C      1  0.4579690000000  0.5778530000000  0.4559360000000 1.0
C      1  0.5416540000000  0.5798060000000  0.5440370000000 1.0
C      1  0.5535000000000  0.5113830000000  0.4779150000000 1.0
C      1  0.4444200000000  0.5156530000000  0.5220150000000 1.0
C      1  0.5556930000000  0.4841680000000  0.5221060000000 1.0
C      1  0.4468810000000  0.4885670000000  0.4776790000000 1.0
C      1  0.5703010000000  0.5210110000000  0.5733850000000 1.0
C      1  0.4280780000000  0.5199490000000  0.4254000000000 1.0
C      1  0.5724210000000  0.4804400000000  0.4259750000000 1.0
C      1  0.4297600000000  0.4790500000000  0.5734860000000 1.0
C      1  0.5515430000000  0.4580950000000  0.4181750000000 1.0
C      1  0.4517680000000  0.4577770000000  0.5794710000000 1.0
C      1  0.5482950000000  0.5422810000000  0.5794980000000 1.0
C      1  0.4486600000000  0.5431030000000  0.4188840000000 1.0
C      1  0.4413560000000  0.5060430000000  0.5725580000000 1.0
C      1  0.5595060000000  0.5062510000000  0.4290790000000 1.0
C      1  0.4414510000000  0.4942270000000  0.4283650000000 1.0
C      1  0.5587570000000  0.4939580000000  0.5726040000000 1.0
C      1  0.4328780000000  0.5515510000000  0.4915440000000 1.0
C      1  0.5767170000000  0.5622660000000  0.5086900000000 1.0
C      1  0.4229210000000  0.4378830000000  0.5089480000000 1.0
C      1  0.5671730000000  0.4482070000000  0.4916760000000 1.0
C      1  0.5766960000000  0.4462960000000  0.5186990000000 1.0
C      1  0.4190830000000  0.4420750000000  0.4812740000000 1.0
C      1  0.5800520000000  0.5591150000000  0.4808620000000 1.0
C      1  0.4232030000000  0.5533410000000  0.5185300000000 1.0
C      1  0.4125770000000  0.5316020000000  0.4784220000000 1.0
C      1  0.5799620000000  0.5353830000000  0.5205210000000 1.0
C      1  0.4202860000000  0.4647180000000  0.5207060000000 1.0
C      1  0.5876110000000  0.4679510000000  0.4788230000000 1.0
C      1  0.4463770000000  0.5792750000000  0.4839300000000 1.0
C      1  0.5550650000000  0.5830750000000  0.5161200000000 1.0
C      1  0.4447830000000  0.4172070000000  0.5161060000000 1.0
C      1  0.5533960000000  0.4207090000000  0.4836500000000 1.0
C      1  0.4143020000000  0.5249420000000  0.4504400000000 1.0
C      1  0.5835000000000  0.5276020000000  0.5481980000000 1.0
C      1  0.4164780000000  0.4725330000000  0.5483360000000 1.0
C      1  0.5856850000000  0.4744290000000  0.4509120000000 1.0
C      1  0.4264330000000  0.5233430000000  0.5552080000000 1.0
C      1  0.5741350000000  0.5229930000000  0.4474880000000 1.0
C      1  0.4264240000000  0.4776490000000  0.4469140000000 1.0
C      1  0.5736310000000  0.4765110000000  0.5553240000000 1.0
C      1  0.5119720000000  0.5766650000000  0.5455240000000 1.0
C      1  0.4876550000000  0.5740040000000  0.4533380000000 1.0
C      1  0.5114300000000  0.4255060000000  0.4537310000000 1.0
C      1  0.4879580000000  0.4233310000000  0.5455040000000 1.0
C      1  0.4989390000000  0.5591280000000  0.4773550000000 1.0
C      1  0.5057570000000  0.5586380000000  0.5219740000000 1.0
C      1  0.4942360000000  0.4413530000000  0.5219630000000 1.0
C      1  0.5010420000000  0.4411020000000  0.4774610000000 1.0
C      1  0.4319720000000  0.4516590000000  0.4582500000000 1.0
C      1  0.5693080000000  0.4495810000000  0.5453830000000 1.0
C      1  0.4306800000000  0.5502400000000  0.5452190000000 1.0
C      1  0.5670850000000  0.5487170000000  0.4582950000000 1.0
C      1  0.4545600000000  0.5655920000000  0.5504770000000 1.0
C      1  0.5438700000000  0.5634020000000  0.4502450000000 1.0
C      1  0.4552010000000  0.4367710000000  0.4511570000000 1.0
C      1  0.5454210000000  0.4342450000000  0.5505820000000 1.0
C      1  0.4873890000000  0.5032240000000  0.4134430000000 1.0
C      1  0.5139420000000  0.5055310000000  0.5863540000000 1.0
C      1  0.4861430000000  0.4944750000000  0.5863360000000 1.0
C      1  0.5151770000000  0.4937030000000  0.4135510000000 1.0
C      1  0.4795520000000  0.5194860000000  0.4963210000000 1.0
C      1  0.5197310000000  0.5091140000000  0.5029920000000 1.0
C      1  0.4806670000000  0.4909360000000  0.5028910000000 1.0
C      1  0.5206870000000  0.4805150000000  0.4961920000000 1.0
C      1  0.5031090000000  0.5298580000000  0.5315080000000 1.0
C      1  0.4973950000000  0.5300290000000  0.4710430000000 1.0
C      1  0.5027740000000  0.4701380000000  0.4707280000000 1.0
C      1  0.4970840000000  0.4701210000000  0.5314280000000 1.0
C      1  0.5818340000000  0.4882750000000  0.5029330000000 1.0
C      1  0.4159710000000  0.4829710000000  0.4983240000000 1.0
C      1  0.5846040000000  0.5167150000000  0.4985840000000 1.0
C      1  0.4183570000000  0.5114470000000  0.5027070000000 1.0
C      1  0.4743280000000  0.5548960000000  0.5689620000000 1.0
C      1  0.5248230000000  0.5516320000000  0.4318890000000 1.0
C      1  0.4739250000000  0.4478720000000  0.4323590000000 1.0
C      1  0.5256250000000  0.4449920000000  0.5690060000000 1.0
C      1  0.4800490000000  0.4649700000000  0.5870400000000 1.0
C      1  0.5219950000000  0.4640230000000  0.4121680000000 1.0
C      1  0.4782160000000  0.5391770000000  0.4137010000000 1.0
C      1  0.5200090000000  0.5350490000000  0.5870450000000 1.0
C      1  0.5496950000000  0.5542630000000  0.5530790000000 1.0
C      1  0.4454650000000  0.5554680000000  0.4445760000000 1.0
C      1  0.5540730000000  0.4443220000000  0.4434030000000 1.0
C      1  0.4502790000000  0.4458280000000  0.5530500000000 1.0
C      1  0.4693340000000  0.5001230000000  0.4374070000000 1.0
C      1  0.5309190000000  0.4977230000000  0.5628460000000 1.0
C      1  0.4691820000000  0.5022320000000  0.5627920000000 1.0
C      1  0.5317440000000  0.5000680000000  0.4378800000000 1.0
C      1  0.5401690000000  0.5871210000000  0.4648840000000 1.0
C      1  0.4582530000000  0.5868600000000  0.5321560000000 1.0
C      1  0.5417670000000  0.4131280000000  0.5320570000000 1.0
C      1  0.4584310000000  0.4126450000000  0.4651720000000 1.0
C      1  0.4966390000000  0.5585330000000  0.4286670000000 1.0
C      1  0.5019780000000  0.5631590000000  0.5701230000000 1.0
C      1  0.4979710000000  0.4367670000000  0.5701210000000 1.0
C      1  0.5015680000000  0.4398100000000  0.4292940000000 1.0
C      1  0.4733050000000  0.4765410000000  0.4572570000000 1.0
C      1  0.5261370000000  0.4732500000000  0.5444760000000 1.0
C      1  0.4739780000000  0.5266520000000  0.5444140000000 1.0
C      1  0.5267570000000  0.5235640000000  0.4578030000000 1.0
C      1  0.5167900000000  0.4368940000000  0.5027400000000 1.0
C      1  0.4727240000000  0.4385240000000  0.4993510000000 1.0
C      1  0.5273040000000  0.5614590000000  0.4995490000000 1.0
C      1  0.4832250000000  0.5631700000000  0.5026850000000 1.0
C      1  0.4692660000000  0.5263260000000  0.4539790000000 1.0
C      1  0.5306330000000  0.5223060000000  0.5444110000000 1.0
C      1  0.4695250000000  0.4776560000000  0.5443520000000 1.0
C      1  0.5313650000000  0.4737310000000  0.4540030000000 1.0
C      1  0.5334310000000  0.4139090000000  0.5051460000000 1.0
C      1  0.4642700000000  0.4104040000000  0.4924660000000 1.0
C      1  0.5352790000000  0.5897130000000  0.4924140000000 1.0
C      1  0.4665140000000  0.5860860000000  0.5052290000000 1.0
C      1  0.5457580000000  0.4800760000000  0.4801020000000 1.0
C      1  0.4576380000000  0.4882950000000  0.5201530000000 1.0
C      1  0.5427040000000  0.5116540000000  0.5203360000000 1.0
C      1  0.4545200000000  0.5198120000000  0.4800420000000 1.0
END
