TITL C-3578201-9217-675 0.000131703937647144 125000 -1024.60089647736 0 0 165 (C1) n - 1
REM
REM in /home/bkarasulu/work/CARBON/AIRSS/Generating-Clusters/EDIP-Nigel-Params/with-SteepDescent/Higher-Symm/SD-CG/HFTN-CG
REM
REM
REM
REM
REM
REM ./C.cell (12c818d87b63d06a65506943cc24bca4)
REM
REM compiler GCC version 9.2.1 20190827 (Red Hat 9.2.1-1)
REM options -cpp -mtune=generic -march=x86-64 -g -O0 -fpre-include=/usr/include/finclude/math-vector-fortran.h
REM seed -2084515404 1756469487 473944349 -718241014 1788526158 -344162088 -84867862 835130286 -481877498 -533607673 1390070839 2049040100 1881859674 1230499188 -1929844949 -2040596447 1334010605 -1704697202 1328732332 -881807530 987176029 1624193843 -1507455111 1554323828 1606041102 -2136963674 2073271255 -1954515813 -162671969 -1742882776 152867903 -1628972148 91052754
REM
CELL 1.54180   50.00000   50.00000   50.00000   90.00000   90.00000   90.00000
LATT -1
SFAC C  
C      1  0.5002750000000  0.4326980000000  0.4181740000000 1.0
C      1  0.5007600000000  0.4912230000000  0.3957590000000 1.0
C      1  0.5027260000000  0.5475340000000  0.4070760000000 1.0
C      1  0.5064360000000  0.5874960000000  0.4485440000000 1.0
C      1  0.5097110000000  0.6033310000000  0.5017620000000 1.0
C      1  0.5036470000000  0.5736640000000  0.5560690000000 1.0
C      1  0.5040120000000  0.5394450000000  0.5925340000000 1.0
C      1  0.5054410000000  0.4862730000000  0.5964550000000 1.0
C      1  0.5043900000000  0.4387320000000  0.5715040000000 1.0
C      1  0.5042890000000  0.4095520000000  0.5241690000000 1.0
C      1  0.5044640000000  0.3994890000000  0.4700780000000 1.0
C      1  0.5232740000000  0.5275900000000  0.5316100000000 1.0
C      1  0.5110040000000  0.5090120000000  0.5514440000000 1.0
C      1  0.5236730000000  0.4814070000000  0.5512440000000 1.0
C      1  0.5101450000000  0.4621440000000  0.5304860000000 1.0
C      1  0.5247890000000  0.4629790000000  0.5030140000000 1.0
C      1  0.5048850000000  0.4567440000000  0.4760730000000 1.0
C      1  0.5065970000000  0.4739900000000  0.4510560000000 1.0
C      1  0.5187850000000  0.5014860000000  0.4548070000000 1.0
C      1  0.5061490000000  0.5379390000000  0.4543390000000 1.0
C      1  0.5196150000000  0.5368960000000  0.4845750000000 1.0
C      1  0.5061940000000  0.5467270000000  0.5170420000000 1.0
C      1  0.4293560000000  0.4530120000000  0.5276220000000 1.0
C      1  0.4175900000000  0.4444040000000  0.4987960000000 1.0
C      1  0.4314450000000  0.4553350000000  0.4733370000000 1.0
C      1  0.4224630000000  0.4809380000000  0.4509600000000 1.0
C      1  0.4157460000000  0.5114120000000  0.4436780000000 1.0
C      1  0.4278780000000  0.5366650000000  0.4601210000000 1.0
C      1  0.4140490000000  0.5512590000000  0.4846670000000 1.0
C      1  0.4255580000000  0.5476730000000  0.5149660000000 1.0
C      1  0.4158920000000  0.5305140000000  0.5403600000000 1.0
C      1  0.4322280000000  0.5045940000000  0.5489620000000 1.0
C      1  0.4180860000000  0.4749150000000  0.5473540000000 1.0
C      1  0.5651370000000  0.5477890000000  0.5064890000000 1.0
C      1  0.5522600000000  0.5358980000000  0.5336430000000 1.0
C      1  0.5678100000000  0.5120090000000  0.5418530000000 1.0
C      1  0.5558490000000  0.4852150000000  0.5499580000000 1.0
C      1  0.5699880000000  0.4648540000000  0.5319510000000 1.0
C      1  0.5540550000000  0.4504140000000  0.5094490000000 1.0
C      1  0.5691460000000  0.4465170000000  0.4827050000000 1.0
C      1  0.5636580000000  0.4697120000000  0.4548690000000 1.0
C      1  0.5494590000000  0.4989660000000  0.4478650000000 1.0
C      1  0.5647400000000  0.5199200000000  0.4632810000000 1.0
C      1  0.5503920000000  0.5388810000000  0.4817710000000 1.0
C      1  0.3896640000000  0.4531150000000  0.4961140000000 1.0
C      1  0.3861330000000  0.4675890000000  0.4726590000000 1.0
C      1  0.3790820000000  0.4866690000000  0.4553170000000 1.0
C      1  0.3860950000000  0.5118720000000  0.4462290000000 1.0
C      1  0.3766910000000  0.5327010000000  0.4618650000000 1.0
C      1  0.3850160000000  0.5447590000000  0.4854120000000 1.0
C      1  0.3784170000000  0.5313950000000  0.5094650000000 1.0
C      1  0.3867640000000  0.5255560000000  0.5359020000000 1.0
C      1  0.3780030000000  0.5016620000000  0.5465970000000 1.0
C      1  0.3885930000000  0.4765140000000  0.5427820000000 1.0
C      1  0.3801290000000  0.4635160000000  0.5198390000000 1.0
C      1  0.4572060000000  0.5838300000000  0.5189320000000 1.0
C      1  0.4770860000000  0.5601560000000  0.5554330000000 1.0
C      1  0.4822850000000  0.5122970000000  0.5646800000000 1.0
C      1  0.4688530000000  0.4675050000000  0.5695060000000 1.0
C      1  0.4694680000000  0.4288330000000  0.5439090000000 1.0
C      1  0.4666400000000  0.4173270000000  0.4998510000000 1.0
C      1  0.4823210000000  0.4361810000000  0.4614910000000 1.0
C      1  0.4804630000000  0.4719820000000  0.4352360000000 1.0
C      1  0.4799310000000  0.5155800000000  0.4269350000000 1.0
C      1  0.4725040000000  0.5553740000000  0.4443000000000 1.0
C      1  0.4820190000000  0.5746500000000  0.4830590000000 1.0
C      1  0.4730290000000  0.5428620000000  0.4162100000000 1.0
C      1  0.4771370000000  0.5837780000000  0.4551410000000 1.0
C      1  0.4823640000000  0.5945720000000  0.5044100000000 1.0
C      1  0.4561720000000  0.5821660000000  0.5495610000000 1.0
C      1  0.4760930000000  0.5396790000000  0.5785840000000 1.0
C      1  0.4783000000000  0.4909280000000  0.5866170000000 1.0
C      1  0.4745350000000  0.4375900000000  0.5727460000000 1.0
C      1  0.4753830000000  0.4048150000000  0.5263190000000 1.0
C      1  0.4748630000000  0.4073570000000  0.4713940000000 1.0
C      1  0.4753650000000  0.4425610000000  0.4325110000000 1.0
C      1  0.4756190000000  0.4911010000000  0.4115970000000 1.0
C      1  0.6112500000000  0.4903360000000  0.5440980000000 1.0
C      1  0.5993070000000  0.4684230000000  0.5287820000000 1.0
C      1  0.6124630000000  0.4605420000000  0.5038820000000 1.0
C      1  0.5997580000000  0.4493370000000  0.4801220000000 1.0
C      1  0.5948520000000  0.4689050000000  0.4545640000000 1.0
C      1  0.6070670000000  0.4955400000000  0.4564590000000 1.0
C      1  0.5940320000000  0.5212430000000  0.4604840000000 1.0
C      1  0.6057690000000  0.5370090000000  0.4805970000000 1.0
C      1  0.5949390000000  0.5441980000000  0.5054370000000 1.0
C      1  0.6080960000000  0.5362210000000  0.5299410000000 1.0
C      1  0.5964010000000  0.5155800000000  0.5471010000000 1.0
C      1  0.5192030000000  0.5599830000000  0.5774300000000 1.0
C      1  0.5192250000000  0.5124960000000  0.5947930000000 1.0
C      1  0.5187080000000  0.4659970000000  0.5781590000000 1.0
C      1  0.5146210000000  0.4330660000000  0.5428500000000 1.0
C      1  0.5166000000000  0.4074210000000  0.4968500000000 1.0
C      1  0.5159210000000  0.4136940000000  0.4438560000000 1.0
C      1  0.5130610000000  0.4576950000000  0.4047240000000 1.0
C      1  0.5148340000000  0.5190930000000  0.4000130000000 1.0
C      1  0.5161560000000  0.5603050000000  0.4338250000000 1.0
C      1  0.5210910000000  0.5944170000000  0.4753990000000 1.0
C      1  0.5149820000000  0.5758690000000  0.5274860000000 1.0
C      1  0.4318470000000  0.4318640000000  0.4550660000000 1.0
C      1  0.4324160000000  0.4685580000000  0.4247670000000 1.0
C      1  0.4281570000000  0.5155800000000  0.4152400000000 1.0
C      1  0.4287040000000  0.5581310000000  0.4390080000000 1.0
C      1  0.4222700000000  0.5805060000000  0.4785450000000 1.0
C      1  0.4141700000000  0.5755440000000  0.5258770000000 1.0
C      1  0.4217900000000  0.5486890000000  0.5642470000000 1.0
C      1  0.4332140000000  0.5083130000000  0.5783810000000 1.0
C      1  0.4256780000000  0.4625510000000  0.5741870000000 1.0
C      1  0.4254170000000  0.4276550000000  0.5437280000000 1.0
C      1  0.4232210000000  0.4141930000000  0.4970000000000 1.0
C      1  0.4606770000000  0.4623450000000  0.4791690000000 1.0
C      1  0.4606910000000  0.4836320000000  0.4553150000000 1.0
C      1  0.4717590000000  0.5117180000000  0.4550300000000 1.0
C      1  0.4583880000000  0.5364610000000  0.4643030000000 1.0
C      1  0.4678070000000  0.5502610000000  0.4885920000000 1.0
C      1  0.4561310000000  0.5535230000000  0.5140360000000 1.0
C      1  0.4769320000000  0.5409660000000  0.5310980000000 1.0
C      1  0.4626440000000  0.5058430000000  0.5402160000000 1.0
C      1  0.4747620000000  0.4755910000000  0.5403110000000 1.0
C      1  0.4599730000000  0.4528750000000  0.5278240000000 1.0
C      1  0.4706420000000  0.4466170000000  0.5024880000000 1.0
C      1  0.4388750000000  0.5361180000000  0.5849710000000 1.0
C      1  0.4400490000000  0.4827140000000  0.5907760000000 1.0
C      1  0.4358150000000  0.4355860000000  0.5705470000000 1.0
C      1  0.4365060000000  0.4075880000000  0.5235150000000 1.0
C      1  0.4361750000000  0.4078180000000  0.4710470000000 1.0
C      1  0.4447030000000  0.4406440000000  0.4291930000000 1.0
C      1  0.4442340000000  0.4901450000000  0.4068130000000 1.0
C      1  0.4409810000000  0.5436530000000  0.4147160000000 1.0
C      1  0.4387480000000  0.5823140000000  0.4532800000000 1.0
C      1  0.4294010000000  0.5925290000000  0.5057390000000 1.0
C      1  0.4269330000000  0.5758320000000  0.5534640000000 1.0
C      1  0.5578580000000  0.4208070000000  0.4737350000000 1.0
C      1  0.5513670000000  0.4504730000000  0.4361770000000 1.0
C      1  0.5523510000000  0.4906640000000  0.4102950000000 1.0
C      1  0.5561820000000  0.5400500000000  0.4160280000000 1.0
C      1  0.5583370000000  0.5717980000000  0.4535110000000 1.0
C      1  0.5592890000000  0.5764430000000  0.5041120000000 1.0
C      1  0.5596480000000  0.5689500000000  0.5520450000000 1.0
C      1  0.5600600000000  0.5361870000000  0.5901140000000 1.0
C      1  0.5615730000000  0.4862230000000  0.5869750000000 1.0
C      1  0.5565780000000  0.4414510000000  0.5671170000000 1.0
C      1  0.5573520000000  0.4151110000000  0.5237500000000 1.0
C      1  0.5424020000000  0.5170220000000  0.4081970000000 1.0
C      1  0.5456540000000  0.5610650000000  0.4309910000000 1.0
C      1  0.5476130000000  0.5829530000000  0.4772120000000 1.0
C      1  0.5450950000000  0.5805340000000  0.5296080000000 1.0
C      1  0.5472840000000  0.5548210000000  0.5732530000000 1.0
C      1  0.5485730000000  0.5112040000000  0.5962510000000 1.0
C      1  0.5471160000000  0.4608330000000  0.5854290000000 1.0
C      1  0.5436960000000  0.4278030000000  0.5459610000000 1.0
C      1  0.5454050000000  0.4086390000000  0.4977100000000 1.0
C      1  0.5408680000000  0.4273500000000  0.4506800000000 1.0
C      1  0.5364850000000  0.4677500000000  0.4186520000000 1.0
C      1  0.5634670000000  0.4933160000000  0.4985630000000 1.0
C      1  0.4890380000000  0.5002030000000  0.4940360000000 1.0
C      1  0.4112820000000  0.5072850000000  0.4999640000000 1.0
C      1  0.4367360000000  0.5052640000000  0.5039180000000 1.0
C      1  0.6141430000000  0.5047910000000  0.5087650000000 1.0
C      1  0.6406440000000  0.5023260000000  0.4990550000000 1.0
C      1  0.6654080000000  0.5027690000000  0.4923430000000 1.0
C      1  0.5921170000000  0.4907220000000  0.4914630000000 1.0
C      1  0.5154630000000  0.5065420000000  0.4848440000000 1.0
C      1  0.4622170000000  0.5018960000000  0.4969050000000 1.0
C      1  0.5353080000000  0.4900420000000  0.4994040000000 1.0
END
