TITL C-3577085-527-470 -1.56187999055253e-06 125000 -1001.38283134391 0 0 159 (C1) n - 1
REM
REM in /home/bkarasulu/work/CARBON/AIRSS/Generating-Clusters/EDIP-Nigel-Params/with-SteepDescent/Higher-Symm/SD-CG/HFTN-CG
REM
REM
REM
REM
REM
REM ./C.cell (12c818d87b63d06a65506943cc24bca4)
REM
REM compiler GCC version 9.2.1 20190827 (Red Hat 9.2.1-1)
REM options -cpp -mtune=generic -march=x86-64 -g -O0 -fpre-include=/usr/include/finclude/math-vector-fortran.h
REM seed -812204149 136698196 -8832993 1949220268 -317311447 2004631081 -1095215111 -2065999635 1553731851 415921342 -1165858126 422002214 -1668834274 -1282475375 1564905590 1604788464 1518063684 1877140075 28189756 229542134 -1658954704 -1644025981 -1459195962 1593204296 -940556216 -194322858 461750115 1810693909 1611905618 -1211369324 -580890465 370046964 -654907254
REM
CELL 1.54180   50.00000   50.00000   50.00000   90.00000   90.00000   90.00000
LATT -1
SFAC C  
C      1  0.4715540000000  0.4487880000000  0.4134290000000 1.0
C      1  0.4681260000000  0.5490620000000  0.4181010000000 1.0
C      1  0.5234810000000  0.5458370000000  0.4640410000000 1.0
C      1  0.5262080000000  0.4498640000000  0.4598470000000 1.0
C      1  0.5017480000000  0.3898020000000  0.4935610000000 1.0
C      1  0.5009770000000  0.6050770000000  0.4909230000000 1.0
C      1  0.5274480000000  0.3921240000000  0.4755470000000 1.0
C      1  0.5270440000000  0.6022530000000  0.4728950000000 1.0
C      1  0.4723150000000  0.5207580000000  0.5505600000000 1.0
C      1  0.4817300000000  0.4713410000000  0.5491460000000 1.0
C      1  0.4689960000000  0.5116070000000  0.6078500000000 1.0
C      1  0.4727530000000  0.4832840000000  0.6002540000000 1.0
C      1  0.4303440000000  0.5583660000000  0.5492950000000 1.0
C      1  0.4356550000000  0.4483720000000  0.5466150000000 1.0
C      1  0.5097880000000  0.4053740000000  0.5240940000000 1.0
C      1  0.5117450000000  0.5996560000000  0.5233850000000 1.0
C      1  0.4221930000000  0.5744530000000  0.5265900000000 1.0
C      1  0.4225430000000  0.4290850000000  0.5278290000000 1.0
C      1  0.4946420000000  0.5464230000000  0.4532430000000 1.0
C      1  0.4973760000000  0.4494440000000  0.4485510000000 1.0
C      1  0.6217430000000  0.4870160000000  0.4729680000000 1.0
C      1  0.6207670000000  0.5162780000000  0.4741270000000 1.0
C      1  0.5865820000000  0.4874960000000  0.5569720000000 1.0
C      1  0.5850620000000  0.5167140000000  0.5546420000000 1.0
C      1  0.4447370000000  0.4790830000000  0.4800480000000 1.0
C      1  0.4436640000000  0.5247900000000  0.4759530000000 1.0
C      1  0.4965910000000  0.4231890000000  0.5963350000000 1.0
C      1  0.5044020000000  0.5811860000000  0.5936120000000 1.0
C      1  0.5885150000000  0.4847210000000  0.4309500000000 1.0
C      1  0.5878200000000  0.5139870000000  0.4322630000000 1.0
C      1  0.5048020000000  0.4805750000000  0.4861900000000 1.0
C      1  0.4949870000000  0.5084040000000  0.4799040000000 1.0
C      1  0.4152460000000  0.4854960000000  0.4821660000000 1.0
C      1  0.4148350000000  0.5158890000000  0.4813900000000 1.0
C      1  0.4969910000000  0.5673900000000  0.4981720000000 1.0
C      1  0.4937770000000  0.4333880000000  0.4917440000000 1.0
C      1  0.4786410000000  0.4084050000000  0.4804530000000 1.0
C      1  0.4743220000000  0.5979680000000  0.4755470000000 1.0
C      1  0.4477750000000  0.4692310000000  0.5943160000000 1.0
C      1  0.4519650000000  0.5301730000000  0.5941900000000 1.0
C      1  0.4481000000000  0.5035940000000  0.5483650000000 1.0
C      1  0.4565530000000  0.4781860000000  0.5340240000000 1.0
C      1  0.4540900000000  0.4880660000000  0.4529140000000 1.0
C      1  0.4563060000000  0.5158560000000  0.4500200000000 1.0
C      1  0.4639330000000  0.5725370000000  0.5374860000000 1.0
C      1  0.4650780000000  0.4242760000000  0.5367250000000 1.0
C      1  0.6180630000000  0.5198200000000  0.5027030000000 1.0
C      1  0.6200030000000  0.4812650000000  0.5012180000000 1.0
C      1  0.3987550000000  0.5187740000000  0.4565510000000 1.0
C      1  0.4004080000000  0.4805400000000  0.4568000000000 1.0
C      1  0.5134330000000  0.4204950000000  0.5735210000000 1.0
C      1  0.5185080000000  0.5960750000000  0.5737770000000 1.0
C      1  0.4804620000000  0.5542900000000  0.4787070000000 1.0
C      1  0.4837620000000  0.4562000000000  0.4764170000000 1.0
C      1  0.4231410000000  0.5738900000000  0.4768920000000 1.0
C      1  0.4294710000000  0.4302010000000  0.4811560000000 1.0
C      1  0.5107400000000  0.5086570000000  0.4221060000000 1.0
C      1  0.5051510000000  0.4841990000000  0.4072720000000 1.0
C      1  0.4125400000000  0.5596250000000  0.5027440000000 1.0
C      1  0.4121800000000  0.4421630000000  0.5038820000000 1.0
C      1  0.5472610000000  0.4347990000000  0.4434790000000 1.0
C      1  0.5428960000000  0.5605380000000  0.4459610000000 1.0
C      1  0.4643790000000  0.5025890000000  0.3955480000000 1.0
C      1  0.4534070000000  0.5268660000000  0.4053350000000 1.0
C      1  0.5015770000000  0.4132270000000  0.4340590000000 1.0
C      1  0.5008570000000  0.5836860000000  0.4324810000000 1.0
C      1  0.5426110000000  0.4133850000000  0.4914840000000 1.0
C      1  0.5422480000000  0.5834550000000  0.4919690000000 1.0
C      1  0.6054480000000  0.5330230000000  0.5449390000000 1.0
C      1  0.6027510000000  0.4718410000000  0.5409520000000 1.0
C      1  0.4755410000000  0.5859430000000  0.4481820000000 1.0
C      1  0.4761440000000  0.4124710000000  0.4496940000000 1.0
C      1  0.5724780000000  0.4365110000000  0.4598270000000 1.0
C      1  0.5692450000000  0.5607830000000  0.4602380000000 1.0
C      1  0.5380050000000  0.5141970000000  0.5719290000000 1.0
C      1  0.5411390000000  0.4871040000000  0.5800510000000 1.0
C      1  0.5151570000000  0.5301070000000  0.5775360000000 1.0
C      1  0.5175900000000  0.4701860000000  0.5811090000000 1.0
C      1  0.4919860000000  0.4318170000000  0.5221570000000 1.0
C      1  0.4868840000000  0.5565020000000  0.5237740000000 1.0
C      1  0.6016190000000  0.4626680000000  0.5147640000000 1.0
C      1  0.6033570000000  0.5403130000000  0.5181110000000 1.0
C      1  0.5404680000000  0.5912300000000  0.5208170000000 1.0
C      1  0.5397790000000  0.4115490000000  0.5208960000000 1.0
C      1  0.4707390000000  0.4210570000000  0.5852580000000 1.0
C      1  0.4769670000000  0.5779770000000  0.5854540000000 1.0
C      1  0.4379860000000  0.4805970000000  0.4294620000000 1.0
C      1  0.4351310000000  0.5174420000000  0.4261340000000 1.0
C      1  0.4596120000000  0.5571140000000  0.5926410000000 1.0
C      1  0.4523020000000  0.4424030000000  0.5867190000000 1.0
C      1  0.5221770000000  0.4471400000000  0.5614760000000 1.0
C      1  0.5234690000000  0.5581200000000  0.5694710000000 1.0
C      1  0.5014350000000  0.6021780000000  0.5513010000000 1.0
C      1  0.5022290000000  0.4006020000000  0.5540130000000 1.0
C      1  0.4060230000000  0.4716770000000  0.5064300000000 1.0
C      1  0.4061410000000  0.5307070000000  0.5056330000000 1.0
C      1  0.4292050000000  0.4862260000000  0.5777680000000 1.0
C      1  0.4287970000000  0.5180650000000  0.5791940000000 1.0
C      1  0.5606260000000  0.5183470000000  0.4230780000000 1.0
C      1  0.5613150000000  0.4798630000000  0.4221730000000 1.0
C      1  0.5721710000000  0.4210560000000  0.4852540000000 1.0
C      1  0.5714240000000  0.5759510000000  0.4862450000000 1.0
C      1  0.4147400000000  0.5357460000000  0.4388430000000 1.0
C      1  0.4158570000000  0.4638320000000  0.4378250000000 1.0
C      1  0.5311080000000  0.5172770000000  0.4679940000000 1.0
C      1  0.5308040000000  0.4785650000000  0.4688960000000 1.0
C      1  0.4968970000000  0.5575260000000  0.4158690000000 1.0
C      1  0.4991860000000  0.4359870000000  0.4116170000000 1.0
C      1  0.4886540000000  0.5155480000000  0.5751050000000 1.0
C      1  0.4911480000000  0.4837570000000  0.5755630000000 1.0
C      1  0.5804240000000  0.5605590000000  0.5127030000000 1.0
C      1  0.5820710000000  0.4378860000000  0.5109260000000 1.0
C      1  0.4445160000000  0.4096580000000  0.5201360000000 1.0
C      1  0.4462910000000  0.5908460000000  0.5188690000000 1.0
C      1  0.5781430000000  0.4612440000000  0.4775810000000 1.0
C      1  0.5753190000000  0.5369230000000  0.4782180000000 1.0
C      1  0.4483710000000  0.5894800000000  0.4893250000000 1.0
C      1  0.4491160000000  0.4091300000000  0.4912440000000 1.0
C      1  0.5178400000000  0.5354480000000  0.4122230000000 1.0
C      1  0.5190710000000  0.4586000000000  0.4116920000000 1.0
C      1  0.5606900000000  0.5294060000000  0.5636640000000 1.0
C      1  0.5606500000000  0.4740350000000  0.5627110000000 1.0
C      1  0.5514770000000  0.4465920000000  0.5549640000000 1.0
C      1  0.5516630000000  0.5567610000000  0.5583560000000 1.0
C      1  0.4734730000000  0.4072470000000  0.5593880000000 1.0
C      1  0.4757050000000  0.5894930000000  0.5586110000000 1.0
C      1  0.5275670000000  0.5881880000000  0.4454320000000 1.0
C      1  0.5281370000000  0.4059200000000  0.4470430000000 1.0
C      1  0.5453890000000  0.4747890000000  0.5146820000000 1.0
C      1  0.5420340000000  0.5231840000000  0.5160080000000 1.0
C      1  0.4869090000000  0.5261910000000  0.5253740000000 1.0
C      1  0.5037250000000  0.4567520000000  0.5361190000000 1.0
C      1  0.4108630000000  0.5168440000000  0.5310210000000 1.0
C      1  0.4105010000000  0.4871810000000  0.5311860000000 1.0
C      1  0.5953510000000  0.4803230000000  0.4603830000000 1.0
C      1  0.5939840000000  0.5194910000000  0.4615330000000 1.0
C      1  0.5447060000000  0.5427440000000  0.4211470000000 1.0
C      1  0.5467810000000  0.4549140000000  0.4202910000000 1.0
C      1  0.5587510000000  0.4325290000000  0.5304620000000 1.0
C      1  0.5596290000000  0.5708110000000  0.5333060000000 1.0
C      1  0.5153080000000  0.5092510000000  0.5264680000000 1.0
C      1  0.5156590000000  0.4791410000000  0.5158570000000 1.0
C      1  0.5243480000000  0.5590810000000  0.4908340000000 1.0
C      1  0.5233290000000  0.4352500000000  0.4851130000000 1.0
C      1  0.4584240000000  0.4340570000000  0.4371740000000 1.0
C      1  0.4549730000000  0.5668470000000  0.4372000000000 1.0
C      1  0.5519890000000  0.5204390000000  0.4880090000000 1.0
C      1  0.5541760000000  0.4764860000000  0.4867880000000 1.0
C      1  0.4604530000000  0.4880290000000  0.5048360000000 1.0
C      1  0.4726890000000  0.5146480000000  0.4999470000000 1.0
C      1  0.4874970000000  0.5173540000000  0.4506800000000 1.0
C      1  0.4764110000000  0.4793270000000  0.4071440000000 1.0
C      1  0.4178200000000  0.5330310000000  0.5547690000000 1.0
C      1  0.4184540000000  0.4715010000000  0.5541330000000 1.0
C      1  0.4300330000000  0.5586320000000  0.4509310000000 1.0
C      1  0.4297690000000  0.4378360000000  0.4473510000000 1.0
C      1  0.4524310000000  0.4512700000000  0.4773150000000 1.0
C      1  0.4527470000000  0.5506450000000  0.4872620000000 1.0
C      1  0.5521430000000  0.4983080000000  0.5333740000000 1.0
END
