TITL C-3577083-591-757 -3.68091059038796e-06 125000 -1262.98568829641 0 0 196 (C1) n - 1
REM
REM in /home/bkarasulu/work/CARBON/AIRSS/Generating-Clusters/EDIP-Nigel-Params/with-SteepDescent/Higher-Symm/SD-CG/HFTN-CG
REM
REM
REM
REM
REM
REM ./C.cell (12c818d87b63d06a65506943cc24bca4)
REM
REM compiler GCC version 9.2.1 20190827 (Red Hat 9.2.1-1)
REM options -cpp -mtune=generic -march=x86-64 -g -O0 -fpre-include=/usr/include/finclude/math-vector-fortran.h
REM seed -1512411043 1780027233 482560794 -1861272694 994067494 -133356642 -1092462805 -946147381 -2049955861 -1515871046 1870909763 198738099 1918520258 -469166913 337389108 -2033897713 -2021286272 1445172661 -1625572128 483236327 1112663639 836199079 -1820345239 -113167333 -1198534976 -221895409 -1074818576 45767650 -745386223 616439743 376001397 -679355241 406655991
REM
CELL 1.54180   50.00000   50.00000   50.00000   90.00000   90.00000   90.00000
LATT -1
SFAC C  
C      1  0.4020200000000  0.5445020000000  0.5131650000000 1.0
C      1  0.3984420000000  0.5282980000000  0.4626880000000 1.0
C      1  0.3971470000000  0.4738840000000  0.4604020000000 1.0
C      1  0.4107360000000  0.4627910000000  0.5128260000000 1.0
C      1  0.4073440000000  0.5036290000000  0.5433890000000 1.0
C      1  0.5975030000000  0.5426210000000  0.5126500000000 1.0
C      1  0.5971650000000  0.5245660000000  0.4635000000000 1.0
C      1  0.5982910000000  0.4724000000000  0.4638590000000 1.0
C      1  0.5955830000000  0.4583830000000  0.5142370000000 1.0
C      1  0.5964890000000  0.5013200000000  0.5441800000000 1.0
C      1  0.5274230000000  0.4404920000000  0.5076400000000 1.0
C      1  0.5293820000000  0.4890390000000  0.5511520000000 1.0
C      1  0.5228450000000  0.5459760000000  0.5419570000000 1.0
C      1  0.5212800000000  0.5375070000000  0.4703940000000 1.0
C      1  0.5290840000000  0.4827500000000  0.4513060000000 1.0
C      1  0.4783850000000  0.4434610000000  0.5047920000000 1.0
C      1  0.4773460000000  0.4962900000000  0.5483540000000 1.0
C      1  0.4820450000000  0.5645440000000  0.5368400000000 1.0
C      1  0.4737140000000  0.5415030000000  0.4612870000000 1.0
C      1  0.4820940000000  0.4741320000000  0.4454310000000 1.0
C      1  0.4496270000000  0.5466280000000  0.4982000000000 1.0
C      1  0.4422620000000  0.5038820000000  0.4620210000000 1.0
C      1  0.4518390000000  0.4532090000000  0.4674160000000 1.0
C      1  0.4652310000000  0.4680920000000  0.5492030000000 1.0
C      1  0.4577240000000  0.5196200000000  0.5422120000000 1.0
C      1  0.5505250000000  0.5428220000000  0.5032360000000 1.0
C      1  0.5489160000000  0.5298980000000  0.4607280000000 1.0
C      1  0.5507090000000  0.4507090000000  0.4714240000000 1.0
C      1  0.5512350000000  0.4608810000000  0.5385170000000 1.0
C      1  0.5473880000000  0.5092800000000  0.5392620000000 1.0
C      1  0.5918640000000  0.4839030000000  0.4380040000000 1.0
C      1  0.5913390000000  0.4353870000000  0.4940420000000 1.0
C      1  0.5933150000000  0.4750530000000  0.5596340000000 1.0
C      1  0.5917770000000  0.5500210000000  0.5423090000000 1.0
C      1  0.5958800000000  0.5558120000000  0.4658440000000 1.0
C      1  0.4059710000000  0.4872500000000  0.4357740000000 1.0
C      1  0.4130640000000  0.4401550000000  0.4934370000000 1.0
C      1  0.4110100000000  0.4776380000000  0.5584910000000 1.0
C      1  0.4076310000000  0.5513280000000  0.5426290000000 1.0
C      1  0.4053400000000  0.5579230000000  0.4659320000000 1.0
C      1  0.4326780000000  0.5072690000000  0.5253970000000 1.0
C      1  0.4260320000000  0.5275880000000  0.5040090000000 1.0
C      1  0.4184650000000  0.5127970000000  0.4793490000000 1.0
C      1  0.4361700000000  0.4776200000000  0.4790320000000 1.0
C      1  0.4374370000000  0.4798420000000  0.5105160000000 1.0
C      1  0.5723040000000  0.5023580000000  0.5252930000000 1.0
C      1  0.5737630000000  0.5246670000000  0.5042140000000 1.0
C      1  0.5702570000000  0.5136910000000  0.4759300000000 1.0
C      1  0.5592030000000  0.4801980000000  0.4830620000000 1.0
C      1  0.5695740000000  0.4752290000000  0.5131430000000 1.0
C      1  0.5220960000000  0.5905730000000  0.4848280000000 1.0
C      1  0.5281820000000  0.5135450000000  0.4055030000000 1.0
C      1  0.5268600000000  0.4140020000000  0.4499270000000 1.0
C      1  0.5282900000000  0.4243360000000  0.5703890000000 1.0
C      1  0.5223420000000  0.5441880000000  0.5912700000000 1.0
C      1  0.4743600000000  0.5943470000000  0.4830640000000 1.0
C      1  0.4770660000000  0.5137470000000  0.4063350000000 1.0
C      1  0.4740100000000  0.4158050000000  0.4520310000000 1.0
C      1  0.4760500000000  0.4251780000000  0.5710970000000 1.0
C      1  0.4729320000000  0.5477680000000  0.5931610000000 1.0
C      1  0.4869530000000  0.4391690000000  0.5961100000000 1.0
C      1  0.4841560000000  0.5762380000000  0.5925190000000 1.0
C      1  0.4846530000000  0.6035330000000  0.4561100000000 1.0
C      1  0.4877230000000  0.4904700000000  0.3907220000000 1.0
C      1  0.4861880000000  0.3958310000000  0.4697940000000 1.0
C      1  0.5159560000000  0.4387260000000  0.5942930000000 1.0
C      1  0.5132800000000  0.5736360000000  0.5906870000000 1.0
C      1  0.5114890000000  0.5933060000000  0.4570480000000 1.0
C      1  0.5157070000000  0.4885680000000  0.3954680000000 1.0
C      1  0.5146570000000  0.3933970000000  0.4677390000000 1.0
C      1  0.5554080000000  0.5730370000000  0.5731450000000 1.0
C      1  0.5579260000000  0.5888980000000  0.4526530000000 1.0
C      1  0.5602170000000  0.4801160000000  0.4000540000000 1.0
C      1  0.5593750000000  0.3966900000000  0.4792620000000 1.0
C      1  0.5589840000000  0.4526200000000  0.5903360000000 1.0
C      1  0.4418240000000  0.5751370000000  0.5728830000000 1.0
C      1  0.4396300000000  0.5930940000000  0.4519880000000 1.0
C      1  0.4429950000000  0.4833510000000  0.4018810000000 1.0
C      1  0.4418840000000  0.4002540000000  0.4814940000000 1.0
C      1  0.4439780000000  0.4539360000000  0.5903570000000 1.0
C      1  0.5152700000000  0.4872710000000  0.4790840000000 1.0
C      1  0.5270630000000  0.4704550000000  0.5029090000000 1.0
C      1  0.5146760000000  0.4823220000000  0.5262000000000 1.0
C      1  0.5323040000000  0.5282700000000  0.5228230000000 1.0
C      1  0.5119430000000  0.5156000000000  0.4862870000000 1.0
C      1  0.4807930000000  0.4860810000000  0.4755010000000 1.0
C      1  0.4724400000000  0.4744390000000  0.5040560000000 1.0
C      1  0.4894500000000  0.4935120000000  0.5217050000000 1.0
C      1  0.4710880000000  0.5397830000000  0.5200540000000 1.0
C      1  0.4671540000000  0.5143920000000  0.4729710000000 1.0
C      1  0.5490410000000  0.4217790000000  0.5188130000000 1.0
C      1  0.5581070000000  0.4992260000000  0.5870450000000 1.0
C      1  0.5576140000000  0.5856920000000  0.5271320000000 1.0
C      1  0.5582400000000  0.5449960000000  0.4362480000000 1.0
C      1  0.5524110000000  0.4526360000000  0.4369960000000 1.0
C      1  0.4553090000000  0.4279880000000  0.5190670000000 1.0
C      1  0.4408100000000  0.5018970000000  0.5903810000000 1.0
C      1  0.4396080000000  0.5862910000000  0.5266680000000 1.0
C      1  0.4505220000000  0.5485960000000  0.4387140000000 1.0
C      1  0.4481180000000  0.4544920000000  0.4357330000000 1.0
C      1  0.4088690000000  0.5279450000000  0.5606410000000 1.0
C      1  0.4057330000000  0.5679850000000  0.4940740000000 1.0
C      1  0.4052340000000  0.5171410000000  0.4350410000000 1.0
C      1  0.4079240000000  0.4465460000000  0.4656050000000 1.0
C      1  0.4148480000000  0.4548820000000  0.5406820000000 1.0
C      1  0.5915290000000  0.5266950000000  0.5605140000000 1.0
C      1  0.5926640000000  0.5660920000000  0.4940240000000 1.0
C      1  0.5962100000000  0.5129180000000  0.4352430000000 1.0
C      1  0.5940880000000  0.4437470000000  0.4664340000000 1.0
C      1  0.5947700000000  0.4500100000000  0.5432680000000 1.0
C      1  0.4686960000000  0.4684880000000  0.3964580000000 1.0
C      1  0.4676950000000  0.3885050000000  0.4912780000000 1.0
C      1  0.4700260000000  0.4639830000000  0.6027620000000 1.0
C      1  0.4675230000000  0.5901420000000  0.5722010000000 1.0
C      1  0.4649860000000  0.5947580000000  0.4364160000000 1.0
C      1  0.5340700000000  0.4655520000000  0.3931340000000 1.0
C      1  0.5332150000000  0.3864910000000  0.4892170000000 1.0
C      1  0.5326120000000  0.4616320000000  0.6025760000000 1.0
C      1  0.5301570000000  0.5887110000000  0.5717520000000 1.0
C      1  0.5319100000000  0.5869510000000  0.4360260000000 1.0
C      1  0.5737310000000  0.4317040000000  0.4466270000000 1.0
C      1  0.5679100000000  0.4354960000000  0.5460760000000 1.0
C      1  0.5663020000000  0.5246010000000  0.5761230000000 1.0
C      1  0.5630270000000  0.5717470000000  0.5011260000000 1.0
C      1  0.5742680000000  0.5259310000000  0.4188400000000 1.0
C      1  0.4269550000000  0.4326870000000  0.4451270000000 1.0
C      1  0.4432530000000  0.4450350000000  0.5442350000000 1.0
C      1  0.4328310000000  0.5268260000000  0.5777210000000 1.0
C      1  0.4347220000000  0.5753040000000  0.4995650000000 1.0
C      1  0.4354820000000  0.5227740000000  0.4288920000000 1.0
C      1  0.5298580000000  0.4928400000000  0.5952510000000 1.0
C      1  0.5277830000000  0.5926950000000  0.5340270000000 1.0
C      1  0.5335360000000  0.5587190000000  0.4246790000000 1.0
C      1  0.5286420000000  0.4392360000000  0.4049930000000 1.0
C      1  0.5310880000000  0.3983050000000  0.5248010000000 1.0
C      1  0.4674060000000  0.4957950000000  0.6011550000000 1.0
C      1  0.4681650000000  0.5925870000000  0.5341700000000 1.0
C      1  0.4688580000000  0.5620820000000  0.4184800000000 1.0
C      1  0.4748760000000  0.4416870000000  0.4059490000000 1.0
C      1  0.4701540000000  0.4022850000000  0.5256600000000 1.0
C      1  0.5154740000000  0.4192970000000  0.4216610000000 1.0
C      1  0.5162940000000  0.4022110000000  0.5504960000000 1.0
C      1  0.5138090000000  0.5179580000000  0.6063870000000 1.0
C      1  0.5136370000000  0.6077300000000  0.5095540000000 1.0
C      1  0.5169140000000  0.5427410000000  0.4055940000000 1.0
C      1  0.4861000000000  0.4218400000000  0.4234700000000 1.0
C      1  0.4863560000000  0.4033950000000  0.5506990000000 1.0
C      1  0.4839440000000  0.5200660000000  0.6066470000000 1.0
C      1  0.4837020000000  0.6065190000000  0.5098910000000 1.0
C      1  0.4871060000000  0.5426820000000  0.4048170000000 1.0
C      1  0.4441390000000  0.4089130000000  0.4531150000000 1.0
C      1  0.4466270000000  0.4309000000000  0.5707570000000 1.0
C      1  0.4436840000000  0.5507550000000  0.5896730000000 1.0
C      1  0.4453250000000  0.5958840000000  0.4807200000000 1.0
C      1  0.4475700000000  0.5121270000000  0.4039460000000 1.0
C      1  0.5568940000000  0.4071380000000  0.4517410000000 1.0
C      1  0.5577960000000  0.4281380000000  0.5732340000000 1.0
C      1  0.5520000000000  0.5473250000000  0.5869430000000 1.0
C      1  0.5507070000000  0.5892850000000  0.4811690000000 1.0
C      1  0.5574050000000  0.5099550000000  0.3997750000000 1.0
C      1  0.5764670000000  0.5666010000000  0.4457110000000 1.0
C      1  0.5659220000000  0.4764490000000  0.4277590000000 1.0
C      1  0.5674190000000  0.4185650000000  0.4965040000000 1.0
C      1  0.5693980000000  0.4753940000000  0.5760420000000 1.0
C      1  0.5702380000000  0.5702190000000  0.5480710000000 1.0
C      1  0.4284920000000  0.5666790000000  0.4487700000000 1.0
C      1  0.4325910000000  0.4778070000000  0.4276300000000 1.0
C      1  0.4364800000000  0.4239730000000  0.4970930000000 1.0
C      1  0.4325410000000  0.4777840000000  0.5777750000000 1.0
C      1  0.4300110000000  0.5693080000000  0.5472040000000 1.0
C      1  0.6202930000000  0.5140400000000  0.4795390000000 1.0
C      1  0.6189950000000  0.4847650000000  0.4803250000000 1.0
C      1  0.6193020000000  0.4764030000000  0.5084290000000 1.0
C      1  0.6206600000000  0.5008770000000  0.5256270000000 1.0
C      1  0.6215060000000  0.5246370000000  0.5074610000000 1.0
C      1  0.3748030000000  0.5174740000000  0.4794560000000 1.0
C      1  0.3814470000000  0.4882070000000  0.4808760000000 1.0
C      1  0.3854600000000  0.4792630000000  0.5083550000000 1.0
C      1  0.3826470000000  0.5025590000000  0.5257420000000 1.0
C      1  0.3775270000000  0.5267330000000  0.5085710000000 1.0
C      1  0.4819770000000  0.5640930000000  0.4844700000000 1.0
C      1  0.4873260000000  0.5054710000000  0.4347920000000 1.0
C      1  0.4816260000000  0.4400150000000  0.4719350000000 1.0
C      1  0.4876150000000  0.4476070000000  0.5528070000000 1.0
C      1  0.4804080000000  0.5434440000000  0.5632670000000 1.0
C      1  0.5119120000000  0.5628690000000  0.4935830000000 1.0
C      1  0.5200410000000  0.5082070000000  0.4351760000000 1.0
C      1  0.5200520000000  0.4407110000000  0.4645330000000 1.0
C      1  0.5205370000000  0.4464050000000  0.5507300000000 1.0
C      1  0.5086460000000  0.5337930000000  0.5649310000000 1.0
C      1  0.5107760000000  0.5670370000000  0.5271200000000 1.0
C      1  0.5053040000000  0.5030650000000  0.5656720000000 1.0
C      1  0.5013760000000  0.5384020000000  0.4466210000000 1.0
C      1  0.5095010000000  0.4605040000000  0.4442440000000 1.0
C      1  0.5023840000000  0.4317520000000  0.5207690000000 1.0
C      1  0.4959880000000  0.5205890000000  0.5108210000000 1.0
END
