TITL C-3577079-311-300 -4.81472595124662e-06 125000 -903.726913804946 0 0 147 (C1) n - 1
REM
REM in /home/bkarasulu/work/CARBON/AIRSS/Generating-Clusters/EDIP-Nigel-Params/with-SteepDescent/Higher-Symm/SD-CG/HFTN-CG
REM
REM
REM
REM
REM
REM ./C.cell (12c818d87b63d06a65506943cc24bca4)
REM
REM compiler GCC version 9.2.1 20190827 (Red Hat 9.2.1-1)
REM options -cpp -mtune=generic -march=x86-64 -g -O0 -fpre-include=/usr/include/finclude/math-vector-fortran.h
REM seed 672892872 1865522072 435665529 1089136390 -187549186 283958696 -1909479414 355316014 -1744203462 1072395544 -576609837 1516222395 2077362156 -1215551819 -791550114 -1848051518 872652253 -468933769 -1217548853 -852398630 -1600080730 1473069124 -1431838 -394833281 -1821343387 1142338130 214180007 1632349026 -199295445 -804076690 -505826223 -734821083 810284010
REM
CELL 1.54180   50.00000   50.00000   50.00000   90.00000   90.00000   90.00000
LATT -1
SFAC C  
C      1  0.5914280000000  0.5210720000000  0.4321270000000 1.0
C      1  0.5883810000000  0.4574320000000  0.4669090000000 1.0
C      1  0.5928720000000  0.4521370000000  0.5404710000000 1.0
C      1  0.5908760000000  0.5197820000000  0.5632050000000 1.0
C      1  0.5924360000000  0.5600910000000  0.4956660000000 1.0
C      1  0.4129550000000  0.5142700000000  0.4536230000000 1.0
C      1  0.4102970000000  0.4507180000000  0.4695600000000 1.0
C      1  0.4072940000000  0.4538130000000  0.5350110000000 1.0
C      1  0.4048920000000  0.5216790000000  0.5595010000000 1.0
C      1  0.4047630000000  0.5625200000000  0.4960960000000 1.0
C      1  0.4517240000000  0.4650830000000  0.5326320000000 1.0
C      1  0.4490140000000  0.5223740000000  0.5445270000000 1.0
C      1  0.4450160000000  0.5523330000000  0.5030880000000 1.0
C      1  0.4644080000000  0.5047820000000  0.4406070000000 1.0
C      1  0.4658070000000  0.4534570000000  0.4706320000000 1.0
C      1  0.5482290000000  0.4678240000000  0.5235560000000 1.0
C      1  0.5516650000000  0.5122850000000  0.5412650000000 1.0
C      1  0.5501800000000  0.5372440000000  0.4993500000000 1.0
C      1  0.5605940000000  0.4971720000000  0.4708100000000 1.0
C      1  0.5429790000000  0.4463410000000  0.4817370000000 1.0
C      1  0.5513640000000  0.5762820000000  0.5194580000000 1.0
C      1  0.5500650000000  0.5456080000000  0.4274900000000 1.0
C      1  0.5520170000000  0.4485760000000  0.4324170000000 1.0
C      1  0.5534760000000  0.4193070000000  0.5325310000000 1.0
C      1  0.5492430000000  0.5014070000000  0.5840980000000 1.0
C      1  0.4409010000000  0.5886970000000  0.5286750000000 1.0
C      1  0.4433960000000  0.5498700000000  0.4313060000000 1.0
C      1  0.4445420000000  0.4447830000000  0.4333110000000 1.0
C      1  0.4460590000000  0.4208290000000  0.5282740000000 1.0
C      1  0.4431320000000  0.5032160000000  0.5900220000000 1.0
C      1  0.4786070000000  0.4973500000000  0.5234740000000 1.0
C      1  0.4763930000000  0.5229850000000  0.5115000000000 1.0
C      1  0.4750880000000  0.5218360000000  0.4820760000000 1.0
C      1  0.4817030000000  0.4929580000000  0.4795550000000 1.0
C      1  0.4821310000000  0.4777370000000  0.5034230000000 1.0
C      1  0.5236340000000  0.5071820000000  0.5302620000000 1.0
C      1  0.5200340000000  0.5305730000000  0.5091100000000 1.0
C      1  0.5231770000000  0.5185730000000  0.4773790000000 1.0
C      1  0.5321330000000  0.4892660000000  0.4787690000000 1.0
C      1  0.5256570000000  0.4814060000000  0.5105800000000 1.0
C      1  0.4306220000000  0.5798010000000  0.4996490000000 1.0
C      1  0.4350430000000  0.5198290000000  0.4317630000000 1.0
C      1  0.4298920000000  0.4331220000000  0.4573580000000 1.0
C      1  0.4333680000000  0.4432900000000  0.5454950000000 1.0
C      1  0.4318470000000  0.5266660000000  0.5722860000000 1.0
C      1  0.5686800000000  0.5766370000000  0.4945800000000 1.0
C      1  0.5660120000000  0.5223410000000  0.4190280000000 1.0
C      1  0.5649320000000  0.4391950000000  0.4585570000000 1.0
C      1  0.5682930000000  0.4387530000000  0.5503100000000 1.0
C      1  0.5651960000000  0.5261480000000  0.5755940000000 1.0
C      1  0.4759270000000  0.4235950000000  0.5223430000000 1.0
C      1  0.4725890000000  0.4990010000000  0.5869930000000 1.0
C      1  0.4710540000000  0.5865970000000  0.5312630000000 1.0
C      1  0.4733190000000  0.5520360000000  0.4330790000000 1.0
C      1  0.4743130000000  0.4457500000000  0.4281510000000 1.0
C      1  0.5227280000000  0.4216700000000  0.5243960000000 1.0
C      1  0.5185190000000  0.4992490000000  0.5839080000000 1.0
C      1  0.5177670000000  0.5812910000000  0.5255550000000 1.0
C      1  0.5192390000000  0.5469980000000  0.4311030000000 1.0
C      1  0.5222760000000  0.4537020000000  0.4342070000000 1.0
C      1  0.4312170000000  0.4722570000000  0.4298530000000 1.0
C      1  0.4339910000000  0.4287900000000  0.5021590000000 1.0
C      1  0.4306460000000  0.4812760000000  0.5738600000000 1.0
C      1  0.4285460000000  0.5668550000000  0.5458860000000 1.0
C      1  0.4326420000000  0.5608690000000  0.4570070000000 1.0
C      1  0.5658650000000  0.4741130000000  0.4266390000000 1.0
C      1  0.5693770000000  0.4231870000000  0.5081090000000 1.0
C      1  0.5633420000000  0.4785180000000  0.5708410000000 1.0
C      1  0.5647430000000  0.5571820000000  0.5379540000000 1.0
C      1  0.5639530000000  0.5513640000000  0.4529500000000 1.0
C      1  0.5930780000000  0.4815730000000  0.5287090000000 1.0
C      1  0.5968590000000  0.5136130000000  0.5361550000000 1.0
C      1  0.5925500000000  0.5323500000000  0.4866770000000 1.0
C      1  0.6021120000000  0.5010960000000  0.4493760000000 1.0
C      1  0.5931140000000  0.4789590000000  0.4944870000000 1.0
C      1  0.4107340000000  0.4822890000000  0.5316570000000 1.0
C      1  0.4048560000000  0.5263950000000  0.5305230000000 1.0
C      1  0.4053450000000  0.5331920000000  0.4870650000000 1.0
C      1  0.4252970000000  0.4960460000000  0.4736280000000 1.0
C      1  0.4164480000000  0.4722140000000  0.4892230000000 1.0
C      1  0.5120780000000  0.4695410000000  0.4109800000000 1.0
C      1  0.5142930000000  0.4007840000000  0.5042620000000 1.0
C      1  0.5114750000000  0.4715050000000  0.5929530000000 1.0
C      1  0.5121310000000  0.5797980000000  0.5550380000000 1.0
C      1  0.5127810000000  0.5739660000000  0.4428400000000 1.0
C      1  0.4835090000000  0.4686910000000  0.4126710000000 1.0
C      1  0.4845800000000  0.4031530000000  0.5022740000000 1.0
C      1  0.4820610000000  0.4714340000000  0.5933250000000 1.0
C      1  0.4826060000000  0.5804620000000  0.5582260000000 1.0
C      1  0.4840200000000  0.5772800000000  0.4450980000000 1.0
C      1  0.5247530000000  0.4943640000000  0.4047890000000 1.0
C      1  0.5288590000000  0.4045950000000  0.4795510000000 1.0
C      1  0.5241950000000  0.4492120000000  0.5792810000000 1.0
C      1  0.5254040000000  0.5590160000000  0.5701120000000 1.0
C      1  0.5281130000000  0.5852000000000  0.4640470000000 1.0
C      1  0.4677430000000  0.4891690000000  0.3999120000000 1.0
C      1  0.4736630000000  0.4115020000000  0.4767840000000 1.0
C      1  0.4702190000000  0.4510050000000  0.5773030000000 1.0
C      1  0.4711910000000  0.5573980000000  0.5712980000000 1.0
C      1  0.4739350000000  0.5853880000000  0.4709520000000 1.0
C      1  0.5151980000000  0.4005450000000  0.4545880000000 1.0
C      1  0.5107620000000  0.4242740000000  0.5806780000000 1.0
C      1  0.5137520000000  0.5514580000000  0.5945400000000 1.0
C      1  0.5171910000000  0.6075930000000  0.4761640000000 1.0
C      1  0.5097730000000  0.5140410000000  0.3903970000000 1.0
C      1  0.4868360000000  0.3999760000000  0.4542910000000 1.0
C      1  0.4824550000000  0.4252330000000  0.5790740000000 1.0
C      1  0.4854590000000  0.5478060000000  0.5950430000000 1.0
C      1  0.4911060000000  0.6040900000000  0.4862450000000 1.0
C      1  0.4813550000000  0.5128550000000  0.3905280000000 1.0
C      1  0.4800340000000  0.4856710000000  0.5515320000000 1.0
C      1  0.4765260000000  0.5479840000000  0.5287980000000 1.0
C      1  0.4804030000000  0.5287060000000  0.4528040000000 1.0
C      1  0.4878040000000  0.4769550000000  0.4558020000000 1.0
C      1  0.4857980000000  0.4475640000000  0.5000860000000 1.0
C      1  0.5074350000000  0.5004390000000  0.5561270000000 1.0
C      1  0.5052310000000  0.5552570000000  0.5185390000000 1.0
C      1  0.5098490000000  0.5263760000000  0.4510530000000 1.0
C      1  0.5167060000000  0.4714710000000  0.4581730000000 1.0
C      1  0.5170310000000  0.4448390000000  0.5029410000000 1.0
C      1  0.5517630000000  0.4970190000000  0.4148470000000 1.0
C      1  0.5580770000000  0.4099720000000  0.4821110000000 1.0
C      1  0.5527420000000  0.4512980000000  0.5730410000000 1.0
C      1  0.5521330000000  0.5505400000000  0.5635550000000 1.0
C      1  0.5550250000000  0.5753750000000  0.4681360000000 1.0
C      1  0.4400630000000  0.4900550000000  0.4077230000000 1.0
C      1  0.4443680000000  0.4157450000000  0.4772530000000 1.0
C      1  0.4413800000000  0.4526790000000  0.5741320000000 1.0
C      1  0.4419190000000  0.5564770000000  0.5714190000000 1.0
C      1  0.4447600000000  0.5846690000000  0.4721380000000 1.0
C      1  0.4360950000000  0.4898220000000  0.5450840000000 1.0
C      1  0.4309050000000  0.5418740000000  0.5286550000000 1.0
C      1  0.4345000000000  0.5388060000000  0.4777930000000 1.0
C      1  0.4451490000000  0.4824820000000  0.4562150000000 1.0
C      1  0.4427490000000  0.4581890000000  0.4999540000000 1.0
C      1  0.5633550000000  0.4851540000000  0.5414990000000 1.0
C      1  0.5694610000000  0.5307410000000  0.5244980000000 1.0
C      1  0.5662990000000  0.5277640000000  0.4739750000000 1.0
C      1  0.5793750000000  0.4819730000000  0.4522550000000 1.0
C      1  0.5645540000000  0.4538300000000  0.5033350000000 1.0
C      1  0.4934050000000  0.5184770000000  0.6007600000000 1.0
C      1  0.4947830000000  0.5441450000000  0.4081660000000 1.0
C      1  0.4982830000000  0.4217370000000  0.5443520000000 1.0
C      1  0.4932100000000  0.6008070000000  0.5154270000000 1.0
C      1  0.5002700000000  0.4301110000000  0.4351670000000 1.0
C      1  0.4027690000000  0.5026860000000  0.5110420000000 1.0
C      1  0.6063920000000  0.5061480000000  0.4797660000000 1.0
END
