TITL C-3577088-510-302 -2.70093679440734e-06 125000 -899.659957600953 0 0 144 (C1) n - 1
REM
REM in /home/bkarasulu/work/CARBON/AIRSS/Generating-Clusters/EDIP-Nigel-Params/with-SteepDescent/Higher-Symm/SD-CG/HFTN-CG
REM
REM
REM
REM
REM
REM ./C.cell (12c818d87b63d06a65506943cc24bca4)
REM
REM compiler GCC version 9.2.1 20190827 (Red Hat 9.2.1-1)
REM options -cpp -mtune=generic -march=x86-64 -g -O0 -fpre-include=/usr/include/finclude/math-vector-fortran.h
REM seed -2093141497 -1457841152 -1808190585 -704135202 -1180489513 -401724811 -489496249 1896349824 -1900502019 -1634407127 -516955054 1954570215 -975332306 -1044184154 1489033204 -950447716 -1922932778 1329325495 -62550941 -261780660 1892923203 -1454284974 -897947170 2091675400 -1643715019 -1622505257 84867954 -380941947 -20885128 -530180009 -990419085 -912558652 1006464159
REM
CELL 1.54180   50.00000   50.00000   50.00000   90.00000   90.00000   90.00000
LATT -1
SFAC C  
C      1  0.5812890000000  0.4845310000000  0.5061070000000 1.0
C      1  0.4189310000000  0.5151590000000  0.4935060000000 1.0
C      1  0.4605920000000  0.4524400000000  0.4932150000000 1.0
C      1  0.5377950000000  0.5477100000000  0.5060450000000 1.0
C      1  0.5312480000000  0.4672240000000  0.4311440000000 1.0
C      1  0.4699380000000  0.5333760000000  0.5689260000000 1.0
C      1  0.4664450000000  0.4365240000000  0.4491000000000 1.0
C      1  0.5304370000000  0.5633780000000  0.5492640000000 1.0
C      1  0.5106580000000  0.4837110000000  0.4783930000000 1.0
C      1  0.4901280000000  0.5154560000000  0.5209580000000 1.0
C      1  0.4585630000000  0.5494980000000  0.4564100000000 1.0
C      1  0.5420720000000  0.4499950000000  0.5436780000000 1.0
C      1  0.4208330000000  0.5336360000000  0.4718400000000 1.0
C      1  0.5798280000000  0.4663790000000  0.5283130000000 1.0
C      1  0.4212670000000  0.4483180000000  0.5224070000000 1.0
C      1  0.5779640000000  0.5516910000000  0.4778130000000 1.0
C      1  0.5775640000000  0.5023720000000  0.4489600000000 1.0
C      1  0.4225710000000  0.4952690000000  0.5486130000000 1.0
C      1  0.5684030000000  0.4343220000000  0.5202090000000 1.0
C      1  0.4347960000000  0.5651250000000  0.4823960000000 1.0
C      1  0.4615490000000  0.5089550000000  0.5844950000000 1.0
C      1  0.5392130000000  0.4893690000000  0.4117050000000 1.0
C      1  0.5069970000000  0.5549240000000  0.5034120000000 1.0
C      1  0.4903940000000  0.4438080000000  0.4958670000000 1.0
C      1  0.5696700000000  0.5267850000000  0.4199520000000 1.0
C      1  0.4297290000000  0.4728440000000  0.5793100000000 1.0
C      1  0.4857810000000  0.4825100000000  0.5583430000000 1.0
C      1  0.5145370000000  0.5181070000000  0.4402670000000 1.0
C      1  0.4697940000000  0.5764880000000  0.5882400000000 1.0
C      1  0.5300520000000  0.4223010000000  0.4149680000000 1.0
C      1  0.5718800000000  0.4816390000000  0.5529540000000 1.0
C      1  0.4282300000000  0.5185630000000  0.4469330000000 1.0
C      1  0.5589250000000  0.4318270000000  0.4917950000000 1.0
C      1  0.4461170000000  0.5672500000000  0.5106870000000 1.0
C      1  0.4896350000000  0.5368170000000  0.4069720000000 1.0
C      1  0.5108690000000  0.4631920000000  0.5932580000000 1.0
C      1  0.5464010000000  0.4422150000000  0.4254420000000 1.0
C      1  0.4534600000000  0.5567220000000  0.5773290000000 1.0
C      1  0.4357000000000  0.5646250000000  0.5579390000000 1.0
C      1  0.5653880000000  0.4351560000000  0.4441590000000 1.0
C      1  0.6092140000000  0.5279780000000  0.5378780000000 1.0
C      1  0.3903190000000  0.4734430000000  0.4621450000000 1.0
C      1  0.5998860000000  0.4896700000000  0.4634690000000 1.0
C      1  0.4008260000000  0.5107830000000  0.5366030000000 1.0
C      1  0.4888900000000  0.5986480000000  0.5244640000000 1.0
C      1  0.5120810000000  0.4078350000000  0.4767340000000 1.0
C      1  0.5169070000000  0.5123320000000  0.4856140000000 1.0
C      1  0.4830450000000  0.4869910000000  0.5140070000000 1.0
C      1  0.5040790000000  0.4686420000000  0.5050650000000 1.0
C      1  0.4956370000000  0.5296890000000  0.4940240000000 1.0
C      1  0.4918260000000  0.4215970000000  0.4460910000000 1.0
C      1  0.5037250000000  0.5758520000000  0.5521650000000 1.0
C      1  0.4885990000000  0.3992440000000  0.4948650000000 1.0
C      1  0.5119580000000  0.6030090000000  0.5056440000000 1.0
C      1  0.5529710000000  0.4652460000000  0.5672890000000 1.0
C      1  0.4473750000000  0.5347330000000  0.4325290000000 1.0
C      1  0.4401730000000  0.4030420000000  0.5076840000000 1.0
C      1  0.5597860000000  0.5974080000000  0.4925740000000 1.0
C      1  0.4592860000000  0.6061090000000  0.4864450000000 1.0
C      1  0.5414860000000  0.3936830000000  0.5146560000000 1.0
C      1  0.4460470000000  0.4237220000000  0.5498910000000 1.0
C      1  0.5536100000000  0.5768420000000  0.4504910000000 1.0
C      1  0.5043960000000  0.5136000000000  0.5961190000000 1.0
C      1  0.4956560000000  0.4852970000000  0.4036960000000 1.0
C      1  0.5350480000000  0.5215730000000  0.4637050000000 1.0
C      1  0.4650170000000  0.4786080000000  0.5356990000000 1.0
C      1  0.4676230000000  0.4945500000000  0.4082000000000 1.0
C      1  0.5327140000000  0.5052910000000  0.5912560000000 1.0
C      1  0.5779460000000  0.5635990000000  0.5330290000000 1.0
C      1  0.4199020000000  0.4363810000000  0.4671650000000 1.0
C      1  0.4886010000000  0.5634640000000  0.4167580000000 1.0
C      1  0.5114010000000  0.4363500000000  0.5840320000000 1.0
C      1  0.5211380000000  0.4659050000000  0.5299620000000 1.0
C      1  0.4793070000000  0.5330050000000  0.4690760000000 1.0
C      1  0.5138530000000  0.4859020000000  0.5501300000000 1.0
C      1  0.4866510000000  0.5135500000000  0.4489080000000 1.0
C      1  0.4109000000000  0.4718810000000  0.4425250000000 1.0
C      1  0.5887190000000  0.5285980000000  0.5576250000000 1.0
C      1  0.5534940000000  0.4094080000000  0.5345040000000 1.0
C      1  0.4472310000000  0.5899580000000  0.4671000000000 1.0
C      1  0.4491430000000  0.4537650000000  0.5846520000000 1.0
C      1  0.5504460000000  0.5463210000000  0.4157500000000 1.0
C      1  0.5981480000000  0.5457660000000  0.5183260000000 1.0
C      1  0.4003730000000  0.4550680000000  0.4816990000000 1.0
C      1  0.4514030000000  0.4515620000000  0.5239520000000 1.0
C      1  0.5479230000000  0.5484730000000  0.4758270000000 1.0
C      1  0.4855810000000  0.4142570000000  0.5209430000000 1.0
C      1  0.5138670000000  0.5860810000000  0.4804430000000 1.0
C      1  0.5016050000000  0.4613900000000  0.4225300000000 1.0
C      1  0.4987810000000  0.5383000000000  0.5785340000000 1.0
C      1  0.4681370000000  0.5778620000000  0.4466570000000 1.0
C      1  0.5319710000000  0.4221400000000  0.5542210000000 1.0
C      1  0.5052880000000  0.4360840000000  0.4704430000000 1.0
C      1  0.4864850000000  0.5606490000000  0.5279010000000 1.0
C      1  0.4774260000000  0.4642880000000  0.4416140000000 1.0
C      1  0.5220520000000  0.5354060000000  0.5581550000000 1.0
C      1  0.4902830000000  0.4290440000000  0.5668120000000 1.0
C      1  0.5097020000000  0.5710250000000  0.4339330000000 1.0
C      1  0.5658480000000  0.4998220000000  0.4124350000000 1.0
C      1  0.4344010000000  0.5001120000000  0.5847100000000 1.0
C      1  0.5911550000000  0.5319580000000  0.4940030000000 1.0
C      1  0.4078190000000  0.4681530000000  0.5063050000000 1.0
C      1  0.5798400000000  0.5771910000000  0.4908290000000 1.0
C      1  0.4195710000000  0.4227190000000  0.5094830000000 1.0
C      1  0.4588090000000  0.4033070000000  0.4846120000000 1.0
C      1  0.5409850000000  0.5975000000000  0.5154620000000 1.0
C      1  0.5039180000000  0.4309400000000  0.4197610000000 1.0
C      1  0.4957050000000  0.5689880000000  0.5809060000000 1.0
C      1  0.4850930000000  0.4897800000000  0.5882560000000 1.0
C      1  0.5154120000000  0.5090110000000  0.4105020000000 1.0
C      1  0.4580500000000  0.4083050000000  0.5295570000000 1.0
C      1  0.5414760000000  0.5918110000000  0.4712040000000 1.0
C      1  0.4713440000000  0.5197950000000  0.4229410000000 1.0
C      1  0.5290130000000  0.4800010000000  0.5765430000000 1.0
C      1  0.5450630000000  0.5233540000000  0.5722130000000 1.0
C      1  0.4549330000000  0.4769560000000  0.4273030000000 1.0
C      1  0.4168030000000  0.4440540000000  0.4396910000000 1.0
C      1  0.5814400000000  0.5561240000000  0.5605030000000 1.0
C      1  0.4279690000000  0.5586930000000  0.5322280000000 1.0
C      1  0.5754650000000  0.4407190000000  0.4692270000000 1.0
C      1  0.4357810000000  0.4881630000000  0.4487220000000 1.0
C      1  0.5642410000000  0.5120120000000  0.5509680000000 1.0
C      1  0.4616090000000  0.4326920000000  0.5713250000000 1.0
C      1  0.5382470000000  0.5675960000000  0.4290630000000 1.0
C      1  0.5029220000000  0.4141830000000  0.5453980000000 1.0
C      1  0.4971430000000  0.5860850000000  0.4554000000000 1.0
C      1  0.5479810000000  0.5688970000000  0.5255980000000 1.0
C      1  0.4501130000000  0.4313690000000  0.4738630000000 1.0
C      1  0.4832650000000  0.4858570000000  0.4629740000000 1.0
C      1  0.5172380000000  0.5136260000000  0.5364230000000 1.0
C      1  0.4549890000000  0.4824900000000  0.4800130000000 1.0
C      1  0.5451880000000  0.5175450000000  0.5192890000000 1.0
C      1  0.4694700000000  0.5329030000000  0.5377260000000 1.0
C      1  0.5344940000000  0.4746550000000  0.4604450000000 1.0
C      1  0.5568820000000  0.4971680000000  0.4979580000000 1.0
C      1  0.4435380000000  0.5028870000000  0.5012920000000 1.0
C      1  0.5539100000000  0.4973100000000  0.4667880000000 1.0
C      1  0.4463070000000  0.5023220000000  0.5320050000000 1.0
C      1  0.4100700000000  0.5369520000000  0.5301200000000 1.0
C      1  0.5930290000000  0.4628140000000  0.4701940000000 1.0
C      1  0.3944280000000  0.4934870000000  0.5140320000000 1.0
C      1  0.6054570000000  0.5072010000000  0.4862160000000 1.0
C      1  0.5401080000000  0.4084930000000  0.4908520000000 1.0
C      1  0.4619000000000  0.5928900000000  0.5111270000000 1.0
END
