TITL C-3578194-7807-627 -2.77670837673562e-06 125000 -962.136293911931 0 0 153 (C1) n - 1
REM
REM in /home/bkarasulu/work/CARBON/AIRSS/Generating-Clusters/EDIP-Nigel-Params/with-SteepDescent/Higher-Symm/SD-CG/HFTN-CG
REM
REM
REM
REM
REM
REM ./C.cell (12c818d87b63d06a65506943cc24bca4)
REM
REM compiler GCC version 9.2.1 20190827 (Red Hat 9.2.1-1)
REM options -cpp -mtune=generic -march=x86-64 -g -O0 -fpre-include=/usr/include/finclude/math-vector-fortran.h
REM seed -795000981 757527853 -1844281660 -169255788 -1249041251 -319286806 167892309 218685257 1159324306 51699987 1192118811 -151816012 -1135449319 1700998138 1722263223 -173609763 941884086 -819292195 -1624605404 -1430174520 -1884911902 437225535 668209363 412762824 238947254 -912539817 128581714 -2141590174 -682073629 1375998331 1774480444 1982900613 -1195265558
REM
CELL 1.54180   50.00000   50.00000   50.00000   90.00000   90.00000   90.00000
LATT -1
SFAC C  
C      1  0.4737750000000  0.5368610000000  0.5962120000000 1.0
C      1  0.4310730000000  0.5419000000000  0.4176790000000 1.0
C      1  0.5546550000000  0.4960360000000  0.4923260000000 1.0
C      1  0.5603140000000  0.4235860000000  0.5048090000000 1.0
C      1  0.5727690000000  0.5695040000000  0.4590450000000 1.0
C      1  0.5240400000000  0.3960520000000  0.4928700000000 1.0
C      1  0.5201110000000  0.5344730000000  0.4617990000000 1.0
C      1  0.4790230000000  0.5001010000000  0.4616550000000 1.0
C      1  0.5205840000000  0.5036430000000  0.5631860000000 1.0
C      1  0.5787140000000  0.5170800000000  0.4505130000000 1.0
C      1  0.4820970000000  0.6035670000000  0.4761750000000 1.0
C      1  0.5941310000000  0.4772040000000  0.4904800000000 1.0
C      1  0.5465600000000  0.5590770000000  0.5858290000000 1.0
C      1  0.5536380000000  0.5711230000000  0.4820260000000 1.0
C      1  0.4313080000000  0.5422430000000  0.5571950000000 1.0
C      1  0.4163400000000  0.5008710000000  0.5402730000000 1.0
C      1  0.5009760000000  0.4603120000000  0.4527090000000 1.0
C      1  0.5314920000000  0.4644940000000  0.4602320000000 1.0
C      1  0.5518840000000  0.4290520000000  0.4433930000000 1.0
C      1  0.4440190000000  0.4336780000000  0.5230490000000 1.0
C      1  0.5246130000000  0.4147120000000  0.4445080000000 1.0
C      1  0.5423520000000  0.5419870000000  0.4810840000000 1.0
C      1  0.4266200000000  0.5551930000000  0.5083570000000 1.0
C      1  0.5087660000000  0.5094910000000  0.4734680000000 1.0
C      1  0.4597800000000  0.5114250000000  0.3988080000000 1.0
C      1  0.4137520000000  0.5496840000000  0.4829290000000 1.0
C      1  0.4496290000000  0.5664630000000  0.5606460000000 1.0
C      1  0.5869120000000  0.5168180000000  0.5358260000000 1.0
C      1  0.5416020000000  0.4467230000000  0.4980810000000 1.0
C      1  0.5510770000000  0.4473840000000  0.4202220000000 1.0
C      1  0.5862990000000  0.4885180000000  0.5458080000000 1.0
C      1  0.5931150000000  0.5500920000000  0.4983180000000 1.0
C      1  0.5296290000000  0.5670800000000  0.4289520000000 1.0
C      1  0.5159500000000  0.5585880000000  0.5866380000000 1.0
C      1  0.5555480000000  0.5327250000000  0.5734550000000 1.0
C      1  0.5775900000000  0.4865840000000  0.4439020000000 1.0
C      1  0.5842310000000  0.4669640000000  0.4645160000000 1.0
C      1  0.5254300000000  0.5401080000000  0.5062480000000 1.0
C      1  0.5773720000000  0.5382780000000  0.5530170000000 1.0
C      1  0.4892790000000  0.4259190000000  0.4902240000000 1.0
C      1  0.5641510000000  0.4446340000000  0.4665530000000 1.0
C      1  0.4448200000000  0.5054090000000  0.5299240000000 1.0
C      1  0.4479910000000  0.5747250000000  0.5095770000000 1.0
C      1  0.4645910000000  0.5599040000000  0.5831860000000 1.0
C      1  0.4774920000000  0.5509450000000  0.4478470000000 1.0
C      1  0.4586500000000  0.5866690000000  0.4841260000000 1.0
C      1  0.4655020000000  0.5705510000000  0.5339260000000 1.0
C      1  0.4689830000000  0.4306210000000  0.4573750000000 1.0
C      1  0.5240680000000  0.6116050000000  0.5408580000000 1.0
C      1  0.5073030000000  0.6026550000000  0.4929770000000 1.0
C      1  0.4525730000000  0.5594970000000  0.4089800000000 1.0
C      1  0.4943790000000  0.4611480000000  0.5939840000000 1.0
C      1  0.5919760000000  0.5487360000000  0.4682770000000 1.0
C      1  0.4886040000000  0.5340470000000  0.4240100000000 1.0
C      1  0.4999120000000  0.4008230000000  0.5625710000000 1.0
C      1  0.4418540000000  0.4917740000000  0.5777460000000 1.0
C      1  0.5307160000000  0.5906530000000  0.4758230000000 1.0
C      1  0.4657040000000  0.5783250000000  0.4381200000000 1.0
C      1  0.5852460000000  0.4524210000000  0.5337050000000 1.0
C      1  0.5073560000000  0.5163500000000  0.5026170000000 1.0
C      1  0.4393940000000  0.5139610000000  0.4184230000000 1.0
C      1  0.4991040000000  0.4924630000000  0.5460840000000 1.0
C      1  0.4807200000000  0.4218570000000  0.5591250000000 1.0
C      1  0.5014620000000  0.5566420000000  0.4651960000000 1.0
C      1  0.5589470000000  0.5604320000000  0.4341070000000 1.0
C      1  0.4914650000000  0.4746520000000  0.4246730000000 1.0
C      1  0.4530990000000  0.5116720000000  0.4755580000000 1.0
C      1  0.5294570000000  0.4594800000000  0.5218440000000 1.0
C      1  0.4136740000000  0.5459940000000  0.5326740000000 1.0
C      1  0.4549400000000  0.5388960000000  0.4635140000000 1.0
C      1  0.4803230000000  0.5029720000000  0.4309020000000 1.0
C      1  0.4815100000000  0.5250930000000  0.5112930000000 1.0
C      1  0.5250420000000  0.4625210000000  0.5949610000000 1.0
C      1  0.5629000000000  0.5313960000000  0.4293490000000 1.0
C      1  0.4926260000000  0.4443160000000  0.5422900000000 1.0
C      1  0.5171000000000  0.4378500000000  0.4802470000000 1.0
C      1  0.5375690000000  0.5199530000000  0.4211040000000 1.0
C      1  0.5731260000000  0.4264720000000  0.5306670000000 1.0
C      1  0.5757620000000  0.4708210000000  0.5129180000000 1.0
C      1  0.5525730000000  0.5773790000000  0.5621150000000 1.0
C      1  0.5032290000000  0.5357780000000  0.6009250000000 1.0
C      1  0.5065420000000  0.5651990000000  0.5027530000000 1.0
C      1  0.4782970000000  0.4717050000000  0.4711780000000 1.0
C      1  0.5385710000000  0.4172480000000  0.5427020000000 1.0
C      1  0.4788670000000  0.4367390000000  0.5851220000000 1.0
C      1  0.5311880000000  0.5303220000000  0.5545510000000 1.0
C      1  0.5186120000000  0.3964440000000  0.5423040000000 1.0
C      1  0.4194130000000  0.5074500000000  0.5690850000000 1.0
C      1  0.5676810000000  0.5629420000000  0.5403580000000 1.0
C      1  0.4030190000000  0.5224120000000  0.4780130000000 1.0
C      1  0.4177750000000  0.4752070000000  0.4837930000000 1.0
C      1  0.4617710000000  0.4127720000000  0.5360900000000 1.0
C      1  0.5420520000000  0.5292060000000  0.5276440000000 1.0
C      1  0.5444160000000  0.4825090000000  0.5564860000000 1.0
C      1  0.5177620000000  0.5410900000000  0.4180300000000 1.0
C      1  0.5743600000000  0.5692760000000  0.5116170000000 1.0
C      1  0.5600810000000  0.5058270000000  0.5904860000000 1.0
C      1  0.4438770000000  0.5820180000000  0.4593270000000 1.0
C      1  0.4027230000000  0.4531110000000  0.4725350000000 1.0
C      1  0.4335130000000  0.4559290000000  0.5408890000000 1.0
C      1  0.4241500000000  0.5003780000000  0.4678910000000 1.0
C      1  0.4888210000000  0.5969920000000  0.4474110000000 1.0
C      1  0.4095820000000  0.4721810000000  0.5339660000000 1.0
C      1  0.4774710000000  0.3995220000000  0.5149700000000 1.0
C      1  0.3999220000000  0.4710940000000  0.5067200000000 1.0
C      1  0.4522860000000  0.4719300000000  0.5578230000000 1.0
C      1  0.5514860000000  0.3981900000000  0.4970280000000 1.0
C      1  0.4562390000000  0.5235120000000  0.5510250000000 1.0
C      1  0.4952800000000  0.5789280000000  0.5273000000000 1.0
C      1  0.4653740000000  0.5087930000000  0.5862350000000 1.0
C      1  0.5355810000000  0.4573570000000  0.5678250000000 1.0
C      1  0.4608730000000  0.4034330000000  0.4651540000000 1.0
C      1  0.4309210000000  0.4928780000000  0.4377410000000 1.0
C      1  0.5061950000000  0.3946040000000  0.5159820000000 1.0
C      1  0.5451300000000  0.5005470000000  0.5221040000000 1.0
C      1  0.5698550000000  0.4853780000000  0.5710770000000 1.0
C      1  0.4831680000000  0.4691400000000  0.5572830000000 1.0
C      1  0.5026290000000  0.6073130000000  0.5238400000000 1.0
C      1  0.5659020000000  0.5218230000000  0.4799470000000 1.0
C      1  0.4425820000000  0.4651000000000  0.4347380000000 1.0
C      1  0.5127860000000  0.3966800000000  0.4662800000000 1.0
C      1  0.5113900000000  0.5068480000000  0.5925730000000 1.0
C      1  0.5241260000000  0.4461230000000  0.4068560000000 1.0
C      1  0.5269460000000  0.5877640000000  0.5551790000000 1.0
C      1  0.5100950000000  0.5531890000000  0.5567420000000 1.0
C      1  0.4408350000000  0.4007920000000  0.4856200000000 1.0
C      1  0.4715960000000  0.5387730000000  0.3998320000000 1.0
C      1  0.5141620000000  0.4746550000000  0.4046600000000 1.0
C      1  0.4794200000000  0.4463620000000  0.5125870000000 1.0
C      1  0.5310430000000  0.4891260000000  0.4755620000000 1.0
C      1  0.4468670000000  0.4505400000000  0.4609000000000 1.0
C      1  0.4853770000000  0.3903670000000  0.4673710000000 1.0
C      1  0.4785940000000  0.5397830000000  0.5375920000000 1.0
C      1  0.5351610000000  0.4927920000000  0.6043370000000 1.0
C      1  0.5074620000000  0.4275770000000  0.4238070000000 1.0
C      1  0.4280760000000  0.4223390000000  0.4998000000000 1.0
C      1  0.4305110000000  0.5556810000000  0.4600450000000 1.0
C      1  0.4870180000000  0.4905800000000  0.5956800000000 1.0
C      1  0.3977370000000  0.5213890000000  0.5284640000000 1.0
C      1  0.4780510000000  0.4321710000000  0.4281360000000 1.0
C      1  0.3897330000000  0.5171230000000  0.5019580000000 1.0
C      1  0.5567260000000  0.4756350000000  0.4259620000000 1.0
C      1  0.4236610000000  0.4331570000000  0.4708620000000 1.0
C      1  0.4782310000000  0.4744330000000  0.5010250000000 1.0
C      1  0.4668430000000  0.4579980000000  0.4172420000000 1.0
C      1  0.5374900000000  0.4921460000000  0.4123940000000 1.0
C      1  0.5978640000000  0.5237020000000  0.5098960000000 1.0
C      1  0.5143020000000  0.5803040000000  0.4524520000000 1.0
C      1  0.5155580000000  0.4873970000000  0.5209710000000 1.0
C      1  0.5237900000000  0.4429630000000  0.5448340000000 1.0
C      1  0.4629790000000  0.5028530000000  0.5056370000000 1.0
C      1  0.6049130000000  0.5030320000000  0.4923760000000 1.0
C      1  0.4137460000000  0.5515400000000  0.4367250000000 1.0
END
