TITL C-3578195-8548-514 2.35653387206768e-06 125000 -452.885790384187 0 0 74 (C1) n - 1
REM
REM in /home/bkarasulu/work/CARBON/AIRSS/Generating-Clusters/EDIP-Nigel-Params/with-SteepDescent/Higher-Symm/SD-CG/HFTN-CG
REM
REM
REM
REM
REM
REM ./C.cell (12c818d87b63d06a65506943cc24bca4)
REM
REM compiler GCC version 9.2.1 20190827 (Red Hat 9.2.1-1)
REM options -cpp -mtune=generic -march=x86-64 -g -O0 -fpre-include=/usr/include/finclude/math-vector-fortran.h
REM seed 404474971 315106962 792910468 795967674 1915259941 1010770925 -1774468754 -637708217 1024654763 1050294068 -699823346 840282783 -976121815 -1352797518 -1875877176 2083884059 -518689533 67171896 1460512248 -1752310577 1867316587 1048927394 -1871722591 978438154 1588964841 216841042 -1470115783 1454530372 -150095680 -1755786822 2106240598 -573400657 -378951314
REM
CELL 1.54180   50.00000   50.00000   50.00000   90.00000   90.00000   90.00000
LATT -1
SFAC C  
C      1  0.4526420000000  0.4561320000000  0.5048590000000 1.0
C      1  0.4441830000000  0.4948540000000  0.5479540000000 1.0
C      1  0.4462490000000  0.5456250000000  0.5194160000000 1.0
C      1  0.4528700000000  0.5318700000000  0.4650290000000 1.0
C      1  0.4514480000000  0.4796160000000  0.4556550000000 1.0
C      1  0.4538580000000  0.5466140000000  0.5477180000000 1.0
C      1  0.4557900000000  0.5608430000000  0.4730940000000 1.0
C      1  0.4496190000000  0.4938410000000  0.4290940000000 1.0
C      1  0.4555760000000  0.4359150000000  0.4839040000000 1.0
C      1  0.4547960000000  0.4673850000000  0.5538760000000 1.0
C      1  0.5415720000000  0.4366550000000  0.5144170000000 1.0
C      1  0.5365030000000  0.4907190000000  0.5760040000000 1.0
C      1  0.5401070000000  0.5558860000000  0.5259710000000 1.0
C      1  0.5378240000000  0.5431840000000  0.4464640000000 1.0
C      1  0.5320520000000  0.4646900000000  0.4447520000000 1.0
C      1  0.5128550000000  0.4269860000000  0.5193150000000 1.0
C      1  0.5102740000000  0.4917790000000  0.5891980000000 1.0
C      1  0.5160500000000  0.5721200000000  0.5267890000000 1.0
C      1  0.5127040000000  0.5532310000000  0.4355170000000 1.0
C      1  0.5101350000000  0.4555880000000  0.4260360000000 1.0
C      1  0.4787360000000  0.5203360000000  0.4776960000000 1.0
C      1  0.4801580000000  0.4898570000000  0.4639890000000 1.0
C      1  0.4941120000000  0.4712890000000  0.5006310000000 1.0
C      1  0.4824920000000  0.4994030000000  0.5406750000000 1.0
C      1  0.4981040000000  0.5165220000000  0.5172410000000 1.0
C      1  0.5603010000000  0.4472660000000  0.5328150000000 1.0
C      1  0.5580680000000  0.5086040000000  0.5723670000000 1.0
C      1  0.5599930000000  0.5548400000000  0.5064750000000 1.0
C      1  0.5566290000000  0.5294000000000  0.4311940000000 1.0
C      1  0.5621240000000  0.4720680000000  0.4578160000000 1.0
C      1  0.5337410000000  0.5312090000000  0.5387860000000 1.0
C      1  0.5319200000000  0.5331940000000  0.4743170000000 1.0
C      1  0.5260580000000  0.4947090000000  0.4463570000000 1.0
C      1  0.5354250000000  0.4574960000000  0.4953090000000 1.0
C      1  0.5314950000000  0.4772560000000  0.5514840000000 1.0
C      1  0.5558970000000  0.5308480000000  0.4927030000000 1.0
C      1  0.5536040000000  0.5027320000000  0.4379200000000 1.0
C      1  0.5589490000000  0.4752140000000  0.4876090000000 1.0
C      1  0.5530990000000  0.4755320000000  0.5314990000000 1.0
C      1  0.5565710000000  0.5123540000000  0.5432010000000 1.0
C      1  0.4674110000000  0.4646850000000  0.5789900000000 1.0
C      1  0.4728530000000  0.5665170000000  0.5528360000000 1.0
C      1  0.4729480000000  0.5757970000000  0.4568080000000 1.0
C      1  0.4657200000000  0.4804850000000  0.4099890000000 1.0
C      1  0.4746450000000  0.4164480000000  0.4903920000000 1.0
C      1  0.5039940000000  0.5015610000000  0.4287110000000 1.0
C      1  0.5121320000000  0.4443280000000  0.4783180000000 1.0
C      1  0.5066790000000  0.4642880000000  0.5507030000000 1.0
C      1  0.5101020000000  0.5359330000000  0.5554170000000 1.0
C      1  0.5093720000000  0.5515150000000  0.4816980000000 1.0
C      1  0.4579710000000  0.5208260000000  0.5621670000000 1.0
C      1  0.4645610000000  0.5606890000000  0.5018150000000 1.0
C      1  0.4577540000000  0.5224580000000  0.4348580000000 1.0
C      1  0.4607760000000  0.4482580000000  0.4576510000000 1.0
C      1  0.4642730000000  0.4497670000000  0.5312920000000 1.0
C      1  0.4339020000000  0.5218590000000  0.5077040000000 1.0
C      1  0.4305840000000  0.5180260000000  0.4791940000000 1.0
C      1  0.4298740000000  0.4886340000000  0.4752550000000 1.0
C      1  0.4309680000000  0.4757340000000  0.5023070000000 1.0
C      1  0.4305280000000  0.4975430000000  0.5220750000000 1.0
C      1  0.4977210000000  0.5629750000000  0.4579580000000 1.0
C      1  0.4922770000000  0.4776170000000  0.4189340000000 1.0
C      1  0.5021980000000  0.4196840000000  0.4924560000000 1.0
C      1  0.4936390000000  0.4727170000000  0.5744760000000 1.0
C      1  0.4999190000000  0.5617410000000  0.5482790000000 1.0
C      1  0.4908300000000  0.4587310000000  0.4589690000000 1.0
C      1  0.4948130000000  0.4519350000000  0.5266750000000 1.0
C      1  0.4911860000000  0.5158100000000  0.5667900000000 1.0
C      1  0.4938750000000  0.5483410000000  0.5065810000000 1.0
C      1  0.4884700000000  0.5240430000000  0.4397850000000 1.0
C      1  0.4695890000000  0.4965300000000  0.5016950000000 1.0
C      1  0.5201780000000  0.5064890000000  0.4732210000000 1.0
C      1  0.5621060000000  0.5033070000000  0.5058340000000 1.0
C      1  0.5131400000000  0.4955610000000  0.4996770000000 1.0
END
