TITL C-3577079-311-320 7.43171473299415e-07 125000 -333.304911750931 0 0 54 (C1) n - 1
REM
REM in /home/bkarasulu/work/CARBON/AIRSS/Generating-Clusters/EDIP-Nigel-Params/with-SteepDescent/Higher-Symm/SD-CG/HFTN-CG
REM
REM
REM
REM
REM
REM ./C.cell (12c818d87b63d06a65506943cc24bca4)
REM
REM compiler GCC version 9.2.1 20190827 (Red Hat 9.2.1-1)
REM options -cpp -mtune=generic -march=x86-64 -g -O0 -fpre-include=/usr/include/finclude/math-vector-fortran.h
REM seed 1727927220 -1745798042 -2068954428 -1592329896 -169393902 692254267 1202558721 -653647897 -327437890 956950103 -1732472533 -2002054631 381618556 944285874 -285485930 1249753629 1002117123 487205050 79704164 -680277183 -593846041 114640951 -6507558 1191220712 -1052856310 -1900650406 -953985545 -749785863 902386276 -1987277778 -1077136665 -312968855 1761551837
REM
CELL 1.54180   50.00000   50.00000   50.00000   90.00000   90.00000   90.00000
LATT -1
SFAC C  
C      1  0.4529770000000  0.5293140000000  0.4928580000000 1.0
C      1  0.4817080000000  0.5521130000000  0.4902270000000 1.0
C      1  0.5109080000000  0.5448840000000  0.4917610000000 1.0
C      1  0.5511650000000  0.5131470000000  0.4912550000000 1.0
C      1  0.5621890000000  0.4850210000000  0.4904340000000 1.0
C      1  0.5407860000000  0.4636870000000  0.4920150000000 1.0
C      1  0.4912290000000  0.4530140000000  0.4924360000000 1.0
C      1  0.4621810000000  0.4608390000000  0.4902860000000 1.0
C      1  0.4482290000000  0.4968870000000  0.4952710000000 1.0
C      1  0.4496790000000  0.4487430000000  0.5161460000000 1.0
C      1  0.4279610000000  0.4930860000000  0.5174460000000 1.0
C      1  0.4377300000000  0.5409240000000  0.5168760000000 1.0
C      1  0.4774300000000  0.5701740000000  0.5150150000000 1.0
C      1  0.5247000000000  0.5609660000000  0.5122620000000 1.0
C      1  0.5630660000000  0.5287310000000  0.5133830000000 1.0
C      1  0.5766030000000  0.4826000000000  0.5187470000000 1.0
C      1  0.5446190000000  0.4463020000000  0.5156570000000 1.0
C      1  0.4958000000000  0.4344610000000  0.5149300000000 1.0
C      1  0.4964120000000  0.4621290000000  0.4443170000000 1.0
C      1  0.4680860000000  0.4678410000000  0.4467880000000 1.0
C      1  0.4590320000000  0.4952560000000  0.4525170000000 1.0
C      1  0.4588220000000  0.5246900000000  0.4492300000000 1.0
C      1  0.4821230000000  0.5422690000000  0.4468470000000 1.0
C      1  0.5088800000000  0.5309490000000  0.4448140000000 1.0
C      1  0.5420560000000  0.5109950000000  0.4426450000000 1.0
C      1  0.5552530000000  0.4854080000000  0.4433000000000 1.0
C      1  0.5350290000000  0.4650370000000  0.4425690000000 1.0
C      1  0.4310850000000  0.5174700000000  0.5349500000000 1.0
C      1  0.4580630000000  0.5560010000000  0.5322750000000 1.0
C      1  0.5029020000000  0.5674870000000  0.5317670000000 1.0
C      1  0.5433570000000  0.5449140000000  0.5289610000000 1.0
C      1  0.5715710000000  0.5084940000000  0.5338390000000 1.0
C      1  0.5610490000000  0.4622940000000  0.5351060000000 1.0
C      1  0.5196450000000  0.4414310000000  0.5313760000000 1.0
C      1  0.4732580000000  0.4402990000000  0.5337970000000 1.0
C      1  0.4389900000000  0.4706690000000  0.5331710000000 1.0
C      1  0.4627380000000  0.4837640000000  0.5439280000000 1.0
C      1  0.4567010000000  0.5117500000000  0.5507360000000 1.0
C      1  0.4739600000000  0.5341860000000  0.5431660000000 1.0
C      1  0.5014960000000  0.5421810000000  0.5493610000000 1.0
C      1  0.5261280000000  0.5260340000000  0.5434770000000 1.0
C      1  0.5466720000000  0.5056810000000  0.5517180000000 1.0
C      1  0.5400060000000  0.4765700000000  0.5523650000000 1.0
C      1  0.5127520000000  0.4667540000000  0.5445660000000 1.0
C      1  0.4835250000000  0.4641130000000  0.5504800000000 1.0
C      1  0.5748380000000  0.4820550000000  0.4641900000000 1.0
C      1  0.5324070000000  0.4502070000000  0.4673150000000 1.0
C      1  0.5037230000000  0.4458260000000  0.4671430000000 1.0
C      1  0.4538270000000  0.4497630000000  0.4641420000000 1.0
C      1  0.4364490000000  0.4901540000000  0.4691980000000 1.0
C      1  0.4397980000000  0.5363310000000  0.4671290000000 1.0
C      1  0.4788530000000  0.5651500000000  0.4639780000000 1.0
C      1  0.5239130000000  0.5437850000000  0.4659380000000 1.0
C      1  0.5476410000000  0.5271700000000  0.4658930000000 1.0
END
