TITL C-3578198-8939-409 -8.17176576323513e-07 125000 -227.34132810465 0 0 38 (C1) n - 1
REM
REM in /home/bkarasulu/work/CARBON/AIRSS/Generating-Clusters/EDIP-Nigel-Params/with-SteepDescent/Higher-Symm/SD-CG/HFTN-CG
REM
REM
REM
REM
REM
REM ./C.cell (12c818d87b63d06a65506943cc24bca4)
REM
REM compiler GCC version 9.2.1 20190827 (Red Hat 9.2.1-1)
REM options -cpp -mtune=generic -march=x86-64 -g -O0 -fpre-include=/usr/include/finclude/math-vector-fortran.h
REM seed -42802874 -152178959 -699132170 -1225699938 1182145243 1686754455 -833601116 -702907019 1067219362 -1915535074 -96385066 229246494 1533298721 -1212665117 -771537467 148325450 -672744646 -2050209149 1252049322 1371504741 -1895212293 -950019462 76644019 1223470579 -519585135 570616767 -452263911 -1716046231 -902882988 494365100 -1640876872 -1012150576 -1627204806
REM
CELL 1.54180   50.00000   50.00000   50.00000   90.00000   90.00000   90.00000
LATT -1
SFAC C  
C      1  0.5200780000000  0.5400230000000  0.4985810000000 1.0
C      1  0.4787770000000  0.4591820000000  0.5023210000000 1.0
C      1  0.4966420000000  0.4471860000000  0.4474820000000 1.0
C      1  0.5030740000000  0.5528170000000  0.5529660000000 1.0
C      1  0.4423920000000  0.5167240000000  0.4630150000000 1.0
C      1  0.5580400000000  0.4826100000000  0.5370790000000 1.0
C      1  0.5227410000000  0.5253240000000  0.4756260000000 1.0
C      1  0.4771290000000  0.4743690000000  0.5250920000000 1.0
C      1  0.4722760000000  0.4620980000000  0.4541540000000 1.0
C      1  0.5275470000000  0.5380570000000  0.5464160000000 1.0
C      1  0.4916910000000  0.4990600000000  0.5163730000000 1.0
C      1  0.5088700000000  0.5000900000000  0.4834610000000 1.0
C      1  0.5143540000000  0.4689170000000  0.4340340000000 1.0
C      1  0.4854010000000  0.5306330000000  0.5655120000000 1.0
C      1  0.4697910000000  0.5220910000000  0.4616190000000 1.0
C      1  0.5305380000000  0.4779320000000  0.5386740000000 1.0
C      1  0.5375790000000  0.5354940000000  0.5205780000000 1.0
C      1  0.4622050000000  0.4656240000000  0.4799770000000 1.0
C      1  0.4671420000000  0.5174100000000  0.5212120000000 1.0
C      1  0.5340090000000  0.4825160000000  0.4774140000000 1.0
C      1  0.4873300000000  0.4967560000000  0.4611110000000 1.0
C      1  0.5131730000000  0.5032770000000  0.5387790000000 1.0
C      1  0.5623740000000  0.5235370000000  0.5166500000000 1.0
C      1  0.4363360000000  0.4755680000000  0.4834200000000 1.0
C      1  0.5675890000000  0.4964030000000  0.5147690000000 1.0
C      1  0.4323690000000  0.5030110000000  0.4851990000000 1.0
C      1  0.5582050000000  0.4859500000000  0.4909270000000 1.0
C      1  0.4424660000000  0.5129670000000  0.5089510000000 1.0
C      1  0.4943120000000  0.5521420000000  0.4995710000000 1.0
C      1  0.5058760000000  0.4514240000000  0.4996140000000 1.0
C      1  0.5320660000000  0.4598190000000  0.4582340000000 1.0
C      1  0.4683180000000  0.5396410000000  0.5408890000000 1.0
C      1  0.4978780000000  0.5055110000000  0.5634130000000 1.0
C      1  0.5023520000000  0.4942990000000  0.4363250000000 1.0
C      1  0.4774310000000  0.5439580000000  0.4780360000000 1.0
C      1  0.5222310000000  0.4564260000000  0.5222810000000 1.0
C      1  0.5140110000000  0.4394960000000  0.4737790000000 1.0
C      1  0.4854090000000  0.5616580000000  0.5264680000000 1.0
END
