TITL C-3578206-1180-534 -1.30496934143173e-07 125000 -192.58155881418 0 0 32 (D2) n - 1
REM
REM in /home/bkarasulu/work/CARBON/AIRSS/Generating-Clusters/EDIP-Nigel-Params/with-SteepDescent/Higher-Symm/SD-CG/HFTN-CG
REM
REM
REM
REM
REM
REM ./C.cell (12c818d87b63d06a65506943cc24bca4)
REM
REM compiler GCC version 9.2.1 20190827 (Red Hat 9.2.1-1)
REM options -cpp -mtune=generic -march=x86-64 -g -O0 -fpre-include=/usr/include/finclude/math-vector-fortran.h
REM seed -904157852 -1538790467 -1801964365 -83758672 1602977662 1653429114 -1741933805 1367080909 -1655021052 -613261685 -787673176 -900539107 1400441984 2009811469 1860246850 79786866 -652302782 -83938389 1495303952 1998950882 69669519 1260904219 1021606997 -1360833610 233491265 333961652 -223245518 1314733393 -98378598 464061792 -1790320685 -1761891661 1596736536
REM
CELL 1.54180   50.00000   50.00000   50.00000   90.00000   90.00000   90.00000
LATT -1
SFAC C  
C      1  0.4768130000000  0.5427760000000  0.5303110000000 1.0
C      1  0.5231870000000  0.5427760000000  0.4696890000000 1.0
C      1  0.4768130000000  0.4572240000000  0.4696890000000 1.0
C      1  0.5231870000000  0.4572240000000  0.5303110000000 1.0
C      1  0.5254400000000  0.5180030000000  0.5500810000000 1.0
C      1  0.4745600000000  0.5180030000000  0.4499190000000 1.0
C      1  0.5254400000000  0.4819970000000  0.4499190000000 1.0
C      1  0.4745600000000  0.4819970000000  0.5500810000000 1.0
C      1  0.5018710000000  0.4597620000000  0.4849020000000 1.0
C      1  0.4981290000000  0.4597620000000  0.5150980000000 1.0
C      1  0.5018710000000  0.5402380000000  0.5150980000000 1.0
C      1  0.4981290000000  0.5402380000000  0.4849020000000 1.0
C      1  0.5142740000000  0.4970160000000  0.5644430000000 1.0
C      1  0.4857260000000  0.4970160000000  0.4355570000000 1.0
C      1  0.5142740000000  0.5029840000000  0.4355570000000 1.0
C      1  0.4857260000000  0.5029840000000  0.5644430000000 1.0
C      1  0.5136330000000  0.5136370000000  0.5235530000000 1.0
C      1  0.4863670000000  0.5136370000000  0.4764470000000 1.0
C      1  0.5136330000000  0.4863630000000  0.4764470000000 1.0
C      1  0.4863670000000  0.4863630000000  0.5235530000000 1.0
C      1  0.5388580000000  0.5125950000000  0.5065240000000 1.0
C      1  0.4611420000000  0.5125950000000  0.4934760000000 1.0
C      1  0.5388580000000  0.4874050000000  0.4934760000000 1.0
C      1  0.4611420000000  0.4874050000000  0.5065240000000 1.0
C      1  0.4579420000000  0.5336420000000  0.5118860000000 1.0
C      1  0.5420580000000  0.5336420000000  0.4881140000000 1.0
C      1  0.4579420000000  0.4663580000000  0.4881140000000 1.0
C      1  0.5420580000000  0.4663580000000  0.5118860000000 1.0
C      1  0.4791360000000  0.5286510000000  0.5546140000000 1.0
C      1  0.5208640000000  0.5286510000000  0.4453860000000 1.0
C      1  0.4791360000000  0.4713490000000  0.4453860000000 1.0
C      1  0.5208640000000  0.4713490000000  0.5546140000000 1.0
END
