TITL C-3577078-809-755 -4.24369347570114e-07 125000 -1201.38392317454 0 0 189 (C1) n - 1
REM
REM in /home/bkarasulu/work/CARBON/AIRSS/Generating-Clusters/EDIP-Nigel-Params/with-SteepDescent/Higher-Symm/SD-CG/HFTN-CG
REM
REM
REM
REM
REM
REM ./C.cell (12c818d87b63d06a65506943cc24bca4)
REM
REM compiler GCC version 9.2.1 20190827 (Red Hat 9.2.1-1)
REM options -cpp -mtune=generic -march=x86-64 -g -O0 -fpre-include=/usr/include/finclude/math-vector-fortran.h
REM seed 1751516469 -242892223 1300043757 -1795486903 -1856468338 1187404642 -1842824689 1810483386 -1716549263 -1753830102 -1689839493 837157184 1430324187 455091728 827932426 131037606 -1820843854 -623385529 249202934 -1649628517 -1289085187 -939257061 1895256937 742747468 1588605325 -382738490 -1926371161 1952130847 -1809841204 -720671819 1360261762 1330740490 1288489545
REM
CELL 1.54180   50.00000   50.00000   50.00000   90.00000   90.00000   90.00000
LATT -1
SFAC C  
C      1  0.4856900000000  0.5590950000000  0.4116110000000 1.0
C      1  0.5146570000000  0.5587670000000  0.4118970000000 1.0
C      1  0.4719380000000  0.4780000000000  0.4516910000000 1.0
C      1  0.5293320000000  0.4777260000000  0.4517370000000 1.0
C      1  0.5889640000000  0.4815640000000  0.4319480000000 1.0
C      1  0.4099960000000  0.4818070000000  0.4321050000000 1.0
C      1  0.5151580000000  0.4445010000000  0.4036220000000 1.0
C      1  0.4843230000000  0.4438440000000  0.4033370000000 1.0
C      1  0.5281410000000  0.5692190000000  0.4356700000000 1.0
C      1  0.4716490000000  0.5705330000000  0.4346570000000 1.0
C      1  0.4384950000000  0.4634190000000  0.4860070000000 1.0
C      1  0.5613460000000  0.4631700000000  0.4865190000000 1.0
C      1  0.5803170000000  0.5267440000000  0.5524620000000 1.0
C      1  0.4184820000000  0.5269230000000  0.5528380000000 1.0
C      1  0.5946640000000  0.5307110000000  0.4257690000000 1.0
C      1  0.4053750000000  0.5308490000000  0.4257980000000 1.0
C      1  0.4319180000000  0.4650340000000  0.4204360000000 1.0
C      1  0.5692780000000  0.4635860000000  0.4180670000000 1.0
C      1  0.4841820000000  0.5692330000000  0.5471180000000 1.0
C      1  0.5121790000000  0.5704310000000  0.5342850000000 1.0
C      1  0.4190180000000  0.5827430000000  0.4978420000000 1.0
C      1  0.5810100000000  0.5829840000000  0.4977900000000 1.0
C      1  0.5582820000000  0.5774220000000  0.5561390000000 1.0
C      1  0.4392400000000  0.5804790000000  0.5561820000000 1.0
C      1  0.4363830000000  0.5629240000000  0.4622260000000 1.0
C      1  0.5631780000000  0.5625110000000  0.4624680000000 1.0
C      1  0.4727710000000  0.4338300000000  0.4294960000000 1.0
C      1  0.5272130000000  0.4338360000000  0.4293000000000 1.0
C      1  0.5521160000000  0.5503000000000  0.5181840000000 1.0
C      1  0.4474390000000  0.5500570000000  0.5201010000000 1.0
C      1  0.5644790000000  0.5272890000000  0.5012220000000 1.0
C      1  0.4348860000000  0.5271480000000  0.5023080000000 1.0
C      1  0.5569630000000  0.5645600000000  0.4349370000000 1.0
C      1  0.4429290000000  0.5648600000000  0.4346410000000 1.0
C      1  0.4837800000000  0.4752940000000  0.4010000000000 1.0
C      1  0.5144290000000  0.4758160000000  0.4019500000000 1.0
C      1  0.5677930000000  0.4763920000000  0.5147960000000 1.0
C      1  0.4317990000000  0.4763460000000  0.5147300000000 1.0
C      1  0.5386560000000  0.6011580000000  0.5161870000000 1.0
C      1  0.4624230000000  0.5989760000000  0.5147920000000 1.0
C      1  0.4848310000000  0.6095410000000  0.4969220000000 1.0
C      1  0.5154690000000  0.6079640000000  0.4972140000000 1.0
C      1  0.4845440000000  0.4516490000000  0.4512760000000 1.0
C      1  0.5160350000000  0.4515830000000  0.4513110000000 1.0
C      1  0.4856020000000  0.4816270000000  0.4988420000000 1.0
C      1  0.5139340000000  0.4822660000000  0.4967560000000 1.0
C      1  0.5153680000000  0.4870100000000  0.6075440000000 1.0
C      1  0.4854150000000  0.4862240000000  0.6083090000000 1.0
C      1  0.5658750000000  0.5461640000000  0.5970410000000 1.0
C      1  0.4388960000000  0.5457310000000  0.5937210000000 1.0
C      1  0.5528800000000  0.5269150000000  0.4032610000000 1.0
C      1  0.4486250000000  0.5251450000000  0.4054440000000 1.0
C      1  0.4711780000000  0.5238180000000  0.5577790000000 1.0
C      1  0.5261260000000  0.5257690000000  0.5558820000000 1.0
C      1  0.4842700000000  0.5811590000000  0.4614520000000 1.0
C      1  0.5149340000000  0.5801760000000  0.4625900000000 1.0
C      1  0.4842070000000  0.5305690000000  0.4889670000000 1.0
C      1  0.5149110000000  0.5314090000000  0.4892480000000 1.0
C      1  0.4443610000000  0.4878470000000  0.5737890000000 1.0
C      1  0.5544170000000  0.4885400000000  0.5730440000000 1.0
C      1  0.4854300000000  0.3955550000000  0.4931280000000 1.0
C      1  0.5144670000000  0.3955330000000  0.4931440000000 1.0
C      1  0.5926160000000  0.4416900000000  0.4768390000000 1.0
C      1  0.4073190000000  0.4416050000000  0.4766250000000 1.0
C      1  0.6093690000000  0.4940630000000  0.4881910000000 1.0
C      1  0.3902700000000  0.4941800000000  0.4882760000000 1.0
C      1  0.5494910000000  0.5665440000000  0.5819780000000 1.0
C      1  0.4512450000000  0.5707110000000  0.5818060000000 1.0
C      1  0.6074830000000  0.4587950000000  0.5213880000000 1.0
C      1  0.3921060000000  0.4586970000000  0.5210650000000 1.0
C      1  0.5521690000000  0.5212190000000  0.6114190000000 1.0
C      1  0.4500560000000  0.5214300000000  0.6090310000000 1.0
C      1  0.5130470000000  0.4977920000000  0.5589250000000 1.0
C      1  0.4855480000000  0.4971260000000  0.5595940000000 1.0
C      1  0.4744370000000  0.4784720000000  0.5807730000000 1.0
C      1  0.5249860000000  0.4792460000000  0.5798250000000 1.0
C      1  0.5580590000000  0.4754700000000  0.3947520000000 1.0
C      1  0.4401160000000  0.4749360000000  0.3950060000000 1.0
C      1  0.5329280000000  0.5909320000000  0.5434180000000 1.0
C      1  0.4649540000000  0.5923790000000  0.5431730000000 1.0
C      1  0.4819280000000  0.5389630000000  0.5843510000000 1.0
C      1  0.5140730000000  0.5401420000000  0.5831110000000 1.0
C      1  0.4783830000000  0.5631920000000  0.4867820000000 1.0
C      1  0.5180440000000  0.5638370000000  0.4914800000000 1.0
C      1  0.3912930000000  0.5291880000000  0.4523620000000 1.0
C      1  0.6082930000000  0.5287880000000  0.4524090000000 1.0
C      1  0.3956440000000  0.5495930000000  0.4739440000000 1.0
C      1  0.6040950000000  0.5493770000000  0.4738960000000 1.0
C      1  0.4153470000000  0.5281540000000  0.5826010000000 1.0
C      1  0.5850660000000  0.5267910000000  0.5823450000000 1.0
C      1  0.4409140000000  0.4061060000000  0.4676930000000 1.0
C      1  0.5589530000000  0.4065240000000  0.4678470000000 1.0
C      1  0.5527430000000  0.5037290000000  0.5177670000000 1.0
C      1  0.4465380000000  0.5035440000000  0.5182860000000 1.0
C      1  0.5735320000000  0.5560720000000  0.5388520000000 1.0
C      1  0.4253710000000  0.5569760000000  0.5394980000000 1.0
C      1  0.4709220000000  0.5267160000000  0.4629280000000 1.0
C      1  0.5274100000000  0.5270890000000  0.4627920000000 1.0
C      1  0.4847610000000  0.4070120000000  0.4400580000000 1.0
C      1  0.5151650000000  0.4070390000000  0.4400190000000 1.0
C      1  0.5497940000000  0.5766920000000  0.5018710000000 1.0
C      1  0.4513440000000  0.5745310000000  0.5020770000000 1.0
C      1  0.4016320000000  0.4301600000000  0.5244390000000 1.0
C      1  0.5980240000000  0.4302680000000  0.5247400000000 1.0
C      1  0.5290810000000  0.4023570000000  0.4672280000000 1.0
C      1  0.4708730000000  0.4024020000000  0.4672520000000 1.0
C      1  0.5669810000000  0.4418600000000  0.5816040000000 1.0
C      1  0.4320570000000  0.4410500000000  0.5815830000000 1.0
C      1  0.5162590000000  0.4370710000000  0.4790680000000 1.0
C      1  0.4839320000000  0.4370800000000  0.4789110000000 1.0
C      1  0.4441180000000  0.5101750000000  0.5500690000000 1.0
C      1  0.5543480000000  0.5108740000000  0.5494790000000 1.0
C      1  0.5141810000000  0.5214700000000  0.4345310000000 1.0
C      1  0.4823820000000  0.5221580000000  0.4339570000000 1.0
C      1  0.4331570000000  0.4632530000000  0.5640390000000 1.0
C      1  0.5655330000000  0.4638000000000  0.5637370000000 1.0
C      1  0.4425240000000  0.4552490000000  0.5355910000000 1.0
C      1  0.5569490000000  0.4553230000000  0.5355240000000 1.0
C      1  0.5666430000000  0.5390340000000  0.4248740000000 1.0
C      1  0.4335970000000  0.5388330000000  0.4251350000000 1.0
C      1  0.5298300000000  0.4571590000000  0.4978420000000 1.0
C      1  0.4697300000000  0.4567570000000  0.4977360000000 1.0
C      1  0.4305290000000  0.4313320000000  0.4575860000000 1.0
C      1  0.5695150000000  0.4316180000000  0.4574130000000 1.0
C      1  0.6060050000000  0.5434090000000  0.5021580000000 1.0
C      1  0.3935890000000  0.5435860000000  0.5022400000000 1.0
C      1  0.3951930000000  0.4658900000000  0.4931460000000 1.0
C      1  0.6045720000000  0.4658860000000  0.4934450000000 1.0
C      1  0.4296500000000  0.5025550000000  0.5961850000000 1.0
C      1  0.5700810000000  0.5022060000000  0.5953880000000 1.0
C      1  0.4015780000000  0.4799730000000  0.5385920000000 1.0
C      1  0.5978830000000  0.4799920000000  0.5388520000000 1.0
C      1  0.5236210000000  0.5135020000000  0.6163070000000 1.0
C      1  0.4766110000000  0.5122770000000  0.6184200000000 1.0
C      1  0.4761200000000  0.6080940000000  0.4695630000000 1.0
C      1  0.5244140000000  0.6069710000000  0.4698940000000 1.0
C      1  0.5556820000000  0.4088780000000  0.5164070000000 1.0
C      1  0.4441340000000  0.4090430000000  0.5160730000000 1.0
C      1  0.5146100000000  0.4486310000000  0.5765350000000 1.0
C      1  0.4848940000000  0.4484280000000  0.5767630000000 1.0
C      1  0.5935820000000  0.5037240000000  0.4120540000000 1.0
C      1  0.4062420000000  0.5039890000000  0.4119610000000 1.0
C      1  0.4837790000000  0.4240790000000  0.5357840000000 1.0
C      1  0.5158470000000  0.4240830000000  0.5358390000000 1.0
C      1  0.6001930000000  0.5086970000000  0.5369250000000 1.0
C      1  0.3984680000000  0.5087210000000  0.5373890000000 1.0
C      1  0.4049050000000  0.5658820000000  0.5184480000000 1.0
C      1  0.5947360000000  0.5656790000000  0.5185270000000 1.0
C      1  0.4415460000000  0.5306150000000  0.4704710000000 1.0
C      1  0.5573450000000  0.5306880000000  0.4699110000000 1.0
C      1  0.5712250000000  0.5068540000000  0.4545270000000 1.0
C      1  0.4282700000000  0.5067640000000  0.4547010000000 1.0
C      1  0.4276640000000  0.4013520000000  0.4937090000000 1.0
C      1  0.5721250000000  0.4016030000000  0.4938510000000 1.0
C      1  0.5276320000000  0.4026720000000  0.5183110000000 1.0
C      1  0.4721190000000  0.4026330000000  0.5182350000000 1.0
C      1  0.4418700000000  0.4202580000000  0.5649360000000 1.0
C      1  0.5576740000000  0.4206260000000  0.5651990000000 1.0
C      1  0.5249750000000  0.5067820000000  0.5066930000000 1.0
C      1  0.4741500000000  0.5064990000000  0.5070050000000 1.0
C      1  0.4108490000000  0.5743700000000  0.4703760000000 1.0
C      1  0.5888760000000  0.5740840000000  0.4703120000000 1.0
C      1  0.5255620000000  0.5346820000000  0.4001560000000 1.0
C      1  0.4741430000000  0.5358630000000  0.3987590000000 1.0
C      1  0.5210760000000  0.5684650000000  0.5870450000000 1.0
C      1  0.4818300000000  0.5686890000000  0.5779280000000 1.0
C      1  0.3980680000000  0.5152200000000  0.5087800000000 1.0
C      1  0.6010740000000  0.5151230000000  0.5084190000000 1.0
C      1  0.4423160000000  0.4397680000000  0.4320330000000 1.0
C      1  0.5577870000000  0.4395550000000  0.4314660000000 1.0
C      1  0.5682930000000  0.5022800000000  0.3960190000000 1.0
C      1  0.4317480000000  0.5023110000000  0.3962370000000 1.0
C      1  0.5213490000000  0.4919690000000  0.4278710000000 1.0
C      1  0.4830080000000  0.4917850000000  0.4283910000000 1.0
C      1  0.5691540000000  0.4265900000000  0.5359980000000 1.0
C      1  0.4304780000000  0.4264640000000  0.5357590000000 1.0
C      1  0.5963030000000  0.4189760000000  0.4965520000000 1.0
C      1  0.4034940000000  0.4188520000000  0.4962860000000 1.0
C      1  0.4436610000000  0.4806520000000  0.4605800000000 1.0
C      1  0.5565050000000  0.4811710000000  0.4621880000000 1.0
C      1  0.4725120000000  0.4232930000000  0.5640530000000 1.0
C      1  0.5270120000000  0.4233450000000  0.5641520000000 1.0
C      1  0.4710810000000  0.4500480000000  0.5267040000000 1.0
C      1  0.5284240000000  0.4500980000000  0.5269360000000 1.0
C      1  0.4729100000000  0.5439210000000  0.5355490000000 1.0
C      1  0.5250350000000  0.5439010000000  0.5306380000000 1.0
C      1  0.3906870000000  0.5005540000000  0.4599230000000 1.0
C      1  0.6087170000000  0.5001430000000  0.4597970000000 1.0
C      1  0.4995110000000  0.5309420000000  0.6184440000000 1.0
END
