TITL C-3577077-324-206 -1.36405015471307e-07 125000 -847.433460991516 0 0 138 (C2) n - 1
REM
REM in /home/bkarasulu/work/CARBON/AIRSS/Generating-Clusters/EDIP-Nigel-Params/with-SteepDescent/Higher-Symm/SD-CG/HFTN-CG
REM
REM
REM
REM
REM
REM ./C.cell (12c818d87b63d06a65506943cc24bca4)
REM
REM compiler GCC version 9.2.1 20190827 (Red Hat 9.2.1-1)
REM options -cpp -mtune=generic -march=x86-64 -g -O0 -fpre-include=/usr/include/finclude/math-vector-fortran.h
REM seed 1476928916 -1700842941 -1103342007 -100663622 -1088737993 1158173582 -80226941 1255606351 -1972633721 -1941386358 1219257607 -4469066 -1048514554 -1085648622 -1355902495 1659140894 -32289914 2015531327 611593389 -710419540 -314462136 -554892155 1585232918 901006424 730065401 -1467680543 -314048785 537332933 -1045312871 -673413719 1671951181 -2139080262 338720786
REM
CELL 1.54180   50.00000   50.00000   50.00000   90.00000   90.00000   90.00000
LATT -1
SFAC C  
C      1  0.4595370000000  0.5299300000000  0.4129120000000 1.0
C      1  0.6032530000000  0.5360390000000  0.5104720000000 1.0
C      1  0.4392150000000  0.5245500000000  0.5685850000000 1.0
C      1  0.5404680000000  0.4700660000000  0.4129160000000 1.0
C      1  0.3967460000000  0.4639610000000  0.5104670000000 1.0
C      1  0.5607800000000  0.4754530000000  0.5685900000000 1.0
C      1  0.5402790000000  0.4704250000000  0.5879310000000 1.0
C      1  0.3925060000000  0.4646840000000  0.4822610000000 1.0
C      1  0.5607260000000  0.4751970000000  0.4326060000000 1.0
C      1  0.4597160000000  0.5295780000000  0.5879270000000 1.0
C      1  0.6074950000000  0.5353150000000  0.4822660000000 1.0
C      1  0.4392780000000  0.5248000000000  0.4326020000000 1.0
C      1  0.5058820000000  0.3961290000000  0.4597700000000 1.0
C      1  0.5281100000000  0.4037280000000  0.5221860000000 1.0
C      1  0.4616260000000  0.4051370000000  0.5143470000000 1.0
C      1  0.4941200000000  0.6038690000000  0.4597650000000 1.0
C      1  0.4718890000000  0.5962730000000  0.5221800000000 1.0
C      1  0.5383730000000  0.5948640000000  0.5143450000000 1.0
C      1  0.4944910000000  0.6040570000000  0.5399760000000 1.0
C      1  0.4715930000000  0.5963430000000  0.4778330000000 1.0
C      1  0.5382260000000  0.5948680000000  0.4852080000000 1.0
C      1  0.5055070000000  0.3959450000000  0.5399810000000 1.0
C      1  0.5284090000000  0.4036560000000  0.4778390000000 1.0
C      1  0.4617750000000  0.4051320000000  0.4852100000000 1.0
C      1  0.4763340000000  0.5526160000000  0.5157220000000 1.0
C      1  0.5010710000000  0.5636150000000  0.4740560000000 1.0
C      1  0.5271510000000  0.5517060000000  0.5151690000000 1.0
C      1  0.5236650000000  0.4473840000000  0.5157260000000 1.0
C      1  0.4989300000000  0.4363840000000  0.4740590000000 1.0
C      1  0.4728480000000  0.4482950000000  0.5151700000000 1.0
C      1  0.5245020000000  0.4473420000000  0.4840470000000 1.0
C      1  0.4981660000000  0.4360180000000  0.5253760000000 1.0
C      1  0.4731650000000  0.4481650000000  0.4843680000000 1.0
C      1  0.4754990000000  0.5526580000000  0.4840430000000 1.0
C      1  0.5018330000000  0.5639830000000  0.5253730000000 1.0
C      1  0.5268360000000  0.5518340000000  0.4843680000000 1.0
C      1  0.5439220000000  0.5173230000000  0.6011220000000 1.0
C      1  0.3895900000000  0.5141630000000  0.4855670000000 1.0
C      1  0.5626130000000  0.5179550000000  0.4213150000000 1.0
C      1  0.4560720000000  0.4826820000000  0.6011210000000 1.0
C      1  0.6104100000000  0.4858370000000  0.4855740000000 1.0
C      1  0.4373920000000  0.4820420000000  0.4213120000000 1.0
C      1  0.4558380000000  0.4832470000000  0.3990890000000 1.0
C      1  0.6127150000000  0.4876980000000  0.5154990000000 1.0
C      1  0.4373930000000  0.4815820000000  0.5790110000000 1.0
C      1  0.5441680000000  0.5167480000000  0.3990910000000 1.0
C      1  0.3872840000000  0.5123030000000  0.5154910000000 1.0
C      1  0.5626030000000  0.5184220000000  0.5790140000000 1.0
C      1  0.5509230000000  0.4825110000000  0.4603270000000 1.0
C      1  0.5067190000000  0.4849610000000  0.5782670000000 1.0
C      1  0.4240950000000  0.4864920000000  0.4844570000000 1.0
C      1  0.4490790000000  0.5174880000000  0.4603230000000 1.0
C      1  0.4932760000000  0.5150430000000  0.5782660000000 1.0
C      1  0.5759060000000  0.5135080000000  0.4844610000000 1.0
C      1  0.4476450000000  0.5185920000000  0.5400730000000 1.0
C      1  0.4932400000000  0.5150330000000  0.4215490000000 1.0
C      1  0.5752350000000  0.5104150000000  0.5151920000000 1.0
C      1  0.5523530000000  0.4814090000000  0.5400770000000 1.0
C      1  0.5067650000000  0.4849640000000  0.4215500000000 1.0
C      1  0.4247640000000  0.4895860000000  0.5151870000000 1.0
C      1  0.4722380000000  0.4611030000000  0.3950090000000 1.0
C      1  0.6016490000000  0.4677650000000  0.5316620000000 1.0
C      1  0.4351570000000  0.4595290000000  0.5607950000000 1.0
C      1  0.5277690000000  0.5388920000000  0.3950090000000 1.0
C      1  0.3983490000000  0.5322360000000  0.5316550000000 1.0
C      1  0.5648390000000  0.5404740000000  0.5607970000000 1.0
C      1  0.5274420000000  0.5394940000000  0.6047590000000 1.0
C      1  0.4033440000000  0.5371170000000  0.4741850000000 1.0
C      1  0.5644890000000  0.5403760000000  0.4390330000000 1.0
C      1  0.4725520000000  0.4605110000000  0.6047590000000 1.0
C      1  0.5966580000000  0.4628820000000  0.4741930000000 1.0
C      1  0.4355150000000  0.4596220000000  0.4390310000000 1.0
C      1  0.4528630000000  0.4372100000000  0.4449310000000 1.0
C      1  0.5672380000000  0.4397540000000  0.4858730000000 1.0
C      1  0.4821290000000  0.4410050000000  0.5601690000000 1.0
C      1  0.5471400000000  0.5627870000000  0.4449310000000 1.0
C      1  0.4327630000000  0.5602460000000  0.4858660000000 1.0
C      1  0.5178680000000  0.5589970000000  0.5601680000000 1.0
C      1  0.5474760000000  0.5628280000000  0.5547330000000 1.0
C      1  0.4332110000000  0.5615330000000  0.5157960000000 1.0
C      1  0.5175760000000  0.5589930000000  0.4393470000000 1.0
C      1  0.4525200000000  0.4371750000000  0.5547330000000 1.0
C      1  0.5667880000000  0.4384670000000  0.5158030000000 1.0
C      1  0.4824270000000  0.4410040000000  0.4393490000000 1.0
C      1  0.6119480000000  0.5143110000000  0.5266250000000 1.0
C      1  0.4211740000000  0.5043770000000  0.5768220000000 1.0
C      1  0.4669020000000  0.5093820000000  0.3945040000000 1.0
C      1  0.3880510000000  0.4856900000000  0.5266190000000 1.0
C      1  0.5788210000000  0.4956260000000  0.5768270000000 1.0
C      1  0.5331040000000  0.4906140000000  0.3945060000000 1.0
C      1  0.3886700000000  0.4898160000000  0.4696420000000 1.0
C      1  0.5788630000000  0.4952010000000  0.4241860000000 1.0
C      1  0.5325740000000  0.4912920000000  0.6057350000000 1.0
C      1  0.6113310000000  0.5101820000000  0.4696490000000 1.0
C      1  0.4211410000000  0.5047950000000  0.4241810000000 1.0
C      1  0.4674190000000  0.5087130000000  0.6057330000000 1.0
C      1  0.4749140000000  0.5269720000000  0.5293180000000 1.0
C      1  0.5011190000000  0.5143470000000  0.4636900000000 1.0
C      1  0.5270400000000  0.5236260000000  0.5252780000000 1.0
C      1  0.5250840000000  0.4730290000000  0.5293200000000 1.0
C      1  0.4988830000000  0.4856510000000  0.4636910000000 1.0
C      1  0.4729590000000  0.4763750000000  0.5252770000000 1.0
C      1  0.5243260000000  0.4728830000000  0.4701480000000 1.0
C      1  0.4991980000000  0.4856090000000  0.5361840000000 1.0
C      1  0.4729980000000  0.4761790000000  0.4746760000000 1.0
C      1  0.4756760000000  0.5271150000000  0.4701450000000 1.0
C      1  0.5008000000000  0.5143930000000  0.5361830000000 1.0
C      1  0.5270040000000  0.5238200000000  0.4746760000000 1.0
C      1  0.5004320000000  0.4171870000000  0.5592490000000 1.0
C      1  0.4464230000000  0.4247810000000  0.4703860000000 1.0
C      1  0.5488010000000  0.4226100000000  0.4687410000000 1.0
C      1  0.4995650000000  0.5828160000000  0.5592450000000 1.0
C      1  0.5535790000000  0.5752180000000  0.4703860000000 1.0
C      1  0.4512010000000  0.5773890000000  0.4687350000000 1.0
C      1  0.4989710000000  0.5826580000000  0.4403560000000 1.0
C      1  0.5538070000000  0.5751620000000  0.5291480000000 1.0
C      1  0.4520320000000  0.5773010000000  0.5319320000000 1.0
C      1  0.5010320000000  0.4173390000000  0.4403600000000 1.0
C      1  0.4461920000000  0.4248390000000  0.5291490000000 1.0
C      1  0.5479660000000  0.4227000000000  0.5319390000000 1.0
C      1  0.5529760000000  0.5132920000000  0.4640840000000 1.0
C      1  0.5106280000000  0.5396890000000  0.5824750000000 1.0
C      1  0.4305400000000  0.5301830000000  0.4796430000000 1.0
C      1  0.4470260000000  0.4867070000000  0.4640810000000 1.0
C      1  0.4893670000000  0.4603150000000  0.5824760000000 1.0
C      1  0.5694610000000  0.4698160000000  0.4796490000000 1.0
C      1  0.4468050000000  0.4869500000000  0.5362370000000 1.0
C      1  0.4892940000000  0.4605190000000  0.4170950000000 1.0
C      1  0.5743570000000  0.4668510000000  0.5235880000000 1.0
C      1  0.5531930000000  0.5130510000000  0.5362390000000 1.0
C      1  0.5107110000000  0.5394770000000  0.4170940000000 1.0
C      1  0.4256420000000  0.5331500000000  0.5235820000000 1.0
C      1  0.4659430000000  0.6124250000000  0.5000730000000 1.0
C      1  0.5340570000000  0.3875750000000  0.5000810000000 1.0
C      1  0.5189770000000  0.6102520000000  0.5274480000000 1.0
C      1  0.5186810000000  0.6101010000000  0.4721440000000 1.0
C      1  0.4810210000000  0.3897490000000  0.5274520000000 1.0
C      1  0.4813210000000  0.3898980000000  0.4721480000000 1.0
END
