TITL C-3578196-9646-490 -2.63629611441412e-06 125000 -943.586430406765 0 0 154 (C1) n - 1
REM
REM in /home/bkarasulu/work/CARBON/AIRSS/Generating-Clusters/EDIP-Nigel-Params/with-SteepDescent/Higher-Symm/SD-CG/HFTN-CG
REM
REM
REM
REM
REM
REM ./C.cell (12c818d87b63d06a65506943cc24bca4)
REM
REM compiler GCC version 9.2.1 20190827 (Red Hat 9.2.1-1)
REM options -cpp -mtune=generic -march=x86-64 -g -O0 -fpre-include=/usr/include/finclude/math-vector-fortran.h
REM seed 1278315686 -1558386839 -757838883 -1811952216 1475175516 -347030765 -724664832 861125109 1660825199 -1609647662 -444064801 1347079262 -1250346700 -980733130 178250126 -66759030 1281558557 -971254268 1963157889 -408131207 901359623 941947001 1024428159 -528905132 292608140 338174723 -626868164 -788572453 1232408089 186486123 -1457083076 -1691589957 -833073887
REM
CELL 1.54180   50.00000   50.00000   50.00000   90.00000   90.00000   90.00000
LATT -1
SFAC C  
C      1  0.5176020000000  0.4425050000000  0.4212570000000 1.0
C      1  0.5130390000000  0.5896660000000  0.4888900000000 1.0
C      1  0.5173650000000  0.4654500000000  0.5814100000000 1.0
C      1  0.4872970000000  0.4446140000000  0.4191080000000 1.0
C      1  0.4813830000000  0.5840630000000  0.4865850000000 1.0
C      1  0.4857480000000  0.4701740000000  0.5772620000000 1.0
C      1  0.4704950000000  0.4208790000000  0.4188650000000 1.0
C      1  0.4724110000000  0.5950270000000  0.4601930000000 1.0
C      1  0.4737290000000  0.4795720000000  0.6039850000000 1.0
C      1  0.5279250000000  0.4136070000000  0.4206440000000 1.0
C      1  0.5256430000000  0.6076130000000  0.4672240000000 1.0
C      1  0.5277930000000  0.4777770000000  0.6078050000000 1.0
C      1  0.5818120000000  0.5459300000000  0.5527310000000 1.0
C      1  0.5774210000000  0.4264900000000  0.5166080000000 1.0
C      1  0.5694570000000  0.5219090000000  0.4423880000000 1.0
C      1  0.4223360000000  0.5458420000000  0.5558070000000 1.0
C      1  0.4181360000000  0.4280240000000  0.5116980000000 1.0
C      1  0.4141790000000  0.5258860000000  0.4260210000000 1.0
C      1  0.4359680000000  0.5815530000000  0.4853260000000 1.0
C      1  0.4426200000000  0.4773710000000  0.5722390000000 1.0
C      1  0.4382670000000  0.4570850000000  0.4306370000000 1.0
C      1  0.5578640000000  0.5881100000000  0.4957210000000 1.0
C      1  0.5649940000000  0.4638890000000  0.5806510000000 1.0
C      1  0.5612130000000  0.4478530000000  0.4286800000000 1.0
C      1  0.5438090000000  0.5111630000000  0.5856730000000 1.0
C      1  0.5386480000000  0.4137000000000  0.4628450000000 1.0
C      1  0.5388590000000  0.5720070000000  0.4453340000000 1.0
C      1  0.4653840000000  0.5205490000000  0.5924660000000 1.0
C      1  0.4577710000000  0.4202170000000  0.4603930000000 1.0
C      1  0.4424820000000  0.5555170000000  0.4461350000000 1.0
C      1  0.4846610000000  0.4323810000000  0.4953110000000 1.0
C      1  0.4812210000000  0.5219000000000  0.4492020000000 1.0
C      1  0.4914650000000  0.5421020000000  0.5576340000000 1.0
C      1  0.5149130000000  0.4360050000000  0.4979170000000 1.0
C      1  0.5139920000000  0.5299850000000  0.4477190000000 1.0
C      1  0.5208280000000  0.5427250000000  0.5607000000000 1.0
C      1  0.4263050000000  0.5469230000000  0.5254170000000 1.0
C      1  0.4198000000000  0.4486040000000  0.5338350000000 1.0
C      1  0.4151580000000  0.5012150000000  0.4433740000000 1.0
C      1  0.5635890000000  0.5483030000000  0.5275910000000 1.0
C      1  0.5809920000000  0.4526650000000  0.5343810000000 1.0
C      1  0.5806170000000  0.4937250000000  0.4452440000000 1.0
C      1  0.4920970000000  0.4022420000000  0.5430710000000 1.0
C      1  0.4866000000000  0.5156450000000  0.3997860000000 1.0
C      1  0.4855840000000  0.5884950000000  0.5657960000000 1.0
C      1  0.5191370000000  0.4055400000000  0.5357600000000 1.0
C      1  0.5169820000000  0.5166220000000  0.4000990000000 1.0
C      1  0.5119290000000  0.5979390000000  0.5621820000000 1.0
C      1  0.5267150000000  0.5896330000000  0.5395390000000 1.0
C      1  0.5274450000000  0.4319650000000  0.5471400000000 1.0
C      1  0.5286090000000  0.4928910000000  0.4116200000000 1.0
C      1  0.4741040000000  0.5827880000000  0.5384950000000 1.0
C      1  0.4748980000000  0.4247490000000  0.5459780000000 1.0
C      1  0.4764760000000  0.4900530000000  0.4112940000000 1.0
C      1  0.5822640000000  0.4972470000000  0.4766690000000 1.0
C      1  0.5628110000000  0.5195570000000  0.5155620000000 1.0
C      1  0.5842760000000  0.4695550000000  0.5100790000000 1.0
C      1  0.4105910000000  0.5135070000000  0.4698650000000 1.0
C      1  0.4197090000000  0.5199000000000  0.5137590000000 1.0
C      1  0.4238860000000  0.4730950000000  0.5173740000000 1.0
C      1  0.4076110000000  0.4972530000000  0.5534700000000 1.0
C      1  0.4111810000000  0.4578420000000  0.4722700000000 1.0
C      1  0.4055920000000  0.5435460000000  0.4717120000000 1.0
C      1  0.5956540000000  0.4948840000000  0.5606340000000 1.0
C      1  0.5829500000000  0.4512480000000  0.4704530000000 1.0
C      1  0.5845600000000  0.5538940000000  0.4799600000000 1.0
C      1  0.4859710000000  0.5554370000000  0.5307390000000 1.0
C      1  0.4734690000000  0.4439390000000  0.5211870000000 1.0
C      1  0.4817280000000  0.4897740000000  0.4422330000000 1.0
C      1  0.5335660000000  0.5585140000000  0.5377330000000 1.0
C      1  0.5204240000000  0.4539530000000  0.5228340000000 1.0
C      1  0.5295710000000  0.5036910000000  0.4489670000000 1.0
C      1  0.5669800000000  0.5393080000000  0.4194680000000 1.0
C      1  0.5693830000000  0.5532000000000  0.5764780000000 1.0
C      1  0.5674110000000  0.4010700000000  0.5041290000000 1.0
C      1  0.4331540000000  0.5311060000000  0.4056300000000 1.0
C      1  0.4396990000000  0.5576390000000  0.5744840000000 1.0
C      1  0.4354850000000  0.4053200000000  0.5065300000000 1.0
C      1  0.5905890000000  0.5064320000000  0.5194060000000 1.0
C      1  0.6125250000000  0.4772680000000  0.5041290000000 1.0
C      1  0.6075970000000  0.5027800000000  0.4923820000000 1.0
C      1  0.3900340000000  0.5171760000000  0.5100280000000 1.0
C      1  0.4022640000000  0.4739110000000  0.4948000000000 1.0
C      1  0.3907580000000  0.4998030000000  0.4874130000000 1.0
C      1  0.4150030000000  0.4704910000000  0.5641840000000 1.0
C      1  0.4186870000000  0.4711790000000  0.4464590000000 1.0
C      1  0.4203930000000  0.5592460000000  0.4938820000000 1.0
C      1  0.5846640000000  0.4687690000000  0.5599810000000 1.0
C      1  0.5703750000000  0.4650790000000  0.4492720000000 1.0
C      1  0.5716200000000  0.5645710000000  0.5025480000000 1.0
C      1  0.5439220000000  0.5569020000000  0.4183840000000 1.0
C      1  0.5505180000000  0.5408810000000  0.5930330000000 1.0
C      1  0.5427930000000  0.3966960000000  0.4892920000000 1.0
C      1  0.4519120000000  0.5479750000000  0.4184420000000 1.0
C      1  0.4610640000000  0.5513770000000  0.5918400000000 1.0
C      1  0.4549070000000  0.4005720000000  0.4851270000000 1.0
C      1  0.5177880000000  0.5407390000000  0.4184000000000 1.0
C      1  0.5243630000000  0.5527160000000  0.5877670000000 1.0
C      1  0.5189940000000  0.4063050000000  0.5058330000000 1.0
C      1  0.4790250000000  0.5362470000000  0.4210650000000 1.0
C      1  0.4872350000000  0.5623280000000  0.5806400000000 1.0
C      1  0.4821550000000  0.4020330000000  0.4953010000000 1.0
C      1  0.4463580000000  0.4880600000000  0.5987680000000 1.0
C      1  0.4436340000000  0.4283580000000  0.4315540000000 1.0
C      1  0.4456190000000  0.5835870000000  0.4580460000000 1.0
C      1  0.5562780000000  0.4843700000000  0.5999700000000 1.0
C      1  0.5542580000000  0.4198870000000  0.4339550000000 1.0
C      1  0.5531260000000  0.5963890000000  0.4684510000000 1.0
C      1  0.4566030000000  0.5358690000000  0.4669220000000 1.0
C      1  0.4762530000000  0.5168930000000  0.5655380000000 1.0
C      1  0.4725200000000  0.4446700000000  0.4695430000000 1.0
C      1  0.5265870000000  0.5520600000000  0.4639030000000 1.0
C      1  0.5371680000000  0.5022070000000  0.5563930000000 1.0
C      1  0.5299600000000  0.4403950000000  0.4721740000000 1.0
C      1  0.4734130000000  0.4881130000000  0.5248060000000 1.0
C      1  0.4523700000000  0.4870700000000  0.4814560000000 1.0
C      1  0.4683460000000  0.5385560000000  0.5144910000000 1.0
C      1  0.5408670000000  0.4753550000000  0.5160040000000 1.0
C      1  0.5384920000000  0.5009110000000  0.4779110000000 1.0
C      1  0.5135390000000  0.5198840000000  0.5150800000000 1.0
C      1  0.4133120000000  0.5499290000000  0.4442490000000 1.0
C      1  0.4106570000000  0.5222250000000  0.5660620000000 1.0
C      1  0.4228620000000  0.4340620000000  0.4834850000000 1.0
C      1  0.5844690000000  0.5443290000000  0.4537320000000 1.0
C      1  0.5958350000000  0.5221200000000  0.5588240000000 1.0
C      1  0.5868930000000  0.4307840000000  0.4890050000000 1.0
C      1  0.4863100000000  0.5054150000000  0.6126090000000 1.0
C      1  0.4825700000000  0.4025150000000  0.4388720000000 1.0
C      1  0.4903550000000  0.5925220000000  0.4390230000000 1.0
C      1  0.5149580000000  0.5037730000000  0.6097310000000 1.0
C      1  0.5116670000000  0.4001340000000  0.4411060000000 1.0
C      1  0.5180290000000  0.5959730000000  0.4410260000000 1.0
C      1  0.4639140000000  0.5552520000000  0.4898450000000 1.0
C      1  0.4640660000000  0.4927230000000  0.5534660000000 1.0
C      1  0.4609710000000  0.4711330000000  0.4574950000000 1.0
C      1  0.5286010000000  0.5639020000000  0.4913080000000 1.0
C      1  0.5353310000000  0.4738680000000  0.5598140000000 1.0
C      1  0.5281600000000  0.4568120000000  0.4469160000000 1.0
C      1  0.4259720000000  0.4982890000000  0.5318710000000 1.0
C      1  0.4522230000000  0.4728340000000  0.5070140000000 1.0
C      1  0.4384020000000  0.5137850000000  0.4825020000000 1.0
C      1  0.5378770000000  0.5040700000000  0.5260270000000 1.0
C      1  0.5524200000000  0.4746670000000  0.4882560000000 1.0
C      1  0.5608960000000  0.5177660000000  0.4857630000000 1.0
C      1  0.5139980000000  0.4359190000000  0.5745540000000 1.0
C      1  0.5195230000000  0.4678190000000  0.3994390000000 1.0
C      1  0.5123120000000  0.6025870000000  0.5160220000000 1.0
C      1  0.4833350000000  0.4382630000000  0.5716870000000 1.0
C      1  0.4881110000000  0.4662160000000  0.3983010000000 1.0
C      1  0.4822300000000  0.6022790000000  0.5182900000000 1.0
C      1  0.5103350000000  0.4813470000000  0.4500400000000 1.0
C      1  0.4932010000000  0.4657470000000  0.5274950000000 1.0
C      1  0.5152690000000  0.5498310000000  0.5159060000000 1.0
C      1  0.4847020000000  0.5132380000000  0.5119310000000 1.0
END
