TITL C-3577077-324-78 5.60658744233811e-05 125000 -983.569400431288 0 0 160 (C1) n - 1
REM
REM in /home/bkarasulu/work/CARBON/AIRSS/Generating-Clusters/EDIP-Nigel-Params/with-SteepDescent/Higher-Symm/SD-CG/HFTN-CG
REM
REM
REM
REM
REM
REM ./C.cell (12c818d87b63d06a65506943cc24bca4)
REM
REM compiler GCC version 9.2.1 20190827 (Red Hat 9.2.1-1)
REM options -cpp -mtune=generic -march=x86-64 -g -O0 -fpre-include=/usr/include/finclude/math-vector-fortran.h
REM seed 29284834 -38416132 -306477623 1010850726 -1809678448 -924490812 -447110880 -1425443322 1641383699 630918338 -447673572 1765532147 -363352359 -1486892139 -1720835697 1928100846 -1609562232 733408237 -1669519055 -238978668 -1049281283 1566005308 -1114163890 -2090476640 -563626658 1662494207 525728404 1879446314 407884412 -1275515337 -1387143329 -51586307 1134430953
REM
CELL 1.54180   50.00000   50.00000   50.00000   90.00000   90.00000   90.00000
LATT -1
SFAC C  
C      1  0.5262260000000  0.4252030000000  0.5323460000000 1.0
C      1  0.5294180000000  0.5062890000000  0.5855050000000 1.0
C      1  0.5261890000000  0.5788000000000  0.5173690000000 1.0
C      1  0.5272660000000  0.5404470000000  0.4298510000000 1.0
C      1  0.5283750000000  0.4454900000000  0.4367610000000 1.0
C      1  0.5715650000000  0.5183330000000  0.4199650000000 1.0
C      1  0.5729290000000  0.4311440000000  0.4556400000000 1.0
C      1  0.5714280000000  0.4376510000000  0.5536020000000 1.0
C      1  0.5737630000000  0.5302320000000  0.5774530000000 1.0
C      1  0.5711220000000  0.5824540000000  0.4938840000000 1.0
C      1  0.6114210000000  0.4807880000000  0.5166720000000 1.0
C      1  0.6120010000000  0.5104170000000  0.5235280000000 1.0
C      1  0.6119850000000  0.5262060000000  0.4973000000000 1.0
C      1  0.6113160000000  0.5061890000000  0.4742820000000 1.0
C      1  0.6110580000000  0.4781690000000  0.4862240000000 1.0
C      1  0.5199060000000  0.5896600000000  0.5471790000000 1.0
C      1  0.5164320000000  0.5772640000000  0.4255510000000 1.0
C      1  0.5159760000000  0.4559810000000  0.4013830000000 1.0
C      1  0.5199900000000  0.3989610000000  0.5145520000000 1.0
C      1  0.5153300000000  0.4761700000000  0.6059230000000 1.0
C      1  0.3995180000000  0.5399420000000  0.5245310000000 1.0
C      1  0.3991160000000  0.5363180000000  0.4691590000000 1.0
C      1  0.3982050000000  0.4821570000000  0.4567000000000 1.0
C      1  0.4009820000000  0.4554650000000  0.5027980000000 1.0
C      1  0.4008770000000  0.4896090000000  0.5426770000000 1.0
C      1  0.5459720000000  0.4235850000000  0.4477090000000 1.0
C      1  0.5447090000000  0.4251720000000  0.5567430000000 1.0
C      1  0.5468160000000  0.5309970000000  0.5886020000000 1.0
C      1  0.5445920000000  0.5946450000000  0.4990290000000 1.0
C      1  0.5448460000000  0.5260250000000  0.4099180000000 1.0
C      1  0.5005760000000  0.4508590000000  0.4787440000000 1.0
C      1  0.5007290000000  0.4651970000000  0.5428210000000 1.0
C      1  0.5021370000000  0.5263220000000  0.5469810000000 1.0
C      1  0.5004360000000  0.5550390000000  0.4834820000000 1.0
C      1  0.5005490000000  0.5023490000000  0.4454360000000 1.0
C      1  0.4434640000000  0.5117910000000  0.4498300000000 1.0
C      1  0.4444220000000  0.4553160000000  0.4704720000000 1.0
C      1  0.4445000000000  0.4582890000000  0.5335490000000 1.0
C      1  0.4450020000000  0.5192410000000  0.5494690000000 1.0
C      1  0.4439710000000  0.5512290000000  0.4951680000000 1.0
C      1  0.5257950000000  0.5041710000000  0.4018760000000 1.0
C      1  0.5279750000000  0.4086880000000  0.4672610000000 1.0
C      1  0.5258640000000  0.4380030000000  0.5765910000000 1.0
C      1  0.5284770000000  0.5542400000000  0.5813120000000 1.0
C      1  0.5260540000000  0.5971370000000  0.4754430000000 1.0
C      1  0.5845440000000  0.5516880000000  0.5621340000000 1.0
C      1  0.5827980000000  0.5750010000000  0.4687830000000 1.0
C      1  0.5828760000000  0.4921160000000  0.4219650000000 1.0
C      1  0.5836460000000  0.4239550000000  0.4809770000000 1.0
C      1  0.5831680000000  0.4588610000000  0.5689970000000 1.0
C      1  0.5897630000000  0.4638470000000  0.5314360000000 1.0
C      1  0.5905200000000  0.5180960000000  0.5445700000000 1.0
C      1  0.5903050000000  0.5485830000000  0.4957480000000 1.0
C      1  0.5881720000000  0.5116250000000  0.4544410000000 1.0
C      1  0.5879290000000  0.4613930000000  0.4746900000000 1.0
C      1  0.4242970000000  0.4743300000000  0.5001880000000 1.0
C      1  0.4246210000000  0.4950860000000  0.5247120000000 1.0
C      1  0.4218430000000  0.5237040000000  0.5120710000000 1.0
C      1  0.4160270000000  0.5186730000000  0.4839840000000 1.0
C      1  0.4204480000000  0.4916040000000  0.4743040000000 1.0
C      1  0.5454860000000  0.5787490000000  0.4316890000000 1.0
C      1  0.5460770000000  0.4585010000000  0.4047320000000 1.0
C      1  0.5439900000000  0.3941880000000  0.4940470000000 1.0
C      1  0.5458540000000  0.4761490000000  0.6033200000000 1.0
C      1  0.5439850000000  0.5827870000000  0.5671240000000 1.0
C      1  0.5399000000000  0.4738820000000  0.4686440000000 1.0
C      1  0.5417950000000  0.4599570000000  0.5184070000000 1.0
C      1  0.5431150000000  0.5037630000000  0.5439560000000 1.0
C      1  0.5426460000000  0.5440810000000  0.5097280000000 1.0
C      1  0.5391810000000  0.5238540000000  0.4625440000000 1.0
C      1  0.4291360000000  0.5779460000000  0.5315820000000 1.0
C      1  0.4279130000000  0.5545500000000  0.4350650000000 1.0
C      1  0.4279680000000  0.4552780000000  0.4294420000000 1.0
C      1  0.4282020000000  0.4193870000000  0.5201020000000 1.0
C      1  0.4280840000000  0.4949500000000  0.5824680000000 1.0
C      1  0.5137520000000  0.4803880000000  0.4822700000000 1.0
C      1  0.5155370000000  0.4768240000000  0.5169380000000 1.0
C      1  0.5183700000000  0.5061570000000  0.5285770000000 1.0
C      1  0.5217780000000  0.5237510000000  0.5057810000000 1.0
C      1  0.5143450000000  0.5135870000000  0.4783180000000 1.0
C      1  0.4862460000000  0.4734400000000  0.5955680000000 1.0
C      1  0.4895500000000  0.5810050000000  0.5523640000000 1.0
C      1  0.4871040000000  0.5760510000000  0.4370560000000 1.0
C      1  0.4868470000000  0.4645390000000  0.4075610000000 1.0
C      1  0.4892360000000  0.4024940000000  0.5053650000000 1.0
C      1  0.5204310000000  0.5685030000000  0.4644770000000 1.0
C      1  0.5198080000000  0.4863720000000  0.4270400000000 1.0
C      1  0.5197000000000  0.4301710000000  0.4896890000000 1.0
C      1  0.5198790000000  0.4675130000000  0.5678690000000 1.0
C      1  0.5208620000000  0.5501040000000  0.5505390000000 1.0
C      1  0.5454420000000  0.4783630000000  0.5574060000000 1.0
C      1  0.5472480000000  0.5469220000000  0.5385800000000 1.0
C      1  0.5448670000000  0.5526170000000  0.4675400000000 1.0
C      1  0.5443720000000  0.4852460000000  0.4426450000000 1.0
C      1  0.5456330000000  0.4408080000000  0.4966930000000 1.0
C      1  0.4096430000000  0.5650660000000  0.5107020000000 1.0
C      1  0.4094130000000  0.5300080000000  0.4417250000000 1.0
C      1  0.4089280000000  0.4543380000000  0.4536190000000 1.0
C      1  0.4092250000000  0.4426560000000  0.5282360000000 1.0
C      1  0.4091380000000  0.5097730000000  0.5631470000000 1.0
C      1  0.4281080000000  0.4659940000000  0.5734180000000 1.0
C      1  0.4293350000000  0.5597810000000  0.5557980000000 1.0
C      1  0.4282070000000  0.5722070000000  0.4598190000000 1.0
C      1  0.4276730000000  0.4839290000000  0.4196920000000 1.0
C      1  0.4286100000000  0.4192750000000  0.4898620000000 1.0
C      1  0.4990200000000  0.5277920000000  0.4291520000000 1.0
C      1  0.4999910000000  0.4415730000000  0.4497680000000 1.0
C      1  0.4989590000000  0.4354210000000  0.5406680000000 1.0
C      1  0.5008150000000  0.5169420000000  0.5759100000000 1.0
C      1  0.4988670000000  0.5758320000000  0.5043810000000 1.0
C      1  0.4525730000000  0.5113400000000  0.5797790000000 1.0
C      1  0.4522480000000  0.5764030000000  0.5132510000000 1.0
C      1  0.4512300000000  0.5368560000000  0.4297570000000 1.0
C      1  0.4523540000000  0.4432660000000  0.4413690000000 1.0
C      1  0.4523610000000  0.4273730000000  0.5351270000000 1.0
C      1  0.4066880000000  0.5400470000000  0.5531460000000 1.0
C      1  0.4058890000000  0.5639040000000  0.4780690000000 1.0
C      1  0.4052180000000  0.4987980000000  0.4330550000000 1.0
C      1  0.4061740000000  0.4370280000000  0.4803050000000 1.0
C      1  0.4059860000000  0.4624520000000  0.5531750000000 1.0
C      1  0.4778110000000  0.4950790000000  0.5760040000000 1.0
C      1  0.4781570000000  0.5683210000000  0.5269340000000 1.0
C      1  0.4772810000000  0.5471290000000  0.4411050000000 1.0
C      1  0.4777650000000  0.4585560000000  0.4358190000000 1.0
C      1  0.4779030000000  0.4272980000000  0.5188770000000 1.0
C      1  0.4739310000000  0.4878970000000  0.4476560000000 1.0
C      1  0.4739860000000  0.4473590000000  0.4939000000000 1.0
C      1  0.4735470000000  0.4779920000000  0.5487220000000 1.0
C      1  0.4752140000000  0.5375250000000  0.5355440000000 1.0
C      1  0.4744350000000  0.5456290000000  0.4723640000000 1.0
C      1  0.4708100000000  0.5184370000000  0.4841420000000 1.0
C      1  0.4706880000000  0.4907050000000  0.4767870000000 1.0
C      1  0.4685100000000  0.4754280000000  0.5007540000000 1.0
C      1  0.4688320000000  0.4929120000000  0.5232300000000 1.0
C      1  0.4692270000000  0.5195020000000  0.5129040000000 1.0
C      1  0.5639420000000  0.5643280000000  0.4490040000000 1.0
C      1  0.5630600000000  0.4708680000000  0.4258300000000 1.0
C      1  0.5632060000000  0.4172780000000  0.5004580000000 1.0
C      1  0.5638790000000  0.4786110000000  0.5798010000000 1.0
C      1  0.5642870000000  0.5683180000000  0.5495260000000 1.0
C      1  0.4523770000000  0.4172220000000  0.4707270000000 1.0
C      1  0.4513090000000  0.4463670000000  0.5697090000000 1.0
C      1  0.4534340000000  0.5499050000000  0.5718930000000 1.0
C      1  0.4522290000000  0.5832630000000  0.4744240000000 1.0
C      1  0.4512630000000  0.5015320000000  0.4128400000000 1.0
C      1  0.4993500000000  0.5462720000000  0.5890890000000 1.0
C      1  0.4969330000000  0.6005470000000  0.4839490000000 1.0
C      1  0.4973660000000  0.5146390000000  0.4008120000000 1.0
C      1  0.4988950000000  0.4102260000000  0.4558400000000 1.0
C      1  0.4973900000000  0.4290070000000  0.5714150000000 1.0
C      1  0.5649740000000  0.5101750000000  0.4744940000000 1.0
C      1  0.5649150000000  0.4790830000000  0.4845190000000 1.0
C      1  0.5667970000000  0.4781270000000  0.5166510000000 1.0
C      1  0.5673070000000  0.5089080000000  0.5268280000000 1.0
C      1  0.5675910000000  0.5283780000000  0.5003210000000 1.0
C      1  0.4770470000000  0.4466600000000  0.5848340000000 1.0
C      1  0.4796880000000  0.5638540000000  0.5753500000000 1.0
C      1  0.4774460000000  0.5932020000000  0.4614040000000 1.0
C      1  0.4770890000000  0.4924750000000  0.4005090000000 1.0
C      1  0.4788980000000  0.4038550000000  0.4767040000000 1.0
END
