TITL C-3577087-600-319 -1.37801355336113e-06 125000 -758.524202937849 0 0 121 (C1) n - 1
REM
REM in /home/bkarasulu/work/CARBON/AIRSS/Generating-Clusters/EDIP-Nigel-Params/with-SteepDescent/Higher-Symm/SD-CG/HFTN-CG
REM
REM
REM
REM
REM
REM ./C.cell (12c818d87b63d06a65506943cc24bca4)
REM
REM compiler GCC version 9.2.1 20190827 (Red Hat 9.2.1-1)
REM options -cpp -mtune=generic -march=x86-64 -g -O0 -fpre-include=/usr/include/finclude/math-vector-fortran.h
REM seed -1998342823 -1374516501 -1986997416 1733591251 -1996870505 -1101121772 -13270964 -1140168747 401555730 147383634 -697756504 445546604 2026437851 -923957707 -39774507 -820904351 355106696 1125866613 1550798962 404580746 484577213 1056550150 1624538194 -259102645 -1531224820 1324764314 1386587926 544900639 -1343448758 -1703084613 -1948585103 -1949899008 695310437
REM
CELL 1.54180   50.00000   50.00000   50.00000   90.00000   90.00000   90.00000
LATT -1
SFAC C  
C      1  0.4215710000000  0.5367230000000  0.5510820000000 1.0
C      1  0.5696590000000  0.5495590000000  0.5525530000000 1.0
C      1  0.5082850000000  0.4090140000000  0.5521850000000 1.0
C      1  0.5258250000000  0.4837400000000  0.5684110000000 1.0
C      1  0.4759950000000  0.4870070000000  0.5655950000000 1.0
C      1  0.5066120000000  0.5278400000000  0.5672310000000 1.0
C      1  0.4899320000000  0.5492780000000  0.4203110000000 1.0
C      1  0.5475120000000  0.4853240000000  0.4186270000000 1.0
C      1  0.4626930000000  0.4661250000000  0.4174440000000 1.0
C      1  0.4587870000000  0.4885990000000  0.4658380000000 1.0
C      1  0.5062460000000  0.5381000000000  0.4668050000000 1.0
C      1  0.5276200000000  0.4675390000000  0.4652970000000 1.0
C      1  0.5014140000000  0.4122590000000  0.4602030000000 1.0
C      1  0.4234910000000  0.5437480000000  0.4610340000000 1.0
C      1  0.5681070000000  0.5392270000000  0.4665990000000 1.0
C      1  0.5354520000000  0.4302080000000  0.5222950000000 1.0
C      1  0.4251680000000  0.5039180000000  0.5188760000000 1.0
C      1  0.5394080000000  0.5680470000000  0.5220110000000 1.0
C      1  0.5785380000000  0.5391720000000  0.5243140000000 1.0
C      1  0.4940090000000  0.4118850000000  0.5247680000000 1.0
C      1  0.4286810000000  0.5506460000000  0.5242260000000 1.0
C      1  0.5630070000000  0.4414540000000  0.5162710000000 1.0
C      1  0.4135050000000  0.4766990000000  0.5161180000000 1.0
C      1  0.5228970000000  0.5925920000000  0.5172630000000 1.0
C      1  0.4759230000000  0.5625020000000  0.5637130000000 1.0
C      1  0.5717720000000  0.4912960000000  0.5705570000000 1.0
C      1  0.4586360000000  0.4450000000000  0.5649950000000 1.0
C      1  0.5207010000000  0.4961120000000  0.4562440000000 1.0
C      1  0.4864050000000  0.4783730000000  0.4558120000000 1.0
C      1  0.4849120000000  0.5223490000000  0.4551260000000 1.0
C      1  0.4570610000000  0.5373010000000  0.5008770000000 1.0
C      1  0.5492460000000  0.5243610000000  0.5037360000000 1.0
C      1  0.4906150000000  0.4452550000000  0.5041000000000 1.0
C      1  0.5259640000000  0.5044180000000  0.4263410000000 1.0
C      1  0.4902250000000  0.4744210000000  0.4246650000000 1.0
C      1  0.4815420000000  0.5209940000000  0.4249570000000 1.0
C      1  0.5617270000000  0.5257120000000  0.4420370000000 1.0
C      1  0.4911860000000  0.4327030000000  0.4402400000000 1.0
C      1  0.4449440000000  0.5417680000000  0.4396970000000 1.0
C      1  0.5150050000000  0.5506870000000  0.4383930000000 1.0
C      1  0.5392680000000  0.4586340000000  0.4295010000000 1.0
C      1  0.4448170000000  0.4870650000000  0.4296970000000 1.0
C      1  0.5152660000000  0.5790000000000  0.4475280000000 1.0
C      1  0.5624670000000  0.4489160000000  0.4464810000000 1.0
C      1  0.4237300000000  0.4726470000000  0.4458020000000 1.0
C      1  0.5206000000000  0.4779220000000  0.5115110000000 1.0
C      1  0.4836510000000  0.5057390000000  0.5197150000000 1.0
C      1  0.5010650000000  0.4961170000000  0.4975660000000 1.0
C      1  0.4847320000000  0.5827130000000  0.4525850000000 1.0
C      1  0.5788680000000  0.4739440000000  0.4539540000000 1.0
C      1  0.4399020000000  0.4477250000000  0.4537340000000 1.0
C      1  0.5268140000000  0.4954680000000  0.5365790000000 1.0
C      1  0.4786090000000  0.4826790000000  0.5355290000000 1.0
C      1  0.5097100000000  0.5222590000000  0.5361050000000 1.0
C      1  0.4588920000000  0.4168820000000  0.4919050000000 1.0
C      1  0.4500320000000  0.5802530000000  0.4924990000000 1.0
C      1  0.5968600000000  0.5034160000000  0.4946380000000 1.0
C      1  0.5525410000000  0.5041100000000  0.5274940000000 1.0
C      1  0.4669590000000  0.4613250000000  0.5170000000000 1.0
C      1  0.4836790000000  0.5492180000000  0.5127960000000 1.0
C      1  0.5453960000000  0.5658010000000  0.5500040000000 1.0
C      1  0.5357020000000  0.4186290000000  0.5495430000000 1.0
C      1  0.4247420000000  0.5078960000000  0.5472720000000 1.0
C      1  0.5204990000000  0.5144820000000  0.4811000000000 1.0
C      1  0.4988830000000  0.4538660000000  0.4721350000000 1.0
C      1  0.4595260000000  0.5205620000000  0.4692030000000 1.0
C      1  0.4798720000000  0.5160650000000  0.5741310000000 1.0
C      1  0.5284970000000  0.5113690000000  0.5807760000000 1.0
C      1  0.4989440000000  0.4705050000000  0.5762230000000 1.0
C      1  0.5030190000000  0.5576650000000  0.5739080000000 1.0
C      1  0.5517220000000  0.4694530000000  0.5760300000000 1.0
C      1  0.4500850000000  0.4723490000000  0.5744110000000 1.0
C      1  0.5247130000000  0.4102300000000  0.5027440000000 1.0
C      1  0.4103030000000  0.5245380000000  0.5034110000000 1.0
C      1  0.5645360000000  0.5645470000000  0.5060840000000 1.0
C      1  0.5199150000000  0.5780500000000  0.5610560000000 1.0
C      1  0.5586860000000  0.4462680000000  0.5602040000000 1.0
C      1  0.4250410000000  0.4799470000000  0.5596740000000 1.0
C      1  0.4497780000000  0.4426440000000  0.5355470000000 1.0
C      1  0.4775200000000  0.5715510000000  0.5343010000000 1.0
C      1  0.5762770000000  0.4892660000000  0.5397220000000 1.0
C      1  0.5742730000000  0.5393360000000  0.5781390000000 1.0
C      1  0.4969430000000  0.4179840000000  0.5762600000000 1.0
C      1  0.4341550000000  0.5432920000000  0.5753270000000 1.0
C      1  0.4158970000000  0.5186700000000  0.4755500000000 1.0
C      1  0.5536310000000  0.5610600000000  0.4790660000000 1.0
C      1  0.5263220000000  0.4196540000000  0.4754910000000 1.0
C      1  0.4219520000000  0.4589610000000  0.5379740000000 1.0
C      1  0.5028820000000  0.5911030000000  0.5386480000000 1.0
C      1  0.5739360000000  0.4572030000000  0.5380040000000 1.0
C      1  0.5693820000000  0.4965680000000  0.4360570000000 1.0
C      1  0.4611740000000  0.4410390000000  0.4341350000000 1.0
C      1  0.4683230000000  0.5642790000000  0.4348210000000 1.0
C      1  0.4615320000000  0.5384790000000  0.5694240000000 1.0
C      1  0.5582750000000  0.5159720000000  0.5789770000000 1.0
C      1  0.4873860000000  0.4435730000000  0.5700400000000 1.0
C      1  0.4543920000000  0.5093230000000  0.5100990000000 1.0
C      1  0.5244090000000  0.5420690000000  0.5149930000000 1.0
C      1  0.5136920000000  0.4512540000000  0.5210720000000 1.0
C      1  0.4493880000000  0.4707990000000  0.4907040000000 1.0
C      1  0.4976330000000  0.5593780000000  0.4879130000000 1.0
C      1  0.5416130000000  0.4741800000000  0.4904020000000 1.0
C      1  0.4509960000000  0.5163510000000  0.4220590000000 1.0
C      1  0.5370260000000  0.5329510000000  0.4270190000000 1.0
C      1  0.5099970000000  0.4505890000000  0.4230400000000 1.0
C      1  0.5865420000000  0.5258750000000  0.4818470000000 1.0
C      1  0.4792990000000  0.4055420000000  0.4761890000000 1.0
C      1  0.4316590000000  0.5646420000000  0.4779480000000 1.0
C      1  0.4758260000000  0.5908580000000  0.4802560000000 1.0
C      1  0.5913700000000  0.4767940000000  0.4816750000000 1.0
C      1  0.4376460000000  0.4346690000000  0.4805160000000 1.0
C      1  0.5134010000000  0.5948080000000  0.4900520000000 1.0
C      1  0.5634060000000  0.4541980000000  0.4903760000000 1.0
C      1  0.4182510000000  0.4671170000000  0.4895720000000 1.0
C      1  0.4487320000000  0.5749080000000  0.5216530000000 1.0
C      1  0.5958260000000  0.5095360000000  0.5240880000000 1.0
C      1  0.4632220000000  0.4169190000000  0.5210710000000 1.0
C      1  0.5542960000000  0.4325920000000  0.4699450000000 1.0
C      1  0.4121440000000  0.4884410000000  0.4685720000000 1.0
C      1  0.5321590000000  0.5814680000000  0.4712540000000 1.0
C      1  0.4995950000000  0.5003470000000  0.4130770000000 1.0
END
