TITL C-3577078-809-67 -4.55187005828454e-06 125000 -569.47147690904 0 0 92 (C1) n - 1
REM
REM in /home/bkarasulu/work/CARBON/AIRSS/Generating-Clusters/EDIP-Nigel-Params/with-SteepDescent/Higher-Symm/SD-CG/HFTN-CG
REM
REM
REM
REM
REM
REM ./C.cell (12c818d87b63d06a65506943cc24bca4)
REM
REM compiler GCC version 9.2.1 20190827 (Red Hat 9.2.1-1)
REM options -cpp -mtune=generic -march=x86-64 -g -O0 -fpre-include=/usr/include/finclude/math-vector-fortran.h
REM seed 1195110723 -2072660074 -1736074704 2042606740 1698244219 1019209424 1248060551 536268776 -717334162 -247281669 -1952813415 2113370539 86912430 534873893 -1472409716 -1656630047 1154316981 1747479056 1000238203 -47513146 -565282667 -2095500824 -1128310657 -1854098852 -430680952 -1975268334 -1835004709 -104670888 2052412062 328228278 -1950231581 -1067073604 1054684083
REM
CELL 1.54180   50.00000   50.00000   50.00000   90.00000   90.00000   90.00000
LATT -1
SFAC C  
C      1  0.5399520000000  0.4699930000000  0.5640300000000 1.0
C      1  0.5427920000000  0.4307910000000  0.5048310000000 1.0
C      1  0.5439500000000  0.4598800000000  0.4397500000000 1.0
C      1  0.5448370000000  0.5308190000000  0.4331890000000 1.0
C      1  0.5454910000000  0.5709760000000  0.4938330000000 1.0
C      1  0.5402920000000  0.5414060000000  0.5587240000000 1.0
C      1  0.4502220000000  0.4647910000000  0.5648140000000 1.0
C      1  0.4528400000000  0.4281760000000  0.5036120000000 1.0
C      1  0.4543570000000  0.4600600000000  0.4401540000000 1.0
C      1  0.4546880000000  0.5306930000000  0.4375700000000 1.0
C      1  0.4572470000000  0.5699960000000  0.4970390000000 1.0
C      1  0.4576770000000  0.5361210000000  0.5607620000000 1.0
C      1  0.5474740000000  0.4546340000000  0.4875140000000 1.0
C      1  0.5490980000000  0.4864300000000  0.4507930000000 1.0
C      1  0.5542790000000  0.5352640000000  0.4606440000000 1.0
C      1  0.5476340000000  0.5484250000000  0.5122200000000 1.0
C      1  0.5454530000000  0.5146000000000  0.5468930000000 1.0
C      1  0.5451070000000  0.4675030000000  0.5351770000000 1.0
C      1  0.4478320000000  0.4517080000000  0.4870660000000 1.0
C      1  0.4509390000000  0.4861080000000  0.4531420000000 1.0
C      1  0.4515050000000  0.5322680000000  0.4671420000000 1.0
C      1  0.4539230000000  0.5459640000000  0.5135680000000 1.0
C      1  0.4490240000000  0.5106130000000  0.5486700000000 1.0
C      1  0.4357400000000  0.4579770000000  0.5403210000000 1.0
C      1  0.5185880000000  0.5447880000000  0.4315450000000 1.0
C      1  0.5210390000000  0.5852470000000  0.5035610000000 1.0
C      1  0.5120540000000  0.5388310000000  0.5713250000000 1.0
C      1  0.5155110000000  0.4531980000000  0.5688810000000 1.0
C      1  0.5174220000000  0.4185660000000  0.4942500000000 1.0
C      1  0.5180060000000  0.4631820000000  0.4253670000000 1.0
C      1  0.4797470000000  0.5459570000000  0.4318210000000 1.0
C      1  0.4823250000000  0.5828190000000  0.5063650000000 1.0
C      1  0.4763270000000  0.5298760000000  0.5821430000000 1.0
C      1  0.4766850000000  0.4513630000000  0.5676100000000 1.0
C      1  0.4786080000000  0.4170440000000  0.4932130000000 1.0
C      1  0.4792000000000  0.4633900000000  0.4241350000000 1.0
C      1  0.5475120000000  0.5636580000000  0.4658700000000 1.0
C      1  0.5460550000000  0.5616050000000  0.5384240000000 1.0
C      1  0.5401080000000  0.4980550000000  0.5709980000000 1.0
C      1  0.5435850000000  0.4381140000000  0.5327230000000 1.0
C      1  0.5454110000000  0.4405870000000  0.4611920000000 1.0
C      1  0.5456060000000  0.5027120000000  0.4266800000000 1.0
C      1  0.4544230000000  0.5620500000000  0.4694650000000 1.0
C      1  0.4589570000000  0.5567290000000  0.5402830000000 1.0
C      1  0.4485220000000  0.4926360000000  0.5722690000000 1.0
C      1  0.4506530000000  0.4342750000000  0.5316170000000 1.0
C      1  0.4524590000000  0.4397860000000  0.4603280000000 1.0
C      1  0.4525020000000  0.5032120000000  0.4290650000000 1.0
C      1  0.5221250000000  0.5677000000000  0.4520290000000 1.0
C      1  0.5245190000000  0.5811350000000  0.5345950000000 1.0
C      1  0.5144860000000  0.5076010000000  0.5810290000000 1.0
C      1  0.5193620000000  0.4307210000000  0.5474690000000 1.0
C      1  0.5209220000000  0.4244770000000  0.4637160000000 1.0
C      1  0.5206060000000  0.4926980000000  0.4155030000000 1.0
C      1  0.4779060000000  0.5685530000000  0.4531280000000 1.0
C      1  0.4803810000000  0.5764680000000  0.5363540000000 1.0
C      1  0.4714760000000  0.5012820000000  0.5885050000000 1.0
C      1  0.4751220000000  0.4297760000000  0.5463830000000 1.0
C      1  0.4767630000000  0.4241040000000  0.4631760000000 1.0
C      1  0.4764590000000  0.4931480000000  0.4155200000000 1.0
C      1  0.4806210000000  0.5268120000000  0.5078220000000 1.0
C      1  0.4722400000000  0.5028350000000  0.5269790000000 1.0
C      1  0.4891200000000  0.4762420000000  0.5225940000000 1.0
C      1  0.4723070000000  0.4723610000000  0.4943640000000 1.0
C      1  0.4815050000000  0.4913090000000  0.4710590000000 1.0
C      1  0.4754370000000  0.5190880000000  0.4796610000000 1.0
C      1  0.5140040000000  0.5292150000000  0.5079630000000 1.0
C      1  0.5228270000000  0.5089670000000  0.5274120000000 1.0
C      1  0.5190610000000  0.4803900000000  0.5197250000000 1.0
C      1  0.5237340000000  0.4725150000000  0.4913640000000 1.0
C      1  0.5155530000000  0.4914870000000  0.4704260000000 1.0
C      1  0.5259310000000  0.5182400000000  0.4813520000000 1.0
C      1  0.5723490000000  0.5094910000000  0.5327390000000 1.0
C      1  0.5709210000000  0.4805450000000  0.5238870000000 1.0
C      1  0.5720570000000  0.4729560000000  0.4925960000000 1.0
C      1  0.5763560000000  0.4901140000000  0.4652400000000 1.0
C      1  0.5797430000000  0.5203200000000  0.4708210000000 1.0
C      1  0.5701710000000  0.5279770000000  0.5081860000000 1.0
C      1  0.4231600000000  0.5092810000000  0.5316920000000 1.0
C      1  0.4229590000000  0.4783870000000  0.5211790000000 1.0
C      1  0.4216460000000  0.4681330000000  0.4909380000000 1.0
C      1  0.4256510000000  0.4905890000000  0.4708140000000 1.0
C      1  0.4272550000000  0.5193890000000  0.4807490000000 1.0
C      1  0.4276900000000  0.5293690000000  0.5095240000000 1.0
C      1  0.5037350000000  0.5709580000000  0.5516480000000 1.0
C      1  0.5007620000000  0.5764060000000  0.4710130000000 1.0
C      1  0.4949980000000  0.4842220000000  0.5815910000000 1.0
C      1  0.4987700000000  0.5129580000000  0.4192210000000 1.0
C      1  0.4978740000000  0.4225280000000  0.5282230000000 1.0
C      1  0.4989400000000  0.4369190000000  0.4474800000000 1.0
C      1  0.4515710000000  0.4928490000000  0.5059730000000 1.0
C      1  0.5516870000000  0.5067120000000  0.4941690000000 1.0
END
