TITL C-3578209-2550-719 -2.33026816348814e-07 125000 -188.543512796882 0 0 31 (C1) n - 1
REM
REM in /home/bkarasulu/work/CARBON/AIRSS/Generating-Clusters/EDIP-Nigel-Params/with-SteepDescent/Higher-Symm/SD-CG/HFTN-CG
REM
REM
REM
REM
REM
REM ./C.cell (12c818d87b63d06a65506943cc24bca4)
REM
REM compiler GCC version 9.2.1 20190827 (Red Hat 9.2.1-1)
REM options -cpp -mtune=generic -march=x86-64 -g -O0 -fpre-include=/usr/include/finclude/math-vector-fortran.h
REM seed 456698091 1162092894 -205884681 1638272670 993006511 -2121907849 1099462082 2068513840 2118251903 -1030160504 1992410000 -1325155598 -1687311202 -1294461372 1058050400 1378284661 1300197150 951272648 -112072254 1529308508 -1724262735 -1619208277 -154457552 2017872221 670330055 -427235955 2135493678 -1185077053 1938397014 937679853 1092231339 -1270079735 -62064751
REM
CELL 1.54180   50.00000   50.00000   50.00000   90.00000   90.00000   90.00000
LATT -1
SFAC C  
C      1  0.5327440000000  0.5241770000000  0.4692820000000 1.0
C      1  0.4684350000000  0.4803990000000  0.4664020000000 1.0
C      1  0.5312970000000  0.4764480000000  0.5262090000000 1.0
C      1  0.4661890000000  0.5258680000000  0.5395790000000 1.0
C      1  0.5162770000000  0.4685310000000  0.4702480000000 1.0
C      1  0.4838800000000  0.5371150000000  0.4669540000000 1.0
C      1  0.5177280000000  0.5350440000000  0.5330400000000 1.0
C      1  0.4817620000000  0.4634400000000  0.5313200000000 1.0
C      1  0.5350940000000  0.4522670000000  0.5123910000000 1.0
C      1  0.4641190000000  0.5434010000000  0.5153920000000 1.0
C      1  0.5338370000000  0.5456590000000  0.4876980000000 1.0
C      1  0.4654740000000  0.4588310000000  0.4843630000000 1.0
C      1  0.4498240000000  0.5009440000000  0.5291820000000 1.0
C      1  0.5509810000000  0.4983000000000  0.5235590000000 1.0
C      1  0.4511230000000  0.5035020000000  0.4729970000000 1.0
C      1  0.5507980000000  0.5011430000000  0.4738210000000 1.0
C      1  0.4864730000000  0.5442070000000  0.4964230000000 1.0
C      1  0.5131420000000  0.4516780000000  0.4941930000000 1.0
C      1  0.4845230000000  0.4510990000000  0.5041120000000 1.0
C      1  0.5134910000000  0.5482520000000  0.5070400000000 1.0
C      1  0.5054150000000  0.5172580000000  0.4585520000000 1.0
C      1  0.4965240000000  0.4908790000000  0.4722950000000 1.0
C      1  0.5024100000000  0.4848080000000  0.5276880000000 1.0
C      1  0.4956100000000  0.5153620000000  0.5384360000000 1.0
C      1  0.4582720000000  0.5271380000000  0.4594940000000 1.0
C      1  0.5422110000000  0.4766170000000  0.4634560000000 1.0
C      1  0.4571750000000  0.4752920000000  0.5377450000000 1.0
C      1  0.5426840000000  0.5225450000000  0.5348480000000 1.0
C      1  0.4627240000000  0.5074330000000  0.5010700000000 1.0
C      1  0.5638460000000  0.5001670000000  0.4986480000000 1.0
C      1  0.4931480000000  0.5013330000000  0.5020170000000 1.0
END
