TITL C-3577086-586-149 3.13521184511485e-07 125000 -733.739175854114 0 0 120 (C1) n - 1
REM
REM in /home/bkarasulu/work/CARBON/AIRSS/Generating-Clusters/EDIP-Nigel-Params/with-SteepDescent/Higher-Symm/SD-CG/HFTN-CG
REM
REM
REM
REM
REM
REM ./C.cell (12c818d87b63d06a65506943cc24bca4)
REM
REM compiler GCC version 9.2.1 20190827 (Red Hat 9.2.1-1)
REM options -cpp -mtune=generic -march=x86-64 -g -O0 -fpre-include=/usr/include/finclude/math-vector-fortran.h
REM seed 588590428 1504035102 128046864 -2141258522 139886928 1266535645 746452747 1729710845 818634646 -552881664 -1179558768 207224536 1883605193 1768116999 -553636301 -971107432 -1869292274 -1671479636 1340303138 -345283526 273335749 -621823440 982821190 51207119 825275129 308590894 -1979863747 1429508718 -1390464288 617838189 842041974 -1424311325 -866058042
REM
CELL 1.54180   50.00000   50.00000   50.00000   90.00000   90.00000   90.00000
LATT -1
SFAC C  
C      1  0.5484460000000  0.5405330000000  0.5806240000000 1.0
C      1  0.5453540000000  0.5402020000000  0.4179960000000 1.0
C      1  0.4061080000000  0.5405830000000  0.5017130000000 1.0
C      1  0.5420360000000  0.4205650000000  0.4425130000000 1.0
C      1  0.4287390000000  0.4209610000000  0.4922930000000 1.0
C      1  0.5287770000000  0.4209250000000  0.5654900000000 1.0
C      1  0.4355440000000  0.4243870000000  0.5216070000000 1.0
C      1  0.5507820000000  0.4243290000000  0.5449600000000 1.0
C      1  0.5133340000000  0.4241170000000  0.4335160000000 1.0
C      1  0.5208230000000  0.5860920000000  0.5548890000000 1.0
C      1  0.5370860000000  0.5864090000000  0.4548670000000 1.0
C      1  0.4420590000000  0.5860740000000  0.4905290000000 1.0
C      1  0.4685480000000  0.5433020000000  0.4197300000000 1.0
C      1  0.4464070000000  0.5436560000000  0.5674490000000 1.0
C      1  0.5854720000000  0.5438820000000  0.5130860000000 1.0
C      1  0.5059810000000  0.5910670000000  0.4538710000000 1.0
C      1  0.4570750000000  0.5909470000000  0.5178200000000 1.0
C      1  0.5370940000000  0.5910410000000  0.5283820000000 1.0
C      1  0.5752540000000  0.4461680000000  0.4963440000000 1.0
C      1  0.4589320000000  0.4458860000000  0.4365820000000 1.0
C      1  0.4653170000000  0.4461180000000  0.5670780000000 1.0
C      1  0.4646750000000  0.5590760000000  0.4610680000000 1.0
C      1  0.4841080000000  0.5590050000000  0.5499400000000 1.0
C      1  0.5511780000000  0.5592610000000  0.4896610000000 1.0
C      1  0.4690030000000  0.4800420000000  0.5227390000000 1.0
C      1  0.5354240000000  0.4801170000000  0.5154080000000 1.0
C      1  0.4960640000000  0.4802980000000  0.4615050000000 1.0
C      1  0.5111740000000  0.5320620000000  0.5683120000000 1.0
C      1  0.5538420000000  0.5329030000000  0.4564770000000 1.0
C      1  0.4353680000000  0.5320640000000  0.4755260000000 1.0
C      1  0.4160370000000  0.4461280000000  0.4826850000000 1.0
C      1  0.5268090000000  0.4460440000000  0.5813360000000 1.0
C      1  0.5567080000000  0.4456120000000  0.4364670000000 1.0
C      1  0.5079150000000  0.5409840000000  0.4674940000000 1.0
C      1  0.4681630000000  0.5407400000000  0.5093210000000 1.0
C      1  0.5241500000000  0.5406150000000  0.5230630000000 1.0
C      1  0.4453760000000  0.4756920000000  0.4575230000000 1.0
C      1  0.4905670000000  0.4756100000000  0.5685570000000 1.0
C      1  0.5642520000000  0.4758910000000  0.4737520000000 1.0
C      1  0.5822240000000  0.5274920000000  0.4901320000000 1.0
C      1  0.4500620000000  0.5270850000000  0.4340040000000 1.0
C      1  0.4678170000000  0.5270660000000  0.5761010000000 1.0
C      1  0.4641170000000  0.4210500000000  0.5235670000000 1.0
C      1  0.5382550000000  0.4209300000000  0.5192160000000 1.0
C      1  0.4973370000000  0.4206860000000  0.4572390000000 1.0
C      1  0.4309530000000  0.5017590000000  0.4451480000000 1.0
C      1  0.4870090000000  0.5016880000000  0.5871920000000 1.0
C      1  0.5822400000000  0.5022120000000  0.4676220000000 1.0
C      1  0.5809810000000  0.5123570000000  0.4395120000000 1.0
C      1  0.4072580000000  0.5110850000000  0.4605280000000 1.0
C      1  0.5121410000000  0.5110140000000  0.6000980000000 1.0
C      1  0.4864670000000  0.5952860000000  0.5181100000000 1.0
C      1  0.5228060000000  0.5957420000000  0.5029310000000 1.0
C      1  0.4907810000000  0.5953450000000  0.4789170000000 1.0
C      1  0.4157870000000  0.5345270000000  0.5309630000000 1.0
C      1  0.5689470000000  0.5345020000000  0.5576940000000 1.0
C      1  0.5157250000000  0.5347790000000  0.4111940000000 1.0
C      1  0.4114200000000  0.4924160000000  0.5083120000000 1.0
C      1  0.5515160000000  0.4923080000000  0.5726590000000 1.0
C      1  0.5376630000000  0.4928330000000  0.4231750000000 1.0
C      1  0.5336780000000  0.4733790000000  0.4868330000000 1.0
C      1  0.4722140000000  0.4733030000000  0.4773970000000 1.0
C      1  0.4945960000000  0.4732490000000  0.5354890000000 1.0
C      1  0.5635620000000  0.4505020000000  0.5482320000000 1.0
C      1  0.5097800000000  0.4504660000000  0.4209890000000 1.0
C      1  0.4263440000000  0.4505870000000  0.5310130000000 1.0
C      1  0.4687930000000  0.4242060000000  0.4548970000000 1.0
C      1  0.4763630000000  0.4244400000000  0.5494530000000 1.0
C      1  0.5546010000000  0.4242890000000  0.4956760000000 1.0
C      1  0.5164690000000  0.4446650000000  0.4890120000000 1.0
C      1  0.4824160000000  0.4447370000000  0.4911020000000 1.0
C      1  0.5011390000000  0.4447510000000  0.5195800000000 1.0
C      1  0.5427170000000  0.5616220000000  0.5347590000000 1.0
C      1  0.5088750000000  0.5617740000000  0.4455260000000 1.0
C      1  0.4486790000000  0.5616130000000  0.5195310000000 1.0
C      1  0.5516460000000  0.5606930000000  0.4417700000000 1.0
C      1  0.4239450000000  0.5600270000000  0.4843340000000 1.0
C      1  0.5245270000000  0.5600430000000  0.5737270000000 1.0
C      1  0.4642030000000  0.5849630000000  0.4713160000000 1.0
C      1  0.4931810000000  0.5848810000000  0.5451150000000 1.0
C      1  0.5424500000000  0.5850060000000  0.4836940000000 1.0
C      1  0.5451500000000  0.4644640000000  0.5668390000000 1.0
C      1  0.5359280000000  0.4640490000000  0.4257220000000 1.0
C      1  0.4195000000000  0.4645410000000  0.5057710000000 1.0
C      1  0.5120910000000  0.5071320000000  0.4222520000000 1.0
C      1  0.4307990000000  0.5093310000000  0.5231980000000 1.0
C      1  0.5548120000000  0.5092910000000  0.5484720000000 1.0
C      1  0.5248720000000  0.5176730000000  0.4574140000000 1.0
C      1  0.4506210000000  0.5173330000000  0.5005700000000 1.0
C      1  0.5253060000000  0.5172530000000  0.5426120000000 1.0
C      1  0.5124660000000  0.4077490000000  0.4778940000000 1.0
C      1  0.4743600000000  0.4079280000000  0.5002480000000 1.0
C      1  0.5128570000000  0.4078830000000  0.5220680000000 1.0
C      1  0.4681230000000  0.5132080000000  0.4531200000000 1.0
C      1  0.4754590000000  0.5131020000000  0.5509870000000 1.0
C      1  0.5568440000000  0.5131990000000  0.4959100000000 1.0
C      1  0.5723310000000  0.5539710000000  0.5360870000000 1.0
C      1  0.4949210000000  0.5537870000000  0.4194760000000 1.0
C      1  0.4329480000000  0.5539140000000  0.5446840000000 1.0
C      1  0.4693940000000  0.4937660000000  0.4981380000000 1.0
C      1  0.5138980000000  0.4937250000000  0.5274900000000 1.0
C      1  0.5170730000000  0.4940250000000  0.4742850000000 1.0
C      1  0.4552240000000  0.4130030000000  0.4789850000000 1.0
C      1  0.5039610000000  0.4130410000000  0.5492420000000 1.0
C      1  0.5404970000000  0.4126110000000  0.4720270000000 1.0
C      1  0.4787210000000  0.5362910000000  0.4717280000000 1.0
C      1  0.4862640000000  0.5361510000000  0.5325770000000 1.0
C      1  0.5351360000000  0.5360630000000  0.4957250000000 1.0
C      1  0.5407560000000  0.5119430000000  0.5930350000000 1.0
C      1  0.5598140000000  0.5118770000000  0.4190390000000 1.0
C      1  0.3991210000000  0.5120370000000  0.4888460000000 1.0
C      1  0.4816520000000  0.4633210000000  0.4233810000000 1.0
C      1  0.4424920000000  0.4634850000000  0.5538240000000 1.0
C      1  0.5754630000000  0.4633230000000  0.5228670000000 1.0
C      1  0.5611180000000  0.4934800000000  0.5215780000000 1.0
C      1  0.4875780000000  0.4925520000000  0.4359700000000 1.0
C      1  0.4509520000000  0.4934250000000  0.5419550000000 1.0
C      1  0.4989150000000  0.4529640000000  0.5850650000000 1.0
C      1  0.5742140000000  0.4532100000000  0.4583100000000 1.0
C      1  0.4267010000000  0.4531520000000  0.4566810000000 1.0
END
