TITL C-3577076-40-5 -1.52101030675482e-06 125000 -1075.08770098113 0 0 171 (C1) n - 1
REM
REM in /home/bkarasulu/work/CARBON/AIRSS/Generating-Clusters/EDIP-Nigel-Params/with-SteepDescent/Higher-Symm/SD-CG/HFTN-CG
REM
REM
REM
REM
REM
REM ./C.cell (12c818d87b63d06a65506943cc24bca4)
REM
REM compiler GCC version 9.2.1 20190827 (Red Hat 9.2.1-1)
REM options -cpp -mtune=generic -march=x86-64 -g -O0 -fpre-include=/usr/include/finclude/math-vector-fortran.h
REM seed -2109660054 -244457840 -940246637 844819621 -857818854 -927921800 725047233 289563880 -819207032 -1310149623 2050129095 -1478781332 1764468109 373306207 25260034 58129247 161020655 1057514544 -2052235447 1236440824 -1485039198 776935885 991142069 252947608 2093593383 -1638937206 -1982483925 623791717 1216470688 1240861630 33020051 -384879617 380530956
REM
CELL 1.54180   50.00000   50.00000   50.00000   90.00000   90.00000   90.00000
LATT -1
SFAC C  
C      1  0.5582190000000  0.4483790000000  0.4238120000000 1.0
C      1  0.4325080000000  0.4801200000000  0.4290040000000 1.0
C      1  0.5180440000000  0.5588000000000  0.4245860000000 1.0
C      1  0.4409280000000  0.4515030000000  0.4312900000000 1.0
C      1  0.5672980000000  0.4771590000000  0.4196860000000 1.0
C      1  0.4869370000000  0.5607220000000  0.4278660000000 1.0
C      1  0.4783490000000  0.6076870000000  0.5475670000000 1.0
C      1  0.5975890000000  0.4598770000000  0.5335500000000 1.0
C      1  0.4145360000000  0.4337370000000  0.5297810000000 1.0
C      1  0.5072020000000  0.6065710000000  0.5465890000000 1.0
C      1  0.3994200000000  0.4584140000000  0.5314920000000 1.0
C      1  0.5833000000000  0.4351400000000  0.5318780000000 1.0
C      1  0.4885130000000  0.5926000000000  0.4502400000000 1.0
C      1  0.5978970000000  0.4529130000000  0.4558770000000 1.0
C      1  0.4283650000000  0.4429150000000  0.4578270000000 1.0
C      1  0.5152700000000  0.5920240000000  0.4419410000000 1.0
C      1  0.4070700000000  0.4567200000000  0.4687290000000 1.0
C      1  0.5762840000000  0.4377050000000  0.4469150000000 1.0
C      1  0.5201960000000  0.5891310000000  0.5650470000000 1.0
C      1  0.5587750000000  0.4328270000000  0.5458800000000 1.0
C      1  0.4089250000000  0.4787750000000  0.5489010000000 1.0
C      1  0.4645850000000  0.5930660000000  0.5684300000000 1.0
C      1  0.4383590000000  0.4309060000000  0.5449720000000 1.0
C      1  0.5866250000000  0.4799640000000  0.5503280000000 1.0
C      1  0.5491340000000  0.5976360000000  0.5288620000000 1.0
C      1  0.5594890000000  0.4054400000000  0.5091750000000 1.0
C      1  0.3840380000000  0.4964830000000  0.5145380000000 1.0
C      1  0.4385950000000  0.5983810000000  0.5303430000000 1.0
C      1  0.4404040000000  0.4041900000000  0.5091670000000 1.0
C      1  0.6099370000000  0.4972830000000  0.5129160000000 1.0
C      1  0.5588870000000  0.4925480000000  0.3959550000000 1.0
C      1  0.4637420000000  0.4420860000000  0.4106770000000 1.0
C      1  0.4704170000000  0.5492260000000  0.4042200000000 1.0
C      1  0.4384680000000  0.4984390000000  0.4070480000000 1.0
C      1  0.5329850000000  0.4387730000000  0.4057810000000 1.0
C      1  0.5317760000000  0.5462240000000  0.4001330000000 1.0
C      1  0.4874970000000  0.4354920000000  0.5025600000000 1.0
C      1  0.4436180000000  0.5738260000000  0.5131400000000 1.0
C      1  0.5653110000000  0.5072350000000  0.4940340000000 1.0
C      1  0.5184190000000  0.4380440000000  0.5059340000000 1.0
C      1  0.5501630000000  0.5709670000000  0.5093870000000 1.0
C      1  0.4408590000000  0.5142700000000  0.4989520000000 1.0
C      1  0.5539460000000  0.4367300000000  0.4665170000000 1.0
C      1  0.4152280000000  0.4832020000000  0.4762760000000 1.0
C      1  0.5341360000000  0.5786230000000  0.4608950000000 1.0
C      1  0.4510290000000  0.4418480000000  0.4752640000000 1.0
C      1  0.5901290000000  0.4792090000000  0.4651270000000 1.0
C      1  0.4798750000000  0.5748250000000  0.4722500000000 1.0
C      1  0.4263850000000  0.5602090000000  0.5616550000000 1.0
C      1  0.5846190000000  0.5267390000000  0.5548820000000 1.0
C      1  0.4815450000000  0.4065150000000  0.5473660000000 1.0
C      1  0.5627720000000  0.5662960000000  0.5649660000000 1.0
C      1  0.4071050000000  0.5265060000000  0.5574960000000 1.0
C      1  0.5191770000000  0.4040750000000  0.5504970000000 1.0
C      1  0.5918450000000  0.5049680000000  0.5377290000000 1.0
C      1  0.4568560000000  0.4126690000000  0.5327430000000 1.0
C      1  0.4371590000000  0.5881360000000  0.5584350000000 1.0
C      1  0.4009300000000  0.5045580000000  0.5392100000000 1.0
C      1  0.5417790000000  0.4130590000000  0.5334760000000 1.0
C      1  0.5481660000000  0.5897030000000  0.5577460000000 1.0
C      1  0.4847740000000  0.4221240000000  0.5718720000000 1.0
C      1  0.4360270000000  0.5465070000000  0.5866990000000 1.0
C      1  0.5673450000000  0.5239620000000  0.5783940000000 1.0
C      1  0.5133450000000  0.4205210000000  0.5752000000000 1.0
C      1  0.5535630000000  0.5483030000000  0.5854530000000 1.0
C      1  0.4236320000000  0.5208020000000  0.5810860000000 1.0
C      1  0.5765370000000  0.5661010000000  0.4605980000000 1.0
C      1  0.5251570000000  0.3981930000000  0.4687860000000 1.0
C      1  0.3996970000000  0.5277580000000  0.4691060000000 1.0
C      1  0.4318640000000  0.5698800000000  0.4704490000000 1.0
C      1  0.4740270000000  0.3989170000000  0.4692460000000 1.0
C      1  0.6017600000000  0.5257620000000  0.4662370000000 1.0
C      1  0.5107750000000  0.5294460000000  0.5609910000000 1.0
C      1  0.5121810000000  0.4799890000000  0.5520280000000 1.0
C      1  0.4638130000000  0.5030460000000  0.5474900000000 1.0
C      1  0.4807900000000  0.5234080000000  0.5645630000000 1.0
C      1  0.4838540000000  0.4819030000000  0.5368300000000 1.0
C      1  0.5290180000000  0.5070320000000  0.5552330000000 1.0
C      1  0.5866120000000  0.5287640000000  0.4926030000000 1.0
C      1  0.4836370000000  0.4047350000000  0.4984420000000 1.0
C      1  0.4190790000000  0.5614770000000  0.4967470000000 1.0
C      1  0.4144570000000  0.5316770000000  0.4956960000000 1.0
C      1  0.5170240000000  0.4042820000000  0.4979720000000 1.0
C      1  0.5746450000000  0.5575620000000  0.4896250000000 1.0
C      1  0.4468020000000  0.4509960000000  0.5632670000000 1.0
C      1  0.4787830000000  0.5736410000000  0.5876320000000 1.0
C      1  0.5647210000000  0.4755130000000  0.5687130000000 1.0
C      1  0.5515890000000  0.4502210000000  0.5676150000000 1.0
C      1  0.5088340000000  0.5730050000000  0.5866520000000 1.0
C      1  0.4330810000000  0.4756660000000  0.5636920000000 1.0
C      1  0.4700160000000  0.4967000000000  0.4445780000000 1.0
C      1  0.5162500000000  0.5147900000000  0.4270000000000 1.0
C      1  0.5157870000000  0.4681590000000  0.4343370000000 1.0
C      1  0.5319060000000  0.4930090000000  0.4387940000000 1.0
C      1  0.4868050000000  0.5164110000000  0.4285170000000 1.0
C      1  0.4841930000000  0.4702050000000  0.4385460000000 1.0
C      1  0.5178270000000  0.5182000000000  0.3969450000000 1.0
C      1  0.5163750000000  0.4646760000000  0.4022370000000 1.0
C      1  0.4661000000000  0.4941970000000  0.3961810000000 1.0
C      1  0.4820390000000  0.5204650000000  0.3991360000000 1.0
C      1  0.4803720000000  0.4674730000000  0.4069780000000 1.0
C      1  0.5301690000000  0.4900070000000  0.3899390000000 1.0
C      1  0.5421720000000  0.5121820000000  0.5104860000000 1.0
C      1  0.4939420000000  0.4944910000000  0.5116710000000 1.0
C      1  0.5043820000000  0.5453090000000  0.5125390000000 1.0
C      1  0.4850970000000  0.5227910000000  0.5140400000000 1.0
C      1  0.5239570000000  0.4873940000000  0.5098880000000 1.0
C      1  0.5276730000000  0.5343360000000  0.4981250000000 1.0
C      1  0.4130690000000  0.4125430000000  0.5116200000000 1.0
C      1  0.4600560000000  0.6173800000000  0.5284190000000 1.0
C      1  0.6172870000000  0.4696960000000  0.5161590000000 1.0
C      1  0.5860680000000  0.4154420000000  0.5123490000000 1.0
C      1  0.5255380000000  0.6141720000000  0.5262470000000 1.0
C      1  0.3784760000000  0.4682940000000  0.5156400000000 1.0
C      1  0.4887040000000  0.5282590000000  0.4706540000000 1.0
C      1  0.5319310000000  0.4989360000000  0.4662260000000 1.0
C      1  0.4793670000000  0.4827570000000  0.4890850000000 1.0
C      1  0.5199230000000  0.5267360000000  0.4709170000000 1.0
C      1  0.4696120000000  0.5052970000000  0.4736570000000 1.0
C      1  0.5276810000000  0.4753470000000  0.4838600000000 1.0
C      1  0.4491000000000  0.4115010000000  0.4811590000000 1.0
C      1  0.4545570000000  0.5840160000000  0.4836860000000 1.0
C      1  0.6104300000000  0.4998320000000  0.4793980000000 1.0
C      1  0.5518300000000  0.4081550000000  0.4788340000000 1.0
C      1  0.5610920000000  0.5893640000000  0.4574710000000 1.0
C      1  0.3919560000000  0.5017940000000  0.4840910000000 1.0
C      1  0.5287820000000  0.4430410000000  0.4495210000000 1.0
C      1  0.4321660000000  0.4963140000000  0.4537770000000 1.0
C      1  0.5342940000000  0.5483180000000  0.4499630000000 1.0
C      1  0.4726330000000  0.4454160000000  0.4540140000000 1.0
C      1  0.5703680000000  0.4934560000000  0.4454090000000 1.0
C      1  0.4747900000000  0.5500720000000  0.4553600000000 1.0
C      1  0.4996950000000  0.5699770000000  0.4951790000000 1.0
C      1  0.5721290000000  0.4791690000000  0.4874750000000 1.0
C      1  0.4561530000000  0.4660490000000  0.4976610000000 1.0
C      1  0.5269940000000  0.5781740000000  0.4897250000000 1.0
C      1  0.4335180000000  0.4849920000000  0.4993300000000 1.0
C      1  0.5515960000000  0.4588700000000  0.4863210000000 1.0
C      1  0.4216140000000  0.5238480000000  0.4478220000000 1.0
C      1  0.5649180000000  0.5450250000000  0.4395460000000 1.0
C      1  0.5146260000000  0.4170340000000  0.4466030000000 1.0
C      1  0.5822570000000  0.5208990000000  0.4441280000000 1.0
C      1  0.4430690000000  0.5481380000000  0.4521510000000 1.0
C      1  0.4844320000000  0.4185160000000  0.4479940000000 1.0
C      1  0.4432390000000  0.5496790000000  0.4134480000000 1.0
C      1  0.5676990000000  0.5193300000000  0.3967330000000 1.0
C      1  0.4795380000000  0.4177790000000  0.4181060000000 1.0
C      1  0.5602660000000  0.5438400000000  0.4080500000000 1.0
C      1  0.4275300000000  0.5257600000000  0.4171390000000 1.0
C      1  0.5167140000000  0.4159220000000  0.4162330000000 1.0
C      1  0.5248950000000  0.4476980000000  0.5779890000000 1.0
C      1  0.4421770000000  0.4976160000000  0.5802040000000 1.0
C      1  0.5242060000000  0.5476190000000  0.5933350000000 1.0
C      1  0.4723530000000  0.4484900000000  0.5753130000000 1.0
C      1  0.5536580000000  0.4981060000000  0.5845090000000 1.0
C      1  0.4644480000000  0.5477750000000  0.5955630000000 1.0
C      1  0.4830420000000  0.4701730000000  0.5918510000000 1.0
C      1  0.4803580000000  0.5212390000000  0.6039820000000 1.0
C      1  0.5258040000000  0.4962880000000  0.5975290000000 1.0
C      1  0.5121200000000  0.4698750000000  0.5941280000000 1.0
C      1  0.5110730000000  0.5216280000000  0.6042500000000 1.0
C      1  0.4676510000000  0.4950920000000  0.5958010000000 1.0
C      1  0.5506300000000  0.5210530000000  0.5374590000000 1.0
C      1  0.4702690000000  0.4539360000000  0.5261550000000 1.0
C      1  0.4760700000000  0.5538250000000  0.5541890000000 1.0
C      1  0.4573220000000  0.5230800000000  0.5236060000000 1.0
C      1  0.5310790000000  0.4642010000000  0.5311410000000 1.0
C      1  0.5123550000000  0.5530240000000  0.5408800000000 1.0
C      1  0.5049730000000  0.4429160000000  0.5384510000000 1.0
C      1  0.4525070000000  0.5512860000000  0.5341800000000 1.0
C      1  0.5432190000000  0.5518830000000  0.5357200000000 1.0
END
