TITL C-3578197-9521-23 -1.51400083840208e-07 125000 -686.068709937187 0 0 108 (C1) n - 1
REM
REM in /home/bkarasulu/work/CARBON/AIRSS/Generating-Clusters/EDIP-Nigel-Params/with-SteepDescent/Higher-Symm/SD-CG/HFTN-CG
REM
REM
REM
REM
REM
REM ./C.cell (12c818d87b63d06a65506943cc24bca4)
REM
REM compiler GCC version 9.2.1 20190827 (Red Hat 9.2.1-1)
REM options -cpp -mtune=generic -march=x86-64 -g -O0 -fpre-include=/usr/include/finclude/math-vector-fortran.h
REM seed -1920610212 339902031 -1090710297 2044310300 1053759327 142225762 -156055547 -1959538713 66158323 -199371118 357308324 1701915907 1739971515 25701283 -649787152 -1699533271 -126100255 285398799 1436731939 962193012 -305150461 2089615716 917796250 730348216 812594033 485107690 1421518362 -2134369935 1076605167 -329015879 1203665909 -232600394 649574621
REM
CELL 1.54180   50.00000   50.00000   50.00000   90.00000   90.00000   90.00000
LATT -1
SFAC C  
C      1  0.4745910000000  0.4113180000000  0.5236170000000 1.0
C      1  0.5029890000000  0.4110730000000  0.5340130000000 1.0
C      1  0.5298020000000  0.4097400000000  0.5201600000000 1.0
C      1  0.5336360000000  0.4072640000000  0.4896830000000 1.0
C      1  0.5120550000000  0.4092130000000  0.4674710000000 1.0
C      1  0.4819970000000  0.4096290000000  0.4697030000000 1.0
C      1  0.4649400000000  0.4091080000000  0.4949770000000 1.0
C      1  0.4762150000000  0.4850390000000  0.4601420000000 1.0
C      1  0.4510750000000  0.4924890000000  0.5058720000000 1.0
C      1  0.4656730000000  0.4919250000000  0.5331140000000 1.0
C      1  0.5193720000000  0.4961040000000  0.5404510000000 1.0
C      1  0.5391460000000  0.4868050000000  0.5192230000000 1.0
C      1  0.5386070000000  0.4931560000000  0.4813910000000 1.0
C      1  0.5143390000000  0.4853310000000  0.4570880000000 1.0
C      1  0.4256730000000  0.5345790000000  0.4732500000000 1.0
C      1  0.4303110000000  0.5310910000000  0.5433440000000 1.0
C      1  0.4880000000000  0.5320430000000  0.5833090000000 1.0
C      1  0.5544460000000  0.5354710000000  0.5587930000000 1.0
C      1  0.5785320000000  0.5337050000000  0.4920100000000 1.0
C      1  0.5458910000000  0.5309130000000  0.4313440000000 1.0
C      1  0.4762720000000  0.5323770000000  0.4237290000000 1.0
C      1  0.5287750000000  0.4580750000000  0.5186070000000 1.0
C      1  0.5285430000000  0.4513550000000  0.4907040000000 1.0
C      1  0.5116740000000  0.4564590000000  0.4675310000000 1.0
C      1  0.4818940000000  0.4568170000000  0.4699480000000 1.0
C      1  0.4690700000000  0.4533670000000  0.4959390000000 1.0
C      1  0.4756020000000  0.4604780000000  0.5244520000000 1.0
C      1  0.5032230000000  0.4556400000000  0.5333910000000 1.0
C      1  0.4386270000000  0.5470600000000  0.5195200000000 1.0
C      1  0.4741880000000  0.5406510000000  0.5586880000000 1.0
C      1  0.5245450000000  0.5430090000000  0.5540800000000 1.0
C      1  0.5562490000000  0.5456100000000  0.5098630000000 1.0
C      1  0.5462910000000  0.5407370000000  0.4597780000000 1.0
C      1  0.5000500000000  0.5411260000000  0.4402020000000 1.0
C      1  0.4536070000000  0.5462490000000  0.4652000000000 1.0
C      1  0.4161470000000  0.4638380000000  0.5226420000000 1.0
C      1  0.4673420000000  0.4646700000000  0.5741250000000 1.0
C      1  0.5404320000000  0.4652010000000  0.5731200000000 1.0
C      1  0.5823680000000  0.4651310000000  0.5152620000000 1.0
C      1  0.5630220000000  0.4642640000000  0.4470860000000 1.0
C      1  0.4971290000000  0.4629850000000  0.4162710000000 1.0
C      1  0.4326110000000  0.4643460000000  0.4516180000000 1.0
C      1  0.4653250000000  0.5749330000000  0.5234360000000 1.0
C      1  0.4808050000000  0.5689620000000  0.5489840000000 1.0
C      1  0.5101380000000  0.5689070000000  0.5423770000000 1.0
C      1  0.5359960000000  0.5709300000000  0.4969730000000 1.0
C      1  0.5325030000000  0.5681060000000  0.4669500000000 1.0
C      1  0.5032870000000  0.5683870000000  0.4548730000000 1.0
C      1  0.4793930000000  0.5723060000000  0.4727220000000 1.0
C      1  0.5752640000000  0.5352430000000  0.4641880000000 1.0
C      1  0.5204820000000  0.5323580000000  0.4198470000000 1.0
C      1  0.4514940000000  0.5345950000000  0.4370560000000 1.0
C      1  0.4176040000000  0.5358480000000  0.5008930000000 1.0
C      1  0.4465070000000  0.5334180000000  0.5664990000000 1.0
C      1  0.5165070000000  0.5343690000000  0.5818140000000 1.0
C      1  0.5709510000000  0.5368710000000  0.5355780000000 1.0
C      1  0.4489240000000  0.5072490000000  0.5796900000000 1.0
C      1  0.5308270000000  0.5090500000000  0.5875720000000 1.0
C      1  0.5843670000000  0.5108680000000  0.5299540000000 1.0
C      1  0.5790110000000  0.5086120000000  0.4512960000000 1.0
C      1  0.5119600000000  0.5067300000000  0.4087350000000 1.0
C      1  0.4369320000000  0.5091120000000  0.4357380000000 1.0
C      1  0.4060640000000  0.5100320000000  0.5112870000000 1.0
C      1  0.4104780000000  0.5088000000000  0.5407110000000 1.0
C      1  0.4761940000000  0.5062920000000  0.5922980000000 1.0
C      1  0.5584970000000  0.5103860000000  0.5761840000000 1.0
C      1  0.5936210000000  0.5100340000000  0.5021960000000 1.0
C      1  0.5632770000000  0.5068840000000  0.4259020000000 1.0
C      1  0.4823470000000  0.5076430000000  0.4067290000000 1.0
C      1  0.4173300000000  0.5098740000000  0.4577400000000 1.0
C      1  0.5309080000000  0.5283670000000  0.5071360000000 1.0
C      1  0.5284440000000  0.5219570000000  0.4779720000000 1.0
C      1  0.5005570000000  0.5255580000000  0.4664010000000 1.0
C      1  0.4744840000000  0.5291350000000  0.4822710000000 1.0
C      1  0.4698180000000  0.5389300000000  0.5115500000000 1.0
C      1  0.4819180000000  0.5225490000000  0.5341540000000 1.0
C      1  0.5136040000000  0.5229850000000  0.5328160000000 1.0
C      1  0.5674430000000  0.4857050000000  0.5331250000000 1.0
C      1  0.5674610000000  0.4863300000000  0.4687670000000 1.0
C      1  0.5199510000000  0.4828400000000  0.4260960000000 1.0
C      1  0.4540420000000  0.4835090000000  0.4383670000000 1.0
C      1  0.4217720000000  0.4857370000000  0.5012730000000 1.0
C      1  0.4485370000000  0.4849860000000  0.5587890000000 1.0
C      1  0.5185510000000  0.4868950000000  0.5706470000000 1.0
C      1  0.5506620000000  0.4325550000000  0.4842900000000 1.0
C      1  0.5194300000000  0.4327290000000  0.4485110000000 1.0
C      1  0.4719490000000  0.4331020000000  0.4521330000000 1.0
C      1  0.4466380000000  0.4336870000000  0.4923470000000 1.0
C      1  0.4598060000000  0.4352700000000  0.5371460000000 1.0
C      1  0.5043670000000  0.4341080000000  0.5538600000000 1.0
C      1  0.5460530000000  0.4346220000000  0.5308610000000 1.0
C      1  0.4412570000000  0.4374470000000  0.4608590000000 1.0
C      1  0.4315230000000  0.4380810000000  0.5204250000000 1.0
C      1  0.4741450000000  0.4378080000000  0.5644080000000 1.0
C      1  0.5354430000000  0.4383990000000  0.5607780000000 1.0
C      1  0.5703280000000  0.4381710000000  0.5107220000000 1.0
C      1  0.5521110000000  0.4373470000000  0.4534960000000 1.0
C      1  0.4947010000000  0.4365750000000  0.4294790000000 1.0
C      1  0.4194260000000  0.4802460000000  0.5485530000000 1.0
C      1  0.4902870000000  0.4811270000000  0.5840320000000 1.0
C      1  0.5643640000000  0.4818780000000  0.5636980000000 1.0
C      1  0.5885150000000  0.4820370000000  0.4908970000000 1.0
C      1  0.5504470000000  0.4789030000000  0.4238830000000 1.0
C      1  0.4715670000000  0.4796540000000  0.4132290000000 1.0
C      1  0.4161090000000  0.4820770000000  0.4705150000000 1.0
C      1  0.4850770000000  0.5788320000000  0.5009290000000 1.0
C      1  0.5109170000000  0.5719790000000  0.5126520000000 1.0
C      1  0.4672840000000  0.5013120000000  0.4831500000000 1.0
END
