TITL C-3578203-1966-736 -4.18077144597007e-06 125000 -922.139441343951 0 0 149 (C1) n - 1
REM
REM in /home/bkarasulu/work/CARBON/AIRSS/Generating-Clusters/EDIP-Nigel-Params/with-SteepDescent/Higher-Symm/SD-CG/HFTN-CG
REM
REM
REM
REM
REM
REM ./C.cell (12c818d87b63d06a65506943cc24bca4)
REM
REM compiler GCC version 9.2.1 20190827 (Red Hat 9.2.1-1)
REM options -cpp -mtune=generic -march=x86-64 -g -O0 -fpre-include=/usr/include/finclude/math-vector-fortran.h
REM seed -1025136779 -835572523 550007909 861493018 1345214278 -1036540273 147002723 -440112438 -467741441 -1700762419 -613943425 -1258793312 434959752 -262286152 -1342024065 773938055 -1466232026 1755500414 1040669828 345536592 1498521869 -628833399 19873107 1234695014 1972284658 -618933901 1615594347 521042671 -848730837 963155120 1127101555 1676764246 1463810397
REM
CELL 1.54180   50.00000   50.00000   50.00000   90.00000   90.00000   90.00000
LATT -1
SFAC C  
C      1  0.5616480000000  0.5371250000000  0.5258600000000 1.0
C      1  0.5587130000000  0.4597080000000  0.5161180000000 1.0
C      1  0.5632520000000  0.5055910000000  0.4529470000000 1.0
C      1  0.4419220000000  0.4643650000000  0.5282310000000 1.0
C      1  0.4392810000000  0.5413360000000  0.5187660000000 1.0
C      1  0.4403210000000  0.4947990000000  0.4536690000000 1.0
C      1  0.5233740000000  0.5515060000000  0.4500110000000 1.0
C      1  0.5168290000000  0.5111800000000  0.5598630000000 1.0
C      1  0.5191100000000  0.4346660000000  0.4809460000000 1.0
C      1  0.4793980000000  0.4528380000000  0.4574950000000 1.0
C      1  0.4794280000000  0.4811450000000  0.5718510000000 1.0
C      1  0.4788850000000  0.5652890000000  0.4811010000000 1.0
C      1  0.4589890000000  0.4860770000000  0.4301090000000 1.0
C      1  0.4580420000000  0.5668190000000  0.5229140000000 1.0
C      1  0.4570200000000  0.4472320000000  0.5498350000000 1.0
C      1  0.5438920000000  0.5143160000000  0.4288290000000 1.0
C      1  0.5397800000000  0.4328990000000  0.5216480000000 1.0
C      1  0.5423360000000  0.5521640000000  0.5453980000000 1.0
C      1  0.4811440000000  0.5876070000000  0.4391530000000 1.0
C      1  0.4782750000000  0.5116950000000  0.6080480000000 1.0
C      1  0.4858100000000  0.4094150000000  0.4531680000000 1.0
C      1  0.5278000000000  0.4088210000000  0.4397720000000 1.0
C      1  0.5205870000000  0.4929750000000  0.5999850000000 1.0
C      1  0.5214260000000  0.5993130000000  0.4536560000000 1.0
C      1  0.5246220000000  0.4962460000000  0.5024870000000 1.0
C      1  0.5228540000000  0.4843040000000  0.4751390000000 1.0
C      1  0.5198620000000  0.5254790000000  0.4975670000000 1.0
C      1  0.4794220000000  0.5101450000000  0.5283330000000 1.0
C      1  0.4824930000000  0.5162560000000  0.4754530000000 1.0
C      1  0.4839120000000  0.4843080000000  0.5141120000000 1.0
C      1  0.4183950000000  0.4456360000000  0.5256720000000 1.0
C      1  0.4171880000000  0.5065780000000  0.4385380000000 1.0
C      1  0.4162950000000  0.5485140000000  0.5372940000000 1.0
C      1  0.5846690000000  0.5563630000000  0.5244390000000 1.0
C      1  0.5862280000000  0.4930090000000  0.4377640000000 1.0
C      1  0.5814390000000  0.4521530000000  0.5346710000000 1.0
C      1  0.5505640000000  0.5339980000000  0.4975480000000 1.0
C      1  0.5449610000000  0.4874630000000  0.5239700000000 1.0
C      1  0.5517680000000  0.4838610000000  0.4698930000000 1.0
C      1  0.4593040000000  0.4711110000000  0.5022690000000 1.0
C      1  0.4506360000000  0.5151980000000  0.5288170000000 1.0
C      1  0.4519630000000  0.5173630000000  0.4718700000000 1.0
C      1  0.5697320000000  0.5086970000000  0.5646920000000 1.0
C      1  0.5730680000000  0.4371260000000  0.4747060000000 1.0
C      1  0.5737340000000  0.5534970000000  0.4552590000000 1.0
C      1  0.4289040000000  0.4888960000000  0.5683780000000 1.0
C      1  0.4293200000000  0.5644910000000  0.4758800000000 1.0
C      1  0.4300190000000  0.4456820000000  0.4569740000000 1.0
C      1  0.4330970000000  0.4916250000000  0.5388740000000 1.0
C      1  0.4344310000000  0.4714620000000  0.4721030000000 1.0
C      1  0.4328610000000  0.5375170000000  0.4887750000000 1.0
C      1  0.5667690000000  0.5087550000000  0.5353810000000 1.0
C      1  0.5698510000000  0.5290330000000  0.4720240000000 1.0
C      1  0.5685720000000  0.4637190000000  0.4869620000000 1.0
C      1  0.4249330000000  0.5542770000000  0.4487430000000 1.0
C      1  0.4207900000000  0.5158850000000  0.5749590000000 1.0
C      1  0.4246810000000  0.4288960000000  0.4814670000000 1.0
C      1  0.5818080000000  0.4445380000000  0.4483820000000 1.0
C      1  0.5791480000000  0.4831420000000  0.5725830000000 1.0
C      1  0.5765940000000  0.5723470000000  0.4778090000000 1.0
C      1  0.5510600000000  0.5589700000000  0.4379230000000 1.0
C      1  0.5484390000000  0.5201710000000  0.5791480000000 1.0
C      1  0.5534940000000  0.4169850000000  0.4792460000000 1.0
C      1  0.4548430000000  0.4391280000000  0.4420650000000 1.0
C      1  0.4515120000000  0.4766930000000  0.5829050000000 1.0
C      1  0.4527740000000  0.5816800000000  0.4785230000000 1.0
C      1  0.5439160000000  0.4075100000000  0.5047210000000 1.0
C      1  0.5473810000000  0.5425300000000  0.4134570000000 1.0
C      1  0.5446140000000  0.5479270000000  0.5765840000000 1.0
C      1  0.4549000000000  0.5941100000000  0.5052290000000 1.0
C      1  0.4566460000000  0.4563540000000  0.4182880000000 1.0
C      1  0.4536010000000  0.4472110000000  0.5858500000000 1.0
C      1  0.4857290000000  0.4570060000000  0.5537230000000 1.0
C      1  0.4872740000000  0.4811580000000  0.4404990000000 1.0
C      1  0.4863600000000  0.5614500000000  0.5114450000000 1.0
C      1  0.5140420000000  0.5396860000000  0.5450490000000 1.0
C      1  0.5152990000000  0.5222470000000  0.4389340000000 1.0
C      1  0.5106450000000  0.4392820000000  0.5135180000000 1.0
C      1  0.5472310000000  0.5811500000000  0.5380540000000 1.0
C      1  0.5453990000000  0.4241320000000  0.5506150000000 1.0
C      1  0.5486770000000  0.4914850000000  0.4090560000000 1.0
C      1  0.4511540000000  0.4192310000000  0.5398930000000 1.0
C      1  0.4532900000000  0.5731660000000  0.5521970000000 1.0
C      1  0.4543400000000  0.5076200000000  0.4092350000000 1.0
C      1  0.5162860000000  0.3957670000000  0.5023520000000 1.0
C      1  0.5195300000000  0.5508940000000  0.4047290000000 1.0
C      1  0.5165460000000  0.5490460000000  0.5888990000000 1.0
C      1  0.4833560000000  0.6048190000000  0.5008170000000 1.0
C      1  0.4850870000000  0.4471500000000  0.4107900000000 1.0
C      1  0.4813720000000  0.4413500000000  0.5952550000000 1.0
C      1  0.4256590000000  0.5676080000000  0.5561710000000 1.0
C      1  0.4235270000000  0.4190890000000  0.5341980000000 1.0
C      1  0.4266690000000  0.5133770000000  0.4126110000000 1.0
C      1  0.5729340000000  0.4316630000000  0.5525690000000 1.0
C      1  0.5749850000000  0.5819590000000  0.5319910000000 1.0
C      1  0.5763990000000  0.4855730000000  0.4121180000000 1.0
C      1  0.5287420000000  0.4374520000000  0.5720860000000 1.0
C      1  0.5314820000000  0.4673790000000  0.4140400000000 1.0
C      1  0.5305800000000  0.5898380000000  0.5152070000000 1.0
C      1  0.4706460000000  0.5568850000000  0.5702320000000 1.0
C      1  0.4712740000000  0.5316580000000  0.4135750000000 1.0
C      1  0.4668340000000  0.4104400000000  0.5163550000000 1.0
C      1  0.4937640000000  0.4777500000000  0.5990530000000 1.0
C      1  0.4946730000000  0.4242560000000  0.4286540000000 1.0
C      1  0.4925190000000  0.5991040000000  0.4673980000000 1.0
C      1  0.5061630000000  0.5201980000000  0.6012260000000 1.0
C      1  0.5103520000000  0.5760230000000  0.4326650000000 1.0
C      1  0.5123620000000  0.4068990000000  0.4662990000000 1.0
C      1  0.5018590000000  0.4727250000000  0.4142330000000 1.0
C      1  0.5009830000000  0.5879280000000  0.5191530000000 1.0
C      1  0.4985410000000  0.4362660000000  0.5713120000000 1.0
C      1  0.5011710000000  0.5284570000000  0.4124230000000 1.0
C      1  0.4972010000000  0.4120240000000  0.5193760000000 1.0
C      1  0.4998320000000  0.5591300000000  0.5651810000000 1.0
C      1  0.4697130000000  0.4487360000000  0.4861550000000 1.0
C      1  0.4818050000000  0.5424610000000  0.4619190000000 1.0
C      1  0.4846870000000  0.5082270000000  0.5589110000000 1.0
C      1  0.5207140000000  0.5547590000000  0.4797010000000 1.0
C      1  0.5174510000000  0.4567910000000  0.4618970000000 1.0
C      1  0.5248160000000  0.4823790000000  0.5455900000000 1.0
C      1  0.5951480000000  0.5556470000000  0.4970610000000 1.0
C      1  0.5938680000000  0.4756170000000  0.5474620000000 1.0
C      1  0.5972460000000  0.4701460000000  0.4533600000000 1.0
C      1  0.4075370000000  0.4472680000000  0.4989090000000 1.0
C      1  0.4049890000000  0.5240730000000  0.5500240000000 1.0
C      1  0.4068270000000  0.5297120000000  0.4535540000000 1.0
C      1  0.6033230000000  0.4769280000000  0.4827040000000 1.0
C      1  0.6039130000000  0.5277870000000  0.4877740000000 1.0
C      1  0.6022080000000  0.4976530000000  0.5284000000000 1.0
C      1  0.3980060000000  0.5242080000000  0.4821260000000 1.0
C      1  0.4087760000000  0.4752680000000  0.4865310000000 1.0
C      1  0.3990460000000  0.5018710000000  0.5290650000000 1.0
C      1  0.4549990000000  0.4228800000000  0.4897130000000 1.0
C      1  0.4611910000000  0.5439280000000  0.4393240000000 1.0
C      1  0.4628960000000  0.5281100000000  0.5693590000000 1.0
C      1  0.5403750000000  0.5755240000000  0.4905590000000 1.0
C      1  0.5392820000000  0.4542130000000  0.4398230000000 1.0
C      1  0.5392780000000  0.4650870000000  0.5664250000000 1.0
C      1  0.4535870000000  0.5193250000000  0.5952130000000 1.0
C      1  0.4632140000000  0.4051310000000  0.4688030000000 1.0
C      1  0.4566710000000  0.5725210000000  0.4352360000000 1.0
C      1  0.5453570000000  0.4785740000000  0.5915190000000 1.0
C      1  0.5456190000000  0.5945200000000  0.4691290000000 1.0
C      1  0.5492820000000  0.4272240000000  0.4364000000000 1.0
C      1  0.5015000000000  0.4659690000000  0.5300570000000 1.0
C      1  0.4993690000000  0.5344220000000  0.5192640000000 1.0
C      1  0.5020930000000  0.5016610000000  0.4581230000000 1.0
C      1  0.6053040000000  0.5008810000000  0.4995790000000 1.0
C      1  0.4031400000000  0.5013170000000  0.4996880000000 1.0
END
