TITL C-3577078-809-219 -5.68856101028043e-06 125000 -1093.8147618855 0 0 175 (C1) n - 1
REM
REM in /home/bkarasulu/work/CARBON/AIRSS/Generating-Clusters/EDIP-Nigel-Params/with-SteepDescent/Higher-Symm/SD-CG/HFTN-CG
REM
REM
REM
REM
REM
REM ./C.cell (12c818d87b63d06a65506943cc24bca4)
REM
REM compiler GCC version 9.2.1 20190827 (Red Hat 9.2.1-1)
REM options -cpp -mtune=generic -march=x86-64 -g -O0 -fpre-include=/usr/include/finclude/math-vector-fortran.h
REM seed -483221676 140355971 685702680 -217502432 271857403 -1676748616 1715598896 1610685235 -534017400 1195785626 923400283 953230657 -1959191129 -1692532157 -559511340 -1495164007 -381542834 1607721005 1721326006 -575315723 -1160890656 1284856629 -1990161801 -811941566 997226788 -714081701 -1922048577 -259616221 1039761196 765807186 -64814050 -929185674 251808971
REM
CELL 1.54180   50.00000   50.00000   50.00000   90.00000   90.00000   90.00000
LATT -1
SFAC C  
C      1  0.4702900000000  0.5162680000000  0.4788340000000 1.0
C      1  0.4906950000000  0.5341250000000  0.4684890000000 1.0
C      1  0.5189490000000  0.5265800000000  0.4622500000000 1.0
C      1  0.5297460000000  0.5011380000000  0.4752600000000 1.0
C      1  0.5196840000000  0.4740900000000  0.4694960000000 1.0
C      1  0.4905930000000  0.4721910000000  0.4818490000000 1.0
C      1  0.4685990000000  0.4892750000000  0.4681830000000 1.0
C      1  0.4873160000000  0.4780200000000  0.3971040000000 1.0
C      1  0.4713650000000  0.5033500000000  0.3933170000000 1.0
C      1  0.4822990000000  0.5215530000000  0.3745920000000 1.0
C      1  0.5025020000000  0.5346570000000  0.3893370000000 1.0
C      1  0.5278760000000  0.5229360000000  0.3851880000000 1.0
C      1  0.5327890000000  0.4970550000000  0.3952020000000 1.0
C      1  0.5132090000000  0.4792230000000  0.3861790000000 1.0
C      1  0.4299550000000  0.4282430000000  0.5025020000000 1.0
C      1  0.3989630000000  0.5121680000000  0.5127490000000 1.0
C      1  0.4330250000000  0.5842220000000  0.5052620000000 1.0
C      1  0.5270830000000  0.6046110000000  0.5010950000000 1.0
C      1  0.5943500000000  0.5369590000000  0.5044010000000 1.0
C      1  0.5867470000000  0.4464620000000  0.5078330000000 1.0
C      1  0.5222940000000  0.4024540000000  0.5040010000000 1.0
C      1  0.4403710000000  0.4782400000000  0.4755250000000 1.0
C      1  0.4439000000000  0.5276090000000  0.4882240000000 1.0
C      1  0.4878990000000  0.5624030000000  0.4768110000000 1.0
C      1  0.5386340000000  0.5500670000000  0.4718320000000 1.0
C      1  0.5582780000000  0.5036460000000  0.4697450000000 1.0
C      1  0.5384990000000  0.4477360000000  0.4856280000000 1.0
C      1  0.4902320000000  0.4408410000000  0.4803670000000 1.0
C      1  0.4432280000000  0.5994930000000  0.4633560000000 1.0
C      1  0.5413270000000  0.6031180000000  0.4563380000000 1.0
C      1  0.6119040000000  0.5264300000000  0.4611120000000 1.0
C      1  0.5903830000000  0.4425280000000  0.4590370000000 1.0
C      1  0.5184260000000  0.3826120000000  0.4643290000000 1.0
C      1  0.4139990000000  0.4112280000000  0.4615320000000 1.0
C      1  0.3779780000000  0.5153680000000  0.4736970000000 1.0
C      1  0.3873290000000  0.5314310000000  0.4946570000000 1.0
C      1  0.4494780000000  0.6024260000000  0.4907120000000 1.0
C      1  0.5498310000000  0.6017820000000  0.4837740000000 1.0
C      1  0.6166540000000  0.5269710000000  0.4895000000000 1.0
C      1  0.5937690000000  0.4288650000000  0.4845710000000 1.0
C      1  0.5039840000000  0.3854490000000  0.4881140000000 1.0
C      1  0.4059060000000  0.4227350000000  0.4862660000000 1.0
C      1  0.5816320000000  0.5126690000000  0.5512500000000 1.0
C      1  0.5758650000000  0.4692740000000  0.5764150000000 1.0
C      1  0.5214200000000  0.4286660000000  0.5722960000000 1.0
C      1  0.4426570000000  0.4383680000000  0.5493790000000 1.0
C      1  0.4181890000000  0.4965280000000  0.5742960000000 1.0
C      1  0.4527640000000  0.5840610000000  0.5609590000000 1.0
C      1  0.5158390000000  0.5740100000000  0.5730890000000 1.0
C      1  0.4641090000000  0.4535570000000  0.5137400000000 1.0
C      1  0.4414740000000  0.4966720000000  0.5294800000000 1.0
C      1  0.4589140000000  0.5499050000000  0.5236960000000 1.0
C      1  0.5130030000000  0.5641560000000  0.5189730000000 1.0
C      1  0.5543710000000  0.5258630000000  0.5155570000000 1.0
C      1  0.5528330000000  0.4759500000000  0.5286060000000 1.0
C      1  0.5081740000000  0.4408830000000  0.5263760000000 1.0
C      1  0.4880420000000  0.4278840000000  0.4520430000000 1.0
C      1  0.4273100000000  0.4662250000000  0.4496350000000 1.0
C      1  0.4273460000000  0.5290620000000  0.4473740000000 1.0
C      1  0.4868870000000  0.5599470000000  0.4327300000000 1.0
C      1  0.5472240000000  0.5714920000000  0.4350670000000 1.0
C      1  0.5625770000000  0.5024650000000  0.4389140000000 1.0
C      1  0.5608230000000  0.4423600000000  0.4337620000000 1.0
C      1  0.4880040000000  0.4713190000000  0.4266910000000 1.0
C      1  0.4736060000000  0.4926920000000  0.4393140000000 1.0
C      1  0.4705600000000  0.5159990000000  0.4207120000000 1.0
C      1  0.4957280000000  0.5340200000000  0.4188910000000 1.0
C      1  0.5193340000000  0.5224160000000  0.4333690000000 1.0
C      1  0.5338450000000  0.4974540000000  0.4253150000000 1.0
C      1  0.5182750000000  0.4718750000000  0.4379560000000 1.0
C      1  0.5155510000000  0.4226620000000  0.4399560000000 1.0
C      1  0.4444590000000  0.4431800000000  0.4402240000000 1.0
C      1  0.4109140000000  0.5062230000000  0.4410740000000 1.0
C      1  0.4575040000000  0.5618970000000  0.4331410000000 1.0
C      1  0.5277860000000  0.5750600000000  0.4130590000000 1.0
C      1  0.5736780000000  0.5291370000000  0.4300120000000 1.0
C      1  0.5739290000000  0.4601970000000  0.4160500000000 1.0
C      1  0.5193200000000  0.5698190000000  0.4886870000000 1.0
C      1  0.5618550000000  0.5301210000000  0.4849150000000 1.0
C      1  0.5585640000000  0.4560470000000  0.5072420000000 1.0
C      1  0.5148630000000  0.4322360000000  0.4985520000000 1.0
C      1  0.4369710000000  0.4604440000000  0.5023320000000 1.0
C      1  0.4274080000000  0.5030120000000  0.5030070000000 1.0
C      1  0.4585610000000  0.5597440000000  0.4942320000000 1.0
C      1  0.5651650000000  0.4072800000000  0.5147280000000 1.0
C      1  0.4725730000000  0.4219700000000  0.5087710000000 1.0
C      1  0.3994770000000  0.4631670000000  0.5121020000000 1.0
C      1  0.4278740000000  0.5421540000000  0.5261900000000 1.0
C      1  0.4898360000000  0.5870260000000  0.5237290000000 1.0
C      1  0.5605680000000  0.5642020000000  0.5129930000000 1.0
C      1  0.5984880000000  0.4887180000000  0.5130820000000 1.0
C      1  0.4789280000000  0.5279560000000  0.5268870000000 1.0
C      1  0.5052000000000  0.5352390000000  0.5184350000000 1.0
C      1  0.5266540000000  0.5167620000000  0.5228050000000 1.0
C      1  0.5267670000000  0.4874740000000  0.5236450000000 1.0
C      1  0.5052270000000  0.4699490000000  0.5302880000000 1.0
C      1  0.4832580000000  0.4762460000000  0.5128950000000 1.0
C      1  0.4694720000000  0.5007710000000  0.5236810000000 1.0
C      1  0.5953970000000  0.4867170000000  0.5617960000000 1.0
C      1  0.5479280000000  0.4310790000000  0.5591440000000 1.0
C      1  0.4784980000000  0.4096830000000  0.5556760000000 1.0
C      1  0.4101970000000  0.4727000000000  0.5582520000000 1.0
C      1  0.4349740000000  0.5620440000000  0.5685580000000 1.0
C      1  0.5070030000000  0.5994100000000  0.5661520000000 1.0
C      1  0.5549560000000  0.5505970000000  0.5572970000000 1.0
C      1  0.3928310000000  0.4954730000000  0.4606580000000 1.0
C      1  0.4417110000000  0.5723220000000  0.4554860000000 1.0
C      1  0.5138160000000  0.5951830000000  0.4528870000000 1.0
C      1  0.5887690000000  0.5415100000000  0.4518260000000 1.0
C      1  0.5951090000000  0.4713870000000  0.4567870000000 1.0
C      1  0.5326910000000  0.4050670000000  0.4546240000000 1.0
C      1  0.4409160000000  0.4187500000000  0.4551600000000 1.0
C      1  0.5002930000000  0.5360210000000  0.6054120000000 1.0
C      1  0.5241550000000  0.5192760000000  0.6030210000000 1.0
C      1  0.5268840000000  0.4944670000000  0.6174220000000 1.0
C      1  0.5036280000000  0.4779210000000  0.6217390000000 1.0
C      1  0.4777840000000  0.4890250000000  0.6216220000000 1.0
C      1  0.4560990000000  0.5016830000000  0.6090310000000 1.0
C      1  0.4668570000000  0.5231590000000  0.5916470000000 1.0
C      1  0.5312340000000  0.4457230000000  0.4318470000000 1.0
C      1  0.4733300000000  0.4463760000000  0.4346440000000 1.0
C      1  0.4247550000000  0.4856720000000  0.4279790000000 1.0
C      1  0.4474680000000  0.5350190000000  0.4273390000000 1.0
C      1  0.5048570000000  0.5825860000000  0.4283590000000 1.0
C      1  0.5536260000000  0.5469870000000  0.4196500000000 1.0
C      1  0.5823600000000  0.4809900000000  0.4326810000000 1.0
C      1  0.4479850000000  0.5347550000000  0.5670040000000 1.0
C      1  0.4978440000000  0.5517920000000  0.5809040000000 1.0
C      1  0.5579380000000  0.5235220000000  0.5670610000000 1.0
C      1  0.5556160000000  0.4792000000000  0.5977630000000 1.0
C      1  0.5073880000000  0.4514600000000  0.6134660000000 1.0
C      1  0.4652620000000  0.4329800000000  0.5667590000000 1.0
C      1  0.4420450000000  0.4849600000000  0.5894410000000 1.0
C      1  0.4201380000000  0.5532400000000  0.4623800000000 1.0
C      1  0.4934820000000  0.6009600000000  0.4724470000000 1.0
C      1  0.5736680000000  0.5656260000000  0.4626330000000 1.0
C      1  0.6165550000000  0.4890140000000  0.4663310000000 1.0
C      1  0.5527480000000  0.4251920000000  0.4682790000000 1.0
C      1  0.4680880000000  0.4054800000000  0.4579400000000 1.0
C      1  0.3920540000000  0.4655500000000  0.4625490000000 1.0
C      1  0.5228420000000  0.3972410000000  0.5338630000000 1.0
C      1  0.4350160000000  0.4165160000000  0.5302500000000 1.0
C      1  0.3816850000000  0.5022990000000  0.5332520000000 1.0
C      1  0.4267080000000  0.5880060000000  0.5329370000000 1.0
C      1  0.5266320000000  0.6161200000000  0.5263600000000 1.0
C      1  0.5948470000000  0.5376900000000  0.5342750000000 1.0
C      1  0.6022310000000  0.4454820000000  0.5323640000000 1.0
C      1  0.4172890000000  0.5634610000000  0.5446850000000 1.0
C      1  0.5038920000000  0.6075120000000  0.5398040000000 1.0
C      1  0.5744020000000  0.5584880000000  0.5374260000000 1.0
C      1  0.6073640000000  0.4729110000000  0.5369240000000 1.0
C      1  0.5501290000000  0.4077370000000  0.5389180000000 1.0
C      1  0.4620220000000  0.4023000000000  0.5319160000000 1.0
C      1  0.3903410000000  0.4758720000000  0.5365210000000 1.0
C      1  0.4788880000000  0.5089740000000  0.5658230000000 1.0
C      1  0.5067350000000  0.5270140000000  0.5609600000000 1.0
C      1  0.5305990000000  0.5117910000000  0.5748980000000 1.0
C      1  0.5321690000000  0.4771430000000  0.5765220000000 1.0
C      1  0.5096070000000  0.4540170000000  0.5845390000000 1.0
C      1  0.4809670000000  0.4568170000000  0.5731330000000 1.0
C      1  0.4628180000000  0.4804490000000  0.5676090000000 1.0
C      1  0.5676530000000  0.5789650000000  0.4891170000000 1.0
C      1  0.6202620000000  0.4981580000000  0.4943270000000 1.0
C      1  0.5718690000000  0.4098490000000  0.4872780000000 1.0
C      1  0.4771330000000  0.3987180000000  0.4855580000000 1.0
C      1  0.3919590000000  0.4495580000000  0.4872700000000 1.0
C      1  0.4115350000000  0.5489630000000  0.4916460000000 1.0
C      1  0.4780950000000  0.5994950000000  0.4971470000000 1.0
C      1  0.5533790000000  0.4616680000000  0.5569880000000 1.0
C      1  0.5065030000000  0.4187740000000  0.5479590000000 1.0
C      1  0.4373990000000  0.4683420000000  0.5456840000000 1.0
C      1  0.4291710000000  0.5159360000000  0.5513870000000 1.0
C      1  0.4683140000000  0.5735840000000  0.5390340000000 1.0
C      1  0.5270370000000  0.5577030000000  0.5498310000000 1.0
C      1  0.5715800000000  0.5008690000000  0.5252920000000 1.0
END
