TITL C-3577082-504-96 -1.14593091868809e-06 125000 -416.420781180737 0 0 68 (C1) n - 1
REM
REM in /home/bkarasulu/work/CARBON/AIRSS/Generating-Clusters/EDIP-Nigel-Params/with-SteepDescent/Higher-Symm/SD-CG/HFTN-CG
REM
REM
REM
REM
REM
REM ./C.cell (12c818d87b63d06a65506943cc24bca4)
REM
REM compiler GCC version 9.2.1 20190827 (Red Hat 9.2.1-1)
REM options -cpp -mtune=generic -march=x86-64 -g -O0 -fpre-include=/usr/include/finclude/math-vector-fortran.h
REM seed 1773443207 -1329300017 1741132756 1496743821 -846873413 1610129011 -1115785537 1993790319 1974990418 -217057060 -1469301384 -383583372 232323943 687794572 -1416283120 438806358 -1984642907 -1872982040 1714018739 1192384320 -1105050131 461755113 -85970847 -1095088503 262398292 -1863867594 -1140482310 516253734 -1818281104 -1229294718 560288515 69224073 1069800611
REM
CELL 1.54180   50.00000   50.00000   50.00000   90.00000   90.00000   90.00000
LATT -1
SFAC C  
C      1  0.5292240000000  0.5155640000000  0.4761630000000 1.0
C      1  0.5293930000000  0.4711280000000  0.4984620000000 1.0
C      1  0.5298930000000  0.5126130000000  0.5259810000000 1.0
C      1  0.4801460000000  0.5158050000000  0.4781910000000 1.0
C      1  0.4771510000000  0.4715910000000  0.4991540000000 1.0
C      1  0.4812020000000  0.5114490000000  0.5257170000000 1.0
C      1  0.4850820000000  0.5208440000000  0.5526660000000 1.0
C      1  0.4837430000000  0.5342240000000  0.4561340000000 1.0
C      1  0.4855500000000  0.4433830000000  0.4926610000000 1.0
C      1  0.5194790000000  0.5212270000000  0.5539020000000 1.0
C      1  0.5184530000000  0.5354700000000  0.4549380000000 1.0
C      1  0.5190970000000  0.4429320000000  0.4922620000000 1.0
C      1  0.5248700000000  0.4657880000000  0.5491530000000 1.0
C      1  0.5242850000000  0.5592710000000  0.5048430000000 1.0
C      1  0.5233100000000  0.4743730000000  0.4466910000000 1.0
C      1  0.4807910000000  0.4666980000000  0.5493100000000 1.0
C      1  0.4802540000000  0.5583160000000  0.5054800000000 1.0
C      1  0.4792640000000  0.4748270000000  0.4476210000000 1.0
C      1  0.5624820000000  0.5430330000000  0.4756690000000 1.0
C      1  0.5623290000000  0.4573020000000  0.4741030000000 1.0
C      1  0.5633860000000  0.4990260000000  0.5495190000000 1.0
C      1  0.4384820000000  0.5421720000000  0.4736140000000 1.0
C      1  0.4409580000000  0.4578410000000  0.4765360000000 1.0
C      1  0.4410060000000  0.5007510000000  0.5474880000000 1.0
C      1  0.5314110000000  0.4471260000000  0.4437760000000 1.0
C      1  0.5332770000000  0.4771760000000  0.5739270000000 1.0
C      1  0.5325410000000  0.5751120000000  0.4825580000000 1.0
C      1  0.4714530000000  0.4474020000000  0.4453110000000 1.0
C      1  0.4709680000000  0.4786690000000  0.5731540000000 1.0
C      1  0.4706910000000  0.5720080000000  0.4824240000000 1.0
C      1  0.5641220000000  0.4857580000000  0.4751490000000 1.0
C      1  0.5650870000000  0.4856920000000  0.5243600000000 1.0
C      1  0.5645010000000  0.5282310000000  0.4999370000000 1.0
C      1  0.4333610000000  0.4851910000000  0.4742160000000 1.0
C      1  0.4348040000000  0.4866390000000  0.5237120000000 1.0
C      1  0.4320820000000  0.5301280000000  0.4984370000000 1.0
C      1  0.5382200000000  0.5598890000000  0.5309480000000 1.0
C      1  0.5373540000000  0.4964400000000  0.4327910000000 1.0
C      1  0.5392300000000  0.4431790000000  0.5366230000000 1.0
C      1  0.4638510000000  0.5596450000000  0.5297650000000 1.0
C      1  0.4637440000000  0.4952070000000  0.4330040000000 1.0
C      1  0.4650270000000  0.4455280000000  0.5360620000000 1.0
C      1  0.5586610000000  0.4579300000000  0.5209670000000 1.0
C      1  0.5583050000000  0.5394380000000  0.5257620000000 1.0
C      1  0.5575950000000  0.5025000000000  0.4527250000000 1.0
C      1  0.4458890000000  0.4602710000000  0.5194950000000 1.0
C      1  0.4415750000000  0.5434210000000  0.5217130000000 1.0
C      1  0.4412570000000  0.4978630000000  0.4502720000000 1.0
C      1  0.5403460000000  0.4398100000000  0.4691470000000 1.0
C      1  0.5416180000000  0.5029890000000  0.5675140000000 1.0
C      1  0.5405230000000  0.5564410000000  0.4634110000000 1.0
C      1  0.4630510000000  0.4405960000000  0.4709340000000 1.0
C      1  0.4626670000000  0.5040470000000  0.5654200000000 1.0
C      1  0.4616390000000  0.5544890000000  0.4627340000000 1.0
C      1  0.4815850000000  0.5504650000000  0.5518540000000 1.0
C      1  0.4811830000000  0.5189690000000  0.4304980000000 1.0
C      1  0.4830070000000  0.4291220000000  0.5190700000000 1.0
C      1  0.5196340000000  0.5515870000000  0.5526200000000 1.0
C      1  0.5190820000000  0.5195520000000  0.4291160000000 1.0
C      1  0.5210020000000  0.4282300000000  0.5187140000000 1.0
C      1  0.4888430000000  0.5285510000000  0.5030260000000 1.0
C      1  0.4873650000000  0.4875030000000  0.4749180000000 1.0
C      1  0.4889590000000  0.4833770000000  0.5245650000000 1.0
C      1  0.5186190000000  0.5290730000000  0.5023360000000 1.0
C      1  0.5176100000000  0.4869120000000  0.4742670000000 1.0
C      1  0.5188280000000  0.4832130000000  0.5244900000000 1.0
C      1  0.5635970000000  0.4998750000000  0.4998190000000 1.0
C      1  0.4337500000000  0.5011020000000  0.4986560000000 1.0
END
