TITL C-3577080-309-276 -2.69097297929344e-06 125000 -568.004558050966 0 0 93 (C1) n - 1
REM
REM in /home/bkarasulu/work/CARBON/AIRSS/Generating-Clusters/EDIP-Nigel-Params/with-SteepDescent/Higher-Symm/SD-CG/HFTN-CG
REM
REM
REM
REM
REM
REM ./C.cell (12c818d87b63d06a65506943cc24bca4)
REM
REM compiler GCC version 9.2.1 20190827 (Red Hat 9.2.1-1)
REM options -cpp -mtune=generic -march=x86-64 -g -O0 -fpre-include=/usr/include/finclude/math-vector-fortran.h
REM seed -707566349 1096614784 239109321 889170585 1626652843 1131061510 1649102268 -1411981266 -1499732848 996908613 1705118107 218762666 -924569122 -1197442816 -734588253 1994350252 1908740914 1730586255 -903778616 2116218116 -1849181309 1812011659 -2031127009 -160267496 1397178624 1968934477 75589582 1384967833 -249085227 138136701 1124320164 -286523424 -129377001
REM
CELL 1.54180   50.00000   50.00000   50.00000   90.00000   90.00000   90.00000
LATT -1
SFAC C  
C      1  0.4779850000000  0.5492830000000  0.5599020000000 1.0
C      1  0.4519480000000  0.4795780000000  0.5605350000000 1.0
C      1  0.5216360000000  0.4513370000000  0.5602820000000 1.0
C      1  0.5464410000000  0.5203630000000  0.5684690000000 1.0
C      1  0.5202700000000  0.5493710000000  0.4347310000000 1.0
C      1  0.5502160000000  0.4802910000000  0.4410640000000 1.0
C      1  0.4809400000000  0.4531280000000  0.4424790000000 1.0
C      1  0.4502470000000  0.5216660000000  0.4408770000000 1.0
C      1  0.5831470000000  0.4706850000000  0.5375820000000 1.0
C      1  0.5269460000000  0.5768530000000  0.5369940000000 1.0
C      1  0.4202580000000  0.5260080000000  0.5359000000000 1.0
C      1  0.4727690000000  0.4205700000000  0.5380480000000 1.0
C      1  0.4208930000000  0.4724840000000  0.4644580000000 1.0
C      1  0.4729370000000  0.5808060000000  0.4657480000000 1.0
C      1  0.5806090000000  0.5264350000000  0.4635170000000 1.0
C      1  0.5261280000000  0.4224220000000  0.4670060000000 1.0
C      1  0.4342840000000  0.5229390000000  0.4657250000000 1.0
C      1  0.4775340000000  0.4371000000000  0.4674390000000 1.0
C      1  0.5639040000000  0.4789790000000  0.4671380000000 1.0
C      1  0.5212530000000  0.5633190000000  0.4636760000000 1.0
C      1  0.5653200000000  0.5178390000000  0.5357600000000 1.0
C      1  0.5235580000000  0.4339660000000  0.5362930000000 1.0
C      1  0.4333550000000  0.4755320000000  0.5371120000000 1.0
C      1  0.4779000000000  0.5619800000000  0.5331750000000 1.0
C      1  0.4758400000000  0.4951610000000  0.4760080000000 1.0
C      1  0.5054690000000  0.4842800000000  0.4736380000000 1.0
C      1  0.5203790000000  0.5096610000000  0.4694210000000 1.0
C      1  0.4994530000000  0.5315680000000  0.4687250000000 1.0
C      1  0.5388050000000  0.5029650000000  0.5278090000000 1.0
C      1  0.4996280000000  0.4675710000000  0.5202920000000 1.0
C      1  0.4670300000000  0.5007450000000  0.5247040000000 1.0
C      1  0.5029150000000  0.5265400000000  0.5254170000000 1.0
C      1  0.5236560000000  0.5380790000000  0.5074020000000 1.0
C      1  0.4587360000000  0.5200400000000  0.5021150000000 1.0
C      1  0.4754240000000  0.4566620000000  0.5071660000000 1.0
C      1  0.5438160000000  0.4791920000000  0.5102520000000 1.0
C      1  0.4818550000000  0.5394610000000  0.4950890000000 1.0
C      1  0.5394400000000  0.5183570000000  0.4914590000000 1.0
C      1  0.5203340000000  0.4662510000000  0.4970320000000 1.0
C      1  0.4584850000000  0.4771290000000  0.4950880000000 1.0
C      1  0.4351130000000  0.5401580000000  0.5137510000000 1.0
C      1  0.4569090000000  0.4344040000000  0.5159680000000 1.0
C      1  0.5654040000000  0.4584500000000  0.5164620000000 1.0
C      1  0.5414170000000  0.5610730000000  0.5152130000000 1.0
C      1  0.5633810000000  0.5373330000000  0.4853850000000 1.0
C      1  0.5373380000000  0.4395400000000  0.4885980000000 1.0
C      1  0.4346300000000  0.4580340000000  0.4869960000000 1.0
C      1  0.4616090000000  0.5635230000000  0.4873820000000 1.0
C      1  0.4996670000000  0.4717010000000  0.5553210000000 1.0
C      1  0.5297630000000  0.4972890000000  0.5575170000000 1.0
C      1  0.5004770000000  0.5292860000000  0.5572020000000 1.0
C      1  0.4706600000000  0.5035780000000  0.5567430000000 1.0
C      1  0.5043210000000  0.4728830000000  0.4435690000000 1.0
C      1  0.4708580000000  0.4995400000000  0.4450440000000 1.0
C      1  0.4934510000000  0.5308980000000  0.4370210000000 1.0
C      1  0.5299970000000  0.5034400000000  0.4402280000000 1.0
C      1  0.4316890000000  0.4493490000000  0.5243940000000 1.0
C      1  0.5496920000000  0.4325500000000  0.5235630000000 1.0
C      1  0.5676840000000  0.5439430000000  0.5203980000000 1.0
C      1  0.4513550000000  0.5656750000000  0.5219970000000 1.0
C      1  0.5646460000000  0.4531870000000  0.4808300000000 1.0
C      1  0.4507250000000  0.4334640000000  0.4784840000000 1.0
C      1  0.4341350000000  0.5487930000000  0.4794230000000 1.0
C      1  0.5470130000000  0.5636600000000  0.4797090000000 1.0
C      1  0.4738230000000  0.4605800000000  0.5668220000000 1.0
C      1  0.5424120000000  0.4716010000000  0.5671720000000 1.0
C      1  0.5252330000000  0.5395530000000  0.5704060000000 1.0
C      1  0.4573960000000  0.5286690000000  0.5672700000000 1.0
C      1  0.5296750000000  0.4594540000000  0.4348650000000 1.0
C      1  0.4607870000000  0.4733370000000  0.4342500000000 1.0
C      1  0.4676060000000  0.5447100000000  0.4311740000000 1.0
C      1  0.5416370000000  0.5287580000000  0.4292230000000 1.0
C      1  0.5012420000000  0.5847980000000  0.4725110000000 1.0
C      1  0.4164520000000  0.5000650000000  0.4742740000000 1.0
C      1  0.4982880000000  0.4168990000000  0.4746040000000 1.0
C      1  0.5850670000000  0.4986690000000  0.4734720000000 1.0
C      1  0.4995270000000  0.5816250000000  0.5264870000000 1.0
C      1  0.5879210000000  0.4984430000000  0.5280150000000 1.0
C      1  0.5005030000000  0.4163080000000  0.5278910000000 1.0
C      1  0.4157670000000  0.4980510000000  0.5275850000000 1.0
C      1  0.5321820000000  0.4325200000000  0.4417850000000 1.0
C      1  0.5678440000000  0.5309870000000  0.4390060000000 1.0
C      1  0.4661520000000  0.5708050000000  0.4408170000000 1.0
C      1  0.4339560000000  0.4686400000000  0.4401540000000 1.0
C      1  0.4696880000000  0.4332890000000  0.5626730000000 1.0
C      1  0.4304030000000  0.5318050000000  0.5610980000000 1.0
C      1  0.5294060000000  0.5657630000000  0.5625160000000 1.0
C      1  0.5697060000000  0.4679610000000  0.5618220000000 1.0
C      1  0.5937430000000  0.4985620000000  0.5003320000000 1.0
C      1  0.5015430000000  0.5904410000000  0.4999320000000 1.0
C      1  0.4075820000000  0.4985320000000  0.5008070000000 1.0
C      1  0.4989430000000  0.4078180000000  0.5011560000000 1.0
C      1  0.4953590000000  0.4976590000000  0.5200950000000 1.0
END
