TITL C-3577088-510-623 1.29431046607054e-07 125000 -272.575120902633 0 0 47 (Cs) n - 1
REM
REM in /home/bkarasulu/work/CARBON/AIRSS/Generating-Clusters/EDIP-Nigel-Params/with-SteepDescent/Higher-Symm/SD-CG/HFTN-CG
REM
REM
REM
REM
REM
REM ./C.cell (12c818d87b63d06a65506943cc24bca4)
REM
REM compiler GCC version 9.2.1 20190827 (Red Hat 9.2.1-1)
REM options -cpp -mtune=generic -march=x86-64 -g -O0 -fpre-include=/usr/include/finclude/math-vector-fortran.h
REM seed 1782070744 481234498 1397320109 1939334137 437966684 -1280797618 309496656 -1943227144 -870516673 11179096 -1125133874 364267236 207264055 363812541 1971736918 1520666813 -1368891822 1625307379 1762019786 1303031858 329166224 1416961653 193764262 -181158431 -781843227 606284722 709688940 -169661809 -1587910764 329302802 -2122619330 913904693 1098904398
REM
CELL 1.54180   50.00000   50.00000   50.00000   90.00000   90.00000   90.00000
LATT -1
SFAC C  
C      1  0.4744210000000  0.5328710000000  0.5674130000000 1.0
C      1  0.4734630000000  0.5668600000000  0.5030570000000 1.0
C      1  0.4748640000000  0.5135550000000  0.4313370000000 1.0
C      1  0.4736990000000  0.4350860000000  0.4647890000000 1.0
C      1  0.4739490000000  0.4482210000000  0.5564940000000 1.0
C      1  0.5246060000000  0.5328040000000  0.5674270000000 1.0
C      1  0.5256890000000  0.5667900000000  0.5030710000000 1.0
C      1  0.5241840000000  0.5134890000000  0.4313500000000 1.0
C      1  0.5251200000000  0.4350170000000  0.4648030000000 1.0
C      1  0.5248560000000  0.4481520000000  0.5565070000000 1.0
C      1  0.4773800000000  0.5234750000000  0.4936450000000 1.0
C      1  0.4667970000000  0.5040280000000  0.4740250000000 1.0
C      1  0.4599280000000  0.4793050000000  0.4891370000000 1.0
C      1  0.4722420000000  0.4813020000000  0.5150300000000 1.0
C      1  0.4837570000000  0.5086650000000  0.5192060000000 1.0
C      1  0.5216610000000  0.5234150000000  0.4936570000000 1.0
C      1  0.5322020000000  0.5039400000000  0.4740430000000 1.0
C      1  0.5389970000000  0.4791990000000  0.4891580000000 1.0
C      1  0.5266740000000  0.4812280000000  0.5150440000000 1.0
C      1  0.5152300000000  0.5086230000000  0.5192140000000 1.0
C      1  0.5131150000000  0.4162630000000  0.4817190000000 1.0
C      1  0.5132130000000  0.4604730000000  0.5791360000000 1.0
C      1  0.5135370000000  0.5593270000000  0.5684980000000 1.0
C      1  0.5133870000000  0.5856360000000  0.4861870000000 1.0
C      1  0.5133680000000  0.5030250000000  0.4078290000000 1.0
C      1  0.4856440000000  0.4163000000000  0.4817110000000 1.0
C      1  0.4856120000000  0.4605100000000  0.5791290000000 1.0
C      1  0.4855600000000  0.5593650000000  0.5684910000000 1.0
C      1  0.4858250000000  0.5856730000000  0.4861800000000 1.0
C      1  0.4856640000000  0.5030620000000  0.4078210000000 1.0
C      1  0.4482020000000  0.5119460000000  0.4407650000000 1.0
C      1  0.4581510000000  0.4550310000000  0.4760430000000 1.0
C      1  0.4653450000000  0.4647600000000  0.5360210000000 1.0
C      1  0.4723530000000  0.5215030000000  0.5421650000000 1.0
C      1  0.4586060000000  0.5451800000000  0.4918420000000 1.0
C      1  0.5508360000000  0.5118080000000  0.4407920000000 1.0
C      1  0.5407150000000  0.4549210000000  0.4760660000000 1.0
C      1  0.5335150000000  0.4646680000000  0.5360390000000 1.0
C      1  0.5266560000000  0.5214300000000  0.5421800000000 1.0
C      1  0.5404940000000  0.5450700000000  0.4918640000000 1.0
C      1  0.4994240000000  0.4435560000000  0.4545400000000 1.0
C      1  0.4993860000000  0.4347260000000  0.5508250000000 1.0
C      1  0.4994980000000  0.5240610000000  0.5812300000000 1.0
C      1  0.4995610000000  0.5572160000000  0.5119920000000 1.0
C      1  0.4995140000000  0.5091910000000  0.4456400000000 1.0
C      1  0.4419840000000  0.5205330000000  0.4670800000000 1.0
C      1  0.5570630000000  0.5203790000000  0.4671100000000 1.0
END
