TITL C-3577080-309-187 -1.68665582740949e-06 125000 -948.724491152538 0 0 152 (Ci) n - 1
REM
REM in /home/bkarasulu/work/CARBON/AIRSS/Generating-Clusters/EDIP-Nigel-Params/with-SteepDescent/Higher-Symm/SD-CG/HFTN-CG
REM
REM
REM
REM
REM
REM ./C.cell (12c818d87b63d06a65506943cc24bca4)
REM
REM compiler GCC version 9.2.1 20190827 (Red Hat 9.2.1-1)
REM options -cpp -mtune=generic -march=x86-64 -g -O0 -fpre-include=/usr/include/finclude/math-vector-fortran.h
REM seed 843044389 554291955 166449788 638106581 618526483 1406896199 -637108855 -436086205 -1027603082 -1419578666 918753089 -1811539067 -866245676 -1678426031 -896649985 1973207981 2031293205 -657690234 -1193914952 555212379 -1332460855 1044833860 -486632424 114423445 -595269007 1690539325 -876282588 -1139482506 -2016535467 2040011391 -657931212 -915404385 -823841369
REM
CELL 1.54180   50.00000   50.00000   50.00000   90.00000   90.00000   90.00000
LATT -1
SFAC C  
C      1  0.5093600000000  0.5355750000000  0.4431980000000 1.0
C      1  0.4906400000000  0.4644250000000  0.5568020000000 1.0
C      1  0.5512050000000  0.4680280000000  0.5103390000000 1.0
C      1  0.4487950000000  0.5319720000000  0.4896610000000 1.0
C      1  0.5371320000000  0.5208190000000  0.3985690000000 1.0
C      1  0.4628680000000  0.4791810000000  0.6014310000000 1.0
C      1  0.4763220000000  0.4345840000000  0.5865240000000 1.0
C      1  0.5236780000000  0.5654160000000  0.4134760000000 1.0
C      1  0.4080060000000  0.5329810000000  0.4797280000000 1.0
C      1  0.5919940000000  0.4670190000000  0.5202720000000 1.0
C      1  0.5153600000000  0.5401680000000  0.3994480000000 1.0
C      1  0.4846400000000  0.4598320000000  0.6005520000000 1.0
C      1  0.5689030000000  0.4351970000000  0.5005110000000 1.0
C      1  0.4310970000000  0.5648030000000  0.4994890000000 1.0
C      1  0.5823520000000  0.5626470000000  0.4581390000000 1.0
C      1  0.4176480000000  0.4373530000000  0.5418610000000 1.0
C      1  0.4980830000000  0.4203200000000  0.5713160000000 1.0
C      1  0.5019170000000  0.5796800000000  0.4286840000000 1.0
C      1  0.4982100000000  0.4834870000000  0.4443020000000 1.0
C      1  0.5017900000000  0.5165130000000  0.5556980000000 1.0
C      1  0.4690190000000  0.5084200000000  0.6009530000000 1.0
C      1  0.5309810000000  0.4915800000000  0.3990470000000 1.0
C      1  0.5016680000000  0.5467480000000  0.5873380000000 1.0
C      1  0.4983320000000  0.4532520000000  0.4126620000000 1.0
C      1  0.4110830000000  0.5112570000000  0.5261510000000 1.0
C      1  0.5889170000000  0.4887430000000  0.4738490000000 1.0
C      1  0.5343070000000  0.5830990000000  0.5320590000000 1.0
C      1  0.4656930000000  0.4169010000000  0.4679410000000 1.0
C      1  0.4613810000000  0.5189370000000  0.4304300000000 1.0
C      1  0.5386190000000  0.4810630000000  0.5695700000000 1.0
C      1  0.5472260000000  0.4164640000000  0.5013850000000 1.0
C      1  0.4527740000000  0.5835360000000  0.4986150000000 1.0
C      1  0.5888570000000  0.4896780000000  0.5030810000000 1.0
C      1  0.4111430000000  0.5103220000000  0.4969190000000 1.0
C      1  0.5467870000000  0.5402090000000  0.4970200000000 1.0
C      1  0.4532130000000  0.4597910000000  0.5029800000000 1.0
C      1  0.4714540000000  0.5079710000000  0.4782760000000 1.0
C      1  0.5285460000000  0.4920290000000  0.5217240000000 1.0
C      1  0.5143500000000  0.4454480000000  0.5666640000000 1.0
C      1  0.4856500000000  0.5545520000000  0.4333360000000 1.0
C      1  0.4885050000000  0.5314640000000  0.3957040000000 1.0
C      1  0.5114950000000  0.4685360000000  0.6042960000000 1.0
C      1  0.4902800000000  0.4633900000000  0.4652360000000 1.0
C      1  0.5097200000000  0.5366100000000  0.5347640000000 1.0
C      1  0.5701880000000  0.5239940000000  0.5361110000000 1.0
C      1  0.4298120000000  0.4760060000000  0.4638890000000 1.0
C      1  0.4420950000000  0.4285460000000  0.5521620000000 1.0
C      1  0.5579050000000  0.5714540000000  0.4478380000000 1.0
C      1  0.4275810000000  0.4921420000000  0.4391850000000 1.0
C      1  0.5724190000000  0.5078580000000  0.5608150000000 1.0
C      1  0.4520770000000  0.4025240000000  0.5130410000000 1.0
C      1  0.5479230000000  0.5974760000000  0.4869590000000 1.0
C      1  0.4905230000000  0.4924780000000  0.5146880000000 1.0
C      1  0.5094770000000  0.5075220000000  0.4853120000000 1.0
C      1  0.4439090000000  0.5315240000000  0.3991270000000 1.0
C      1  0.5560910000000  0.4684760000000  0.6008730000000 1.0
C      1  0.5079270000000  0.4042560000000  0.4804090000000 1.0
C      1  0.4920730000000  0.5957440000000  0.5195910000000 1.0
C      1  0.4886610000000  0.4078220000000  0.5465240000000 1.0
C      1  0.5113390000000  0.5921780000000  0.4534760000000 1.0
C      1  0.5018830000000  0.4822290000000  0.4003330000000 1.0
C      1  0.4981170000000  0.5177710000000  0.5996670000000 1.0
C      1  0.5385630000000  0.4672680000000  0.4810120000000 1.0
C      1  0.4614370000000  0.5327320000000  0.5189880000000 1.0
C      1  0.5947020000000  0.5409790000000  0.4980220000000 1.0
C      1  0.4052980000000  0.4590210000000  0.5019780000000 1.0
C      1  0.5780050000000  0.4602620000000  0.5444010000000 1.0
C      1  0.4219950000000  0.5397380000000  0.4555990000000 1.0
C      1  0.4650710000000  0.5869770000000  0.5242730000000 1.0
C      1  0.5349290000000  0.4130230000000  0.4757270000000 1.0
C      1  0.5079330000000  0.5875830000000  0.5424100000000 1.0
C      1  0.4920670000000  0.4124170000000  0.4575900000000 1.0
C      1  0.4390310000000  0.5169940000000  0.4492430000000 1.0
C      1  0.5609690000000  0.4830060000000  0.5507570000000 1.0
C      1  0.4172760000000  0.5591880000000  0.5223990000000 1.0
C      1  0.5827240000000  0.4408120000000  0.4776010000000 1.0
C      1  0.5534470000000  0.5440670000000  0.5898110000000 1.0
C      1  0.4465530000000  0.4559330000000  0.4101890000000 1.0
C      1  0.5333960000000  0.4508990000000  0.5991780000000 1.0
C      1  0.4666040000000  0.5491010000000  0.4008220000000 1.0
C      1  0.5027760000000  0.4393330000000  0.4492670000000 1.0
C      1  0.4972240000000  0.5606670000000  0.5507330000000 1.0
C      1  0.5939630000000  0.5390150000000  0.4682490000000 1.0
C      1  0.4060370000000  0.4609850000000  0.5317510000000 1.0
C      1  0.5523340000000  0.5185580000000  0.4738250000000 1.0
C      1  0.4476660000000  0.4814420000000  0.5261750000000 1.0
C      1  0.4534630000000  0.5591320000000  0.5660080000000 1.0
C      1  0.5465370000000  0.4408680000000  0.4339920000000 1.0
C      1  0.4214710000000  0.4859070000000  0.5389970000000 1.0
C      1  0.5785290000000  0.5140930000000  0.4610030000000 1.0
C      1  0.5698340000000  0.5539100000000  0.5384480000000 1.0
C      1  0.4301660000000  0.4460900000000  0.4615520000000 1.0
C      1  0.4960590000000  0.4185760000000  0.5047340000000 1.0
C      1  0.5039410000000  0.5814240000000  0.4952660000000 1.0
C      1  0.4733080000000  0.5555430000000  0.5860190000000 1.0
C      1  0.5266920000000  0.4444570000000  0.4139810000000 1.0
C      1  0.4210430000000  0.5361570000000  0.5371090000000 1.0
C      1  0.5789570000000  0.4638430000000  0.4628910000000 1.0
C      1  0.5096960000000  0.3945240000000  0.5305600000000 1.0
C      1  0.4903040000000  0.6054760000000  0.4694400000000 1.0
C      1  0.5120540000000  0.5362700000000  0.4736280000000 1.0
C      1  0.4879460000000  0.4637300000000  0.5263720000000 1.0
C      1  0.4690350000000  0.5486750000000  0.4617990000000 1.0
C      1  0.5309650000000  0.4513250000000  0.5382010000000 1.0
C      1  0.5435350000000  0.5616910000000  0.5484480000000 1.0
C      1  0.4564650000000  0.4383090000000  0.4515520000000 1.0
C      1  0.5330700000000  0.5571920000000  0.5763020000000 1.0
C      1  0.4669300000000  0.4428080000000  0.4236980000000 1.0
C      1  0.5336250000000  0.5775340000000  0.5023510000000 1.0
C      1  0.4663750000000  0.4224660000000  0.4976490000000 1.0
C      1  0.5551040000000  0.4100250000000  0.5482470000000 1.0
C      1  0.4448960000000  0.5899750000000  0.4517530000000 1.0
C      1  0.4094570000000  0.4836540000000  0.4850570000000 1.0
C      1  0.5905430000000  0.5163460000000  0.5149430000000 1.0
C      1  0.4820290000000  0.5033310000000  0.3944600000000 1.0
C      1  0.5179710000000  0.4966690000000  0.6055400000000 1.0
C      1  0.4373160000000  0.5148080000000  0.5797660000000 1.0
C      1  0.5626840000000  0.4851920000000  0.4202340000000 1.0
C      1  0.4413250000000  0.4827750000000  0.4148710000000 1.0
C      1  0.5586750000000  0.5172250000000  0.5851290000000 1.0
C      1  0.4596450000000  0.4092200000000  0.5392000000000 1.0
C      1  0.5403550000000  0.5907800000000  0.4608000000000 1.0
C      1  0.4522610000000  0.5027740000000  0.3955480000000 1.0
C      1  0.5477390000000  0.4972260000000  0.6044520000000 1.0
C      1  0.5101360000000  0.4633730000000  0.4882960000000 1.0
C      1  0.4898640000000  0.5366270000000  0.5117040000000 1.0
C      1  0.4726840000000  0.5196080000000  0.5642380000000 1.0
C      1  0.5273160000000  0.4803920000000  0.4357620000000 1.0
C      1  0.5078290000000  0.4466110000000  0.5125120000000 1.0
C      1  0.4921710000000  0.5533890000000  0.4874880000000 1.0
C      1  0.4601130000000  0.4774870000000  0.4774350000000 1.0
C      1  0.5398870000000  0.5225130000000  0.5225650000000 1.0
C      1  0.5323940000000  0.4384460000000  0.4596020000000 1.0
C      1  0.4676060000000  0.5615540000000  0.5403980000000 1.0
C      1  0.4416630000000  0.4687610000000  0.5832450000000 1.0
C      1  0.5583370000000  0.5312390000000  0.4167550000000 1.0
C      1  0.4867430000000  0.5107480000000  0.4474500000000 1.0
C      1  0.5132570000000  0.4892520000000  0.5525500000000 1.0
C      1  0.4424480000000  0.5616230000000  0.4571720000000 1.0
C      1  0.5575520000000  0.4383770000000  0.5428280000000 1.0
C      1  0.5734790000000  0.5103710000000  0.4308510000000 1.0
C      1  0.4265210000000  0.4896290000000  0.5691490000000 1.0
C      1  0.5671380000000  0.4614310000000  0.4365770000000 1.0
C      1  0.4328620000000  0.5385690000000  0.5634230000000 1.0
C      1  0.5724800000000  0.5582240000000  0.5078500000000 1.0
C      1  0.4275200000000  0.4417760000000  0.4921500000000 1.0
C      1  0.5331980000000  0.4956000000000  0.4686150000000 1.0
C      1  0.4668020000000  0.5044000000000  0.5313850000000 1.0
C      1  0.4568680000000  0.4479170000000  0.5680430000000 1.0
C      1  0.5431320000000  0.5520830000000  0.4319570000000 1.0
C      1  0.5383700000000  0.4022170000000  0.5262320000000 1.0
C      1  0.4616300000000  0.5977830000000  0.4737680000000 1.0
END
