TITL C-3577085-527-100 -7.03536310828203e-06 125000 -177.247963781925 0 0 30 (C1) n - 1
REM
REM in /home/bkarasulu/work/CARBON/AIRSS/Generating-Clusters/EDIP-Nigel-Params/with-SteepDescent/Higher-Symm/SD-CG/HFTN-CG
REM
REM
REM
REM
REM
REM ./C.cell (12c818d87b63d06a65506943cc24bca4)
REM
REM compiler GCC version 9.2.1 20190827 (Red Hat 9.2.1-1)
REM options -cpp -mtune=generic -march=x86-64 -g -O0 -fpre-include=/usr/include/finclude/math-vector-fortran.h
REM seed -1031124394 -262175229 -1591224575 -2083873284 629502311 2104545618 731695698 534493449 -829826861 -1078790591 -1887364493 -431400965 -1123167508 -2110483136 551707461 1900732969 -464955200 -1764291918 -563779631 1234245836 1110748353 2130374360 62026546 -2041244838 964443790 116083637 -1223517993 -660221713 -680268478 237339108 1629413861 970562271 1209280526
REM
CELL 1.54180   50.00000   50.00000   50.00000   90.00000   90.00000   90.00000
LATT -1
SFAC C  
C      1  0.4572510000000  0.5040510000000  0.4805140000000 1.0
C      1  0.4987820000000  0.5079820000000  0.5485850000000 1.0
C      1  0.5445050000000  0.5029370000000  0.4740590000000 1.0
C      1  0.5198600000000  0.4678410000000  0.5335020000000 1.0
C      1  0.5147450000000  0.4622840000000  0.4627370000000 1.0
C      1  0.4572830000000  0.4612120000000  0.5062750000000 1.0
C      1  0.5749300000000  0.5434850000000  0.4732150000000 1.0
C      1  0.4470670000000  0.5497150000000  0.4605650000000 1.0
C      1  0.4798500000000  0.5524990000000  0.5650490000000 1.0
C      1  0.5252540000000  0.4959970000000  0.5430990000000 1.0
C      1  0.5236810000000  0.4911330000000  0.4559120000000 1.0
C      1  0.4484430000000  0.4886330000000  0.5045540000000 1.0
C      1  0.4540680000000  0.5328780000000  0.4822970000000 1.0
C      1  0.4965990000000  0.5369730000000  0.5482290000000 1.0
C      1  0.5496010000000  0.5312410000000  0.4695480000000 1.0
C      1  0.4807110000000  0.4937240000000  0.4665280000000 1.0
C      1  0.4781610000000  0.4908540000000  0.5372890000000 1.0
C      1  0.5413200000000  0.4945560000000  0.5019030000000 1.0
C      1  0.5065760000000  0.5546860000000  0.5680090000000 1.0
C      1  0.5652220000000  0.5413880000000  0.4481490000000 1.0
C      1  0.4294300000000  0.5468620000000  0.4807720000000 1.0
C      1  0.4762890000000  0.4485810000000  0.4890300000000 1.0
C      1  0.4994730000000  0.4373990000000  0.5020870000000 1.0
C      1  0.5234750000000  0.4479790000000  0.4887540000000 1.0
C      1  0.4526990000000  0.5010340000000  0.5297840000000 1.0
C      1  0.5436570000000  0.5100750000000  0.5255970000000 1.0
C      1  0.5001160000000  0.5075860000000  0.4511130000000 1.0
C      1  0.5357780000000  0.4667800000000  0.5084640000000 1.0
C      1  0.4854870000000  0.4652330000000  0.4663340000000 1.0
C      1  0.4896840000000  0.4644000000000  0.5280450000000 1.0
END
