TITL C-3577081-279-683 6.64590761269585e-07 125000 -547.33366737812 0 0 89 (C1) n - 1
REM
REM in /home/bkarasulu/work/CARBON/AIRSS/Generating-Clusters/EDIP-Nigel-Params/with-SteepDescent/Higher-Symm/SD-CG/HFTN-CG
REM
REM
REM
REM
REM
REM ./C.cell (12c818d87b63d06a65506943cc24bca4)
REM
REM compiler GCC version 9.2.1 20190827 (Red Hat 9.2.1-1)
REM options -cpp -mtune=generic -march=x86-64 -g -O0 -fpre-include=/usr/include/finclude/math-vector-fortran.h
REM seed 161611531 1400292147 1218676779 -1834507336 -924353392 -2107930653 167680303 15223915 644044938 1528059180 -1646510510 663840487 1517765608 -942172630 2062544193 -1078317381 815112113 1844073354 -1824071848 86087601 -194595426 -790644191 992029770 1191717606 -1498342758 -988263866 -429153409 2015572604 -1288297379 -417691244 -1986024100 346332752 -372281288
REM
CELL 1.54180   50.00000   50.00000   50.00000   90.00000   90.00000   90.00000
LATT -1
SFAC C  
C      1  0.5105440000000  0.5294090000000  0.5446640000000 1.0
C      1  0.5450580000000  0.5293340000000  0.5046110000000 1.0
C      1  0.5182000000000  0.5291520000000  0.4583720000000 1.0
C      1  0.4627520000000  0.5319000000000  0.4683620000000 1.0
C      1  0.4618430000000  0.5288750000000  0.5231100000000 1.0
C      1  0.5094380000000  0.4723110000000  0.5437350000000 1.0
C      1  0.5488820000000  0.4688730000000  0.5028130000000 1.0
C      1  0.5180560000000  0.4712240000000  0.4582590000000 1.0
C      1  0.4660360000000  0.4714420000000  0.4701260000000 1.0
C      1  0.4604060000000  0.4720420000000  0.5227970000000 1.0
C      1  0.5613120000000  0.5539770000000  0.4609170000000 1.0
C      1  0.4828690000000  0.5511440000000  0.4293600000000 1.0
C      1  0.4275300000000  0.5517130000000  0.4968330000000 1.0
C      1  0.4729310000000  0.5538130000000  0.5672260000000 1.0
C      1  0.5586010000000  0.5520640000000  0.5474840000000 1.0
C      1  0.5606330000000  0.4493670000000  0.4590350000000 1.0
C      1  0.4823760000000  0.4466630000000  0.4290560000000 1.0
C      1  0.4249870000000  0.4487300000000  0.4951560000000 1.0
C      1  0.4730700000000  0.4475960000000  0.5672180000000 1.0
C      1  0.5554570000000  0.4494300000000  0.5459530000000 1.0
C      1  0.4818610000000  0.5245820000000  0.4212380000000 1.0
C      1  0.4201110000000  0.5252050000000  0.4930540000000 1.0
C      1  0.4710810000000  0.5248740000000  0.5686320000000 1.0
C      1  0.5568400000000  0.5231990000000  0.5491560000000 1.0
C      1  0.5639640000000  0.5250240000000  0.4613890000000 1.0
C      1  0.4834680000000  0.4755960000000  0.4269380000000 1.0
C      1  0.4253870000000  0.4775720000000  0.4929280000000 1.0
C      1  0.4707400000000  0.4765290000000  0.5683970000000 1.0
C      1  0.5606130000000  0.4760690000000  0.5516610000000 1.0
C      1  0.5685710000000  0.4760040000000  0.4572110000000 1.0
C      1  0.5078760000000  0.5138370000000  0.4137190000000 1.0
C      1  0.4197310000000  0.5148820000000  0.4656540000000 1.0
C      1  0.4423810000000  0.5157710000000  0.5644600000000 1.0
C      1  0.5443100000000  0.5154450000000  0.5751340000000 1.0
C      1  0.5846320000000  0.5162470000000  0.4810170000000 1.0
C      1  0.5090530000000  0.4842180000000  0.4137960000000 1.0
C      1  0.4205660000000  0.4854930000000  0.4646480000000 1.0
C      1  0.4420570000000  0.4858890000000  0.5645480000000 1.0
C      1  0.5446020000000  0.4860850000000  0.5737980000000 1.0
C      1  0.5848310000000  0.4867120000000  0.4791800000000 1.0
C      1  0.4818830000000  0.4851300000000  0.5413120000000 1.0
C      1  0.5269750000000  0.4872000000000  0.5247580000000 1.0
C      1  0.5320140000000  0.4861710000000  0.4806590000000 1.0
C      1  0.4905300000000  0.4839930000000  0.4555650000000 1.0
C      1  0.4551850000000  0.4849240000000  0.4957930000000 1.0
C      1  0.4825500000000  0.5161740000000  0.5416480000000 1.0
C      1  0.5336550000000  0.5162250000000  0.5301580000000 1.0
C      1  0.5389060000000  0.5164750000000  0.4768420000000 1.0
C      1  0.4925560000000  0.5140210000000  0.4630300000000 1.0
C      1  0.4638480000000  0.5141420000000  0.4969130000000 1.0
C      1  0.4349800000000  0.5244690000000  0.5365720000000 1.0
C      1  0.5154940000000  0.5240030000000  0.5742940000000 1.0
C      1  0.5748850000000  0.5235460000000  0.5085070000000 1.0
C      1  0.5300100000000  0.5233590000000  0.4310460000000 1.0
C      1  0.4420280000000  0.5241670000000  0.4485540000000 1.0
C      1  0.4338620000000  0.4776190000000  0.5368720000000 1.0
C      1  0.5162220000000  0.4774980000000  0.5727250000000 1.0
C      1  0.5773160000000  0.4767580000000  0.5060560000000 1.0
C      1  0.5320890000000  0.4762680000000  0.4317740000000 1.0
C      1  0.4447670000000  0.4773330000000  0.4488280000000 1.0
C      1  0.5105070000000  0.5587910000000  0.5366180000000 1.0
C      1  0.5374620000000  0.5587270000000  0.5044340000000 1.0
C      1  0.5130260000000  0.5580660000000  0.4673280000000 1.0
C      1  0.4688930000000  0.5613220000000  0.4735180000000 1.0
C      1  0.4702510000000  0.5578450000000  0.5178830000000 1.0
C      1  0.5084790000000  0.4432400000000  0.5336670000000 1.0
C      1  0.5408820000000  0.4394510000000  0.5022960000000 1.0
C      1  0.5139760000000  0.4423110000000  0.4671670000000 1.0
C      1  0.4705790000000  0.4420250000000  0.4763910000000 1.0
C      1  0.4668290000000  0.4426480000000  0.5183100000000 1.0
C      1  0.4496680000000  0.5687090000000  0.4976660000000 1.0
C      1  0.4817310000000  0.5686070000000  0.5449230000000 1.0
C      1  0.5403560000000  0.5684850000000  0.5337840000000 1.0
C      1  0.5414270000000  0.5686190000000  0.4745080000000 1.0
C      1  0.4890200000000  0.5682700000000  0.4505210000000 1.0
C      1  0.4478650000000  0.4324890000000  0.4959440000000 1.0
C      1  0.4813010000000  0.4327380000000  0.5447260000000 1.0
C      1  0.5376030000000  0.4326330000000  0.5327410000000 1.0
C      1  0.5426800000000  0.4319360000000  0.4715960000000 1.0
C      1  0.4883190000000  0.4319620000000  0.4523570000000 1.0
C      1  0.5785670000000  0.4987790000000  0.5269130000000 1.0
C      1  0.4984600000000  0.5001950000000  0.5830110000000 1.0
C      1  0.5505950000000  0.5003670000000  0.4337780000000 1.0
C      1  0.4199360000000  0.5018070000000  0.5233300000000 1.0
C      1  0.4533280000000  0.5016180000000  0.4317580000000 1.0
C      1  0.4975890000000  0.5551070000000  0.4982570000000 1.0
C      1  0.5029690000000  0.4456430000000  0.5003090000000 1.0
C      1  0.5094290000000  0.4891640000000  0.5001840000000 1.0
C      1  0.4935740000000  0.5115800000000  0.4931730000000 1.0
END
