TITL C-3578203-1966-12 -2.26932506344153e-06 125000 -352.786618211445 0 0 58 (C1) n - 1
REM
REM in /home/bkarasulu/work/CARBON/AIRSS/Generating-Clusters/EDIP-Nigel-Params/with-SteepDescent/Higher-Symm/SD-CG/HFTN-CG
REM
REM
REM
REM
REM
REM ./C.cell (12c818d87b63d06a65506943cc24bca4)
REM
REM compiler GCC version 9.2.1 20190827 (Red Hat 9.2.1-1)
REM options -cpp -mtune=generic -march=x86-64 -g -O0 -fpre-include=/usr/include/finclude/math-vector-fortran.h
REM seed 837946424 1076268972 2089985203 -263329543 -2128595150 516521622 -1292571849 1088414472 -1296624168 2012972718 764073188 452990786 699549765 -332118216 -671914150 217202725 -1271623214 970907242 -368990361 1232497409 -2053342457 -971234014 -1464355117 1711122250 1708541733 -600752522 1684321055 -161305017 1036389477 -1116244584 -602212988 1125242859 -274236094
REM
CELL 1.54180   50.00000   50.00000   50.00000   90.00000   90.00000   90.00000
LATT -1
SFAC C  
C      1  0.5140370000000  0.5252410000000  0.5216190000000 1.0
C      1  0.5335040000000  0.5052850000000  0.5720360000000 1.0
C      1  0.5141400000000  0.4804780000000  0.4979680000000 1.0
C      1  0.5352440000000  0.4903680000000  0.4486910000000 1.0
C      1  0.5246420000000  0.5163370000000  0.4527870000000 1.0
C      1  0.4504910000000  0.4975060000000  0.4403330000000 1.0
C      1  0.4456030000000  0.4543700000000  0.5119800000000 1.0
C      1  0.5633410000000  0.5523610000000  0.4998020000000 1.0
C      1  0.4710390000000  0.5119580000000  0.5795050000000 1.0
C      1  0.4908950000000  0.4377740000000  0.5063060000000 1.0
C      1  0.4953040000000  0.5310900000000  0.5425830000000 1.0
C      1  0.4784350000000  0.4731760000000  0.5516230000000 1.0
C      1  0.4759610000000  0.5503220000000  0.5363760000000 1.0
C      1  0.4425340000000  0.5243580000000  0.4530990000000 1.0
C      1  0.5288640000000  0.4693660000000  0.4679270000000 1.0
C      1  0.4436230000000  0.5305220000000  0.5070960000000 1.0
C      1  0.4402780000000  0.4819180000000  0.5099830000000 1.0
C      1  0.4949730000000  0.5202660000000  0.4502500000000 1.0
C      1  0.5445860000000  0.4713190000000  0.5371660000000 1.0
C      1  0.5706330000000  0.5265360000000  0.5095990000000 1.0
C      1  0.4877340000000  0.4919310000000  0.4891020000000 1.0
C      1  0.4635060000000  0.4417690000000  0.4932900000000 1.0
C      1  0.5141400000000  0.4284040000000  0.4908130000000 1.0
C      1  0.5071450000000  0.5360810000000  0.4951650000000 1.0
C      1  0.5475270000000  0.5531260000000  0.4760220000000 1.0
C      1  0.4749360000000  0.5660100000000  0.4884590000000 1.0
C      1  0.5671860000000  0.5050430000000  0.4909680000000 1.0
C      1  0.4592750000000  0.4883190000000  0.5675850000000 1.0
C      1  0.5332550000000  0.5032580000000  0.5094150000000 1.0
C      1  0.4753450000000  0.5584550000000  0.4593000000000 1.0
C      1  0.5206100000000  0.4556600000000  0.5440820000000 1.0
C      1  0.5323240000000  0.5276630000000  0.4791270000000 1.0
C      1  0.4855140000000  0.5200800000000  0.4796360000000 1.0
C      1  0.5493930000000  0.4977410000000  0.5496220000000 1.0
C      1  0.4532720000000  0.5197830000000  0.4808370000000 1.0
C      1  0.4542780000000  0.5479520000000  0.4439090000000 1.0
C      1  0.5584840000000  0.4649800000000  0.4667840000000 1.0
C      1  0.5098580000000  0.4250260000000  0.4632460000000 1.0
C      1  0.5388260000000  0.4384510000000  0.5005900000000 1.0
C      1  0.5042960000000  0.5670240000000  0.4947340000000 1.0
C      1  0.5001100000000  0.4618040000000  0.5216970000000 1.0
C      1  0.4534220000000  0.4891630000000  0.4847500000000 1.0
C      1  0.4857600000000  0.4666940000000  0.4528600000000 1.0
C      1  0.4618520000000  0.4519000000000  0.4622850000000 1.0
C      1  0.4440110000000  0.5068470000000  0.5255000000000 1.0
C      1  0.4420220000000  0.5072640000000  0.5540400000000 1.0
C      1  0.5030290000000  0.4661550000000  0.5655890000000 1.0
C      1  0.4805170000000  0.4940610000000  0.4395460000000 1.0
C      1  0.5027290000000  0.5577600000000  0.4501750000000 1.0
C      1  0.5521450000000  0.4613190000000  0.5106620000000 1.0
C      1  0.5217840000000  0.5698030000000  0.4700810000000 1.0
C      1  0.4422390000000  0.4749000000000  0.4596140000000 1.0
C      1  0.5632950000000  0.5175470000000  0.5351860000000 1.0
C      1  0.5148520000000  0.4868850000000  0.5818910000000 1.0
C      1  0.4976110000000  0.5194450000000  0.5694550000000 1.0
C      1  0.5682290000000  0.4760820000000  0.4914810000000 1.0
C      1  0.5108980000000  0.4511340000000  0.4528720000000 1.0
C      1  0.4604630000000  0.5539300000000  0.5128990000000 1.0
END
