TITL C-3577078-809-45 -1.82598000648366e-05 125000 -449.576445457495 0 0 76 (C1) n - 1
REM
REM in /home/bkarasulu/work/CARBON/AIRSS/Generating-Clusters/EDIP-Nigel-Params/with-SteepDescent/Higher-Symm/SD-CG/HFTN-CG
REM
REM
REM
REM
REM
REM ./C.cell (12c818d87b63d06a65506943cc24bca4)
REM
REM compiler GCC version 9.2.1 20190827 (Red Hat 9.2.1-1)
REM options -cpp -mtune=generic -march=x86-64 -g -O0 -fpre-include=/usr/include/finclude/math-vector-fortran.h
REM seed 907363 126950986 20498890 1983658245 -2076007148 996422693 -1708354880 -1694684467 -995556395 -927436544 162788816 1062904042 1182101797 267907129 -838025766 -156593642 1350404074 2067112871 419404349 -1320639786 735189563 -1045674024 1697086846 -1128812699 411041819 -70393726 1952505552 -1870957201 1078455997 -1273561676 510025810 1343822746 1718998812
REM
CELL 1.54180   50.00000   50.00000   50.00000   90.00000   90.00000   90.00000
LATT -1
SFAC C  
C      1  0.5765630000000  0.4981750000000  0.5296320000000 1.0
C      1  0.5258900000000  0.4963730000000  0.5782990000000 1.0
C      1  0.4530780000000  0.5021280000000  0.5703430000000 1.0
C      1  0.4165250000000  0.4992090000000  0.5071460000000 1.0
C      1  0.4405440000000  0.4943690000000  0.4409260000000 1.0
C      1  0.5100250000000  0.5058020000000  0.4226910000000 1.0
C      1  0.5718440000000  0.5040840000000  0.4586790000000 1.0
C      1  0.5336280000000  0.5637050000000  0.5313680000000 1.0
C      1  0.5065100000000  0.5676860000000  0.5436230000000 1.0
C      1  0.4681240000000  0.5632060000000  0.5220770000000 1.0
C      1  0.4583130000000  0.5550770000000  0.4949840000000 1.0
C      1  0.4839270000000  0.5574710000000  0.4470790000000 1.0
C      1  0.5039720000000  0.5530530000000  0.4672530000000 1.0
C      1  0.5453980000000  0.5432740000000  0.4936790000000 1.0
C      1  0.5557740000000  0.4537820000000  0.4704990000000 1.0
C      1  0.5459610000000  0.4509680000000  0.5190020000000 1.0
C      1  0.5062240000000  0.4521450000000  0.5523670000000 1.0
C      1  0.4561030000000  0.4515210000000  0.5515080000000 1.0
C      1  0.4438950000000  0.4497340000000  0.5027100000000 1.0
C      1  0.4764530000000  0.4559870000000  0.4647400000000 1.0
C      1  0.5183570000000  0.4534930000000  0.4368660000000 1.0
C      1  0.4863120000000  0.4914450000000  0.4230840000000 1.0
C      1  0.5534470000000  0.4948440000000  0.4399850000000 1.0
C      1  0.5804120000000  0.4879170000000  0.5041960000000 1.0
C      1  0.5448580000000  0.4825750000000  0.5635770000000 1.0
C      1  0.4766770000000  0.4902960000000  0.5791370000000 1.0
C      1  0.4239040000000  0.4897120000000  0.5321470000000 1.0
C      1  0.4301350000000  0.4820780000000  0.4635660000000 1.0
C      1  0.5669100000000  0.4604250000000  0.4987650000000 1.0
C      1  0.5361010000000  0.4567910000000  0.5485070000000 1.0
C      1  0.4808520000000  0.4615930000000  0.5678760000000 1.0
C      1  0.4359160000000  0.4612100000000  0.5303030000000 1.0
C      1  0.4458770000000  0.4574610000000  0.4732630000000 1.0
C      1  0.4895440000000  0.4635890000000  0.4351980000000 1.0
C      1  0.5467210000000  0.4649330000000  0.4436170000000 1.0
C      1  0.5599130000000  0.4958520000000  0.4834780000000 1.0
C      1  0.5491060000000  0.4914630000000  0.5350360000000 1.0
C      1  0.5020150000000  0.4943770000000  0.5626730000000 1.0
C      1  0.4524830000000  0.4945420000000  0.5425700000000 1.0
C      1  0.4391280000000  0.4918830000000  0.4910060000000 1.0
C      1  0.4684230000000  0.4956540000000  0.4465880000000 1.0
C      1  0.5234630000000  0.4962180000000  0.4462450000000 1.0
C      1  0.5189910000000  0.5744510000000  0.5715960000000 1.0
C      1  0.4624460000000  0.5678920000000  0.5508980000000 1.0
C      1  0.4287870000000  0.5551120000000  0.5037780000000 1.0
C      1  0.4571560000000  0.5474920000000  0.4501330000000 1.0
C      1  0.5249340000000  0.5593110000000  0.4260410000000 1.0
C      1  0.5525760000000  0.5553300000000  0.4695860000000 1.0
C      1  0.5636450000000  0.5640260000000  0.5324210000000 1.0
C      1  0.5296220000000  0.4322770000000  0.5032430000000 1.0
C      1  0.4953270000000  0.4335970000000  0.5337530000000 1.0
C      1  0.4670210000000  0.4278930000000  0.5372300000000 1.0
C      1  0.4577550000000  0.4241250000000  0.5086610000000 1.0
C      1  0.4850030000000  0.4266190000000  0.4641300000000 1.0
C      1  0.5146660000000  0.4298230000000  0.4545860000000 1.0
C      1  0.5372680000000  0.4315460000000  0.4750990000000 1.0
C      1  0.4395280000000  0.5506180000000  0.4729180000000 1.0
C      1  0.4975580000000  0.5580250000000  0.4224230000000 1.0
C      1  0.5287920000000  0.5587070000000  0.4539770000000 1.0
C      1  0.5683190000000  0.5545280000000  0.5052980000000 1.0
C      1  0.5477190000000  0.5712960000000  0.5588850000000 1.0
C      1  0.4875890000000  0.5724040000000  0.5663300000000 1.0
C      1  0.4372020000000  0.5624500000000  0.5330410000000 1.0
C      1  0.5369550000000  0.5144690000000  0.4934650000000 1.0
C      1  0.5272530000000  0.5060420000000  0.5209660000000 1.0
C      1  0.5008030000000  0.5051080000000  0.5344090000000 1.0
C      1  0.4727570000000  0.5084230000000  0.5245340000000 1.0
C      1  0.4635520000000  0.5110210000000  0.4942990000000 1.0
C      1  0.4770390000000  0.5180910000000  0.4655050000000 1.0
C      1  0.5144020000000  0.5106330000000  0.4728260000000 1.0
C      1  0.4834730000000  0.4168270000000  0.4922250000000 1.0
C      1  0.5006180000000  0.5876120000000  0.5044500000000 1.0
C      1  0.4933020000000  0.4644600000000  0.4884190000000 1.0
C      1  0.4960960000000  0.4938110000000  0.4929320000000 1.0
C      1  0.5014330000000  0.5646210000000  0.4925210000000 1.0
C      1  0.5010200000000  0.4379730000000  0.5050280000000 1.0
END
