TITL C-3577089-586-580 1.45056681412848e-06 125000 -1051.76021610581 0 0 165 (C1) n - 1
REM
REM in /home/bkarasulu/work/CARBON/AIRSS/Generating-Clusters/EDIP-Nigel-Params/with-SteepDescent/Higher-Symm/SD-CG/HFTN-CG
REM
REM
REM
REM
REM
REM ./C.cell (12c818d87b63d06a65506943cc24bca4)
REM
REM compiler GCC version 9.2.1 20190827 (Red Hat 9.2.1-1)
REM options -cpp -mtune=generic -march=x86-64 -g -O0 -fpre-include=/usr/include/finclude/math-vector-fortran.h
REM seed 170945944 -138934482 -1804883182 1862708188 2075015021 1120357092 -1305571512 -153508717 510629804 -521753405 746033586 -721381220 399639193 -1797290671 -1301946848 364427146 -1650700661 1777883078 -728615030 -1868258773 1031203772 -1946099234 247704793 1504653053 -441576505 275284031 74884389 -1194017110 341511257 -418249458 448448891 687561516 1494281829
REM
CELL 1.54180   50.00000   50.00000   50.00000   90.00000   90.00000   90.00000
LATT -1
SFAC C  
C      1  0.5951940000000  0.4571030000000  0.4963100000000 1.0
C      1  0.5297880000000  0.4573520000000  0.5898120000000 1.0
C      1  0.4218850000000  0.4568980000000  0.5606230000000 1.0
C      1  0.4222340000000  0.4568000000000  0.4460170000000 1.0
C      1  0.5273470000000  0.4568780000000  0.4088140000000 1.0
C      1  0.4162340000000  0.4852930000000  0.4388150000000 1.0
C      1  0.5313430000000  0.4858580000000  0.4008810000000 1.0
C      1  0.6036030000000  0.4860900000000  0.4973510000000 1.0
C      1  0.5309160000000  0.4858990000000  0.5995300000000 1.0
C      1  0.4153820000000  0.4857710000000  0.5664730000000 1.0
C      1  0.5035430000000  0.5004170000000  0.5234000000000 1.0
C      1  0.4785050000000  0.4995720000000  0.5105200000000 1.0
C      1  0.4843570000000  0.5012080000000  0.4830880000000 1.0
C      1  0.5124750000000  0.5026290000000  0.4795690000000 1.0
C      1  0.5248270000000  0.5007160000000  0.5047590000000 1.0
C      1  0.5223760000000  0.5495080000000  0.4252280000000 1.0
C      1  0.5773650000000  0.5483230000000  0.4981710000000 1.0
C      1  0.5264360000000  0.5496040000000  0.5783840000000 1.0
C      1  0.4349300000000  0.5505530000000  0.5511320000000 1.0
C      1  0.4328690000000  0.5503840000000  0.4518600000000 1.0
C      1  0.4636640000000  0.5370650000000  0.5280670000000 1.0
C      1  0.4650740000000  0.5390590000000  0.4706840000000 1.0
C      1  0.5138330000000  0.5376930000000  0.4528420000000 1.0
C      1  0.5482080000000  0.5372960000000  0.4971880000000 1.0
C      1  0.5134390000000  0.5379130000000  0.5436450000000 1.0
C      1  0.4522370000000  0.5881690000000  0.5177090000000 1.0
C      1  0.4681790000000  0.5899500000000  0.4594100000000 1.0
C      1  0.5287110000000  0.5900040000000  0.4569600000000 1.0
C      1  0.5494150000000  0.5883750000000  0.5143170000000 1.0
C      1  0.5020810000000  0.5881910000000  0.5513200000000 1.0
C      1  0.4915970000000  0.4704350000000  0.4358330000000 1.0
C      1  0.5571000000000  0.4716370000000  0.4731090000000 1.0
C      1  0.5475960000000  0.4734560000000  0.5475210000000 1.0
C      1  0.4684880000000  0.4721200000000  0.5564220000000 1.0
C      1  0.4391670000000  0.4717980000000  0.4878980000000 1.0
C      1  0.5282280000000  0.5752870000000  0.5608530000000 1.0
C      1  0.4523340000000  0.5755280000000  0.5456560000000 1.0
C      1  0.4418290000000  0.5760070000000  0.4675040000000 1.0
C      1  0.5124930000000  0.5776750000000  0.4334180000000 1.0
C      1  0.5671050000000  0.5769030000000  0.4916360000000 1.0
C      1  0.4123110000000  0.5020370000000  0.4638810000000 1.0
C      1  0.5060450000000  0.5027040000000  0.4051180000000 1.0
C      1  0.5920540000000  0.5029370000000  0.4746260000000 1.0
C      1  0.5497760000000  0.5028860000000  0.5827100000000 1.0
C      1  0.4392880000000  0.5035810000000  0.5750090000000 1.0
C      1  0.5139590000000  0.6043730000000  0.4793240000000 1.0
C      1  0.5240810000000  0.6034210000000  0.5069320000000 1.0
C      1  0.5011070000000  0.6040390000000  0.5252810000000 1.0
C      1  0.4765820000000  0.6041230000000  0.5088410000000 1.0
C      1  0.4844670000000  0.6051440000000  0.4803410000000 1.0
C      1  0.3947680000000  0.4906040000000  0.4885770000000 1.0
C      1  0.4767960000000  0.4937470000000  0.3927660000000 1.0
C      1  0.5944840000000  0.4945620000000  0.4434260000000 1.0
C      1  0.5820900000000  0.4907320000000  0.5694190000000 1.0
C      1  0.4553930000000  0.4949540000000  0.6014560000000 1.0
C      1  0.5086340000000  0.4943690000000  0.5511510000000 1.0
C      1  0.4528990000000  0.4981090000000  0.5242970000000 1.0
C      1  0.4651080000000  0.4956570000000  0.4613650000000 1.0
C      1  0.5236980000000  0.4945930000000  0.4540680000000 1.0
C      1  0.5538850000000  0.4977100000000  0.5088530000000 1.0
C      1  0.4977330000000  0.4491450000000  0.5269650000000 1.0
C      1  0.4722330000000  0.4488180000000  0.5066650000000 1.0
C      1  0.4851990000000  0.4484690000000  0.4770400000000 1.0
C      1  0.5170700000000  0.4485660000000  0.4794290000000 1.0
C      1  0.5250490000000  0.4490740000000  0.5104020000000 1.0
C      1  0.5917320000000  0.4752600000000  0.5448660000000 1.0
C      1  0.4806340000000  0.4774230000000  0.6015410000000 1.0
C      1  0.4061450000000  0.4755340000000  0.5156670000000 1.0
C      1  0.4554190000000  0.4765850000000  0.4070990000000 1.0
C      1  0.5738430000000  0.4773530000000  0.4282970000000 1.0
C      1  0.5017900000000  0.5478180000000  0.5946270000000 1.0
C      1  0.4193320000000  0.5402150000000  0.5290110000000 1.0
C      1  0.4427940000000  0.5480540000000  0.4240650000000 1.0
C      1  0.5523140000000  0.5482100000000  0.4237030000000 1.0
C      1  0.5867840000000  0.5459490000000  0.5264500000000 1.0
C      1  0.4506050000000  0.4532250000000  0.4353140000000 1.0
C      1  0.5458530000000  0.4538830000000  0.4333210000000 1.0
C      1  0.5785110000000  0.4536800000000  0.5222110000000 1.0
C      1  0.5005670000000  0.4536760000000  0.5811740000000 1.0
C      1  0.4124120000000  0.4482830000000  0.5324130000000 1.0
C      1  0.5628120000000  0.4994740000000  0.4791510000000 1.0
C      1  0.5377150000000  0.4996740000000  0.5551410000000 1.0
C      1  0.4606460000000  0.5001060000000  0.5538450000000 1.0
C      1  0.4391560000000  0.4992590000000  0.4772280000000 1.0
C      1  0.5012740000000  0.4978990000000  0.4346140000000 1.0
C      1  0.5092100000000  0.5332750000000  0.4025690000000 1.0
C      1  0.5959340000000  0.5330420000000  0.4782270000000 1.0
C      1  0.5503090000000  0.5328420000000  0.5877650000000 1.0
C      1  0.4338530000000  0.5336510000000  0.5762630000000 1.0
C      1  0.4089480000000  0.5323670000000  0.4593080000000 1.0
C      1  0.4449150000000  0.4698270000000  0.5158450000000 1.0
C      1  0.4708480000000  0.4662270000000  0.4543910000000 1.0
C      1  0.5335700000000  0.4667970000000  0.4584780000000 1.0
C      1  0.5513260000000  0.4679020000000  0.5193040000000 1.0
C      1  0.4963210000000  0.4670280000000  0.5537770000000 1.0
C      1  0.5154170000000  0.4127470000000  0.5580880000000 1.0
C      1  0.4501180000000  0.4135400000000  0.5343960000000 1.0
C      1  0.4526450000000  0.4130660000000  0.4631150000000 1.0
C      1  0.5212680000000  0.4125430000000  0.4442750000000 1.0
C      1  0.5599330000000  0.4126130000000  0.5032400000000 1.0
C      1  0.5636590000000  0.5479180000000  0.5447300000000 1.0
C      1  0.4780530000000  0.5506200000000  0.5767570000000 1.0
C      1  0.4251970000000  0.5465880000000  0.5011100000000 1.0
C      1  0.4699330000000  0.5574750000000  0.4198630000000 1.0
C      1  0.5624570000000  0.5510310000000  0.4513930000000 1.0
C      1  0.4952530000000  0.5229750000000  0.6104470000000 1.0
C      1  0.4009130000000  0.5176460000000  0.5283470000000 1.0
C      1  0.4398900000000  0.5223120000000  0.4089320000000 1.0
C      1  0.5667500000000  0.5233730000000  0.4141110000000 1.0
C      1  0.6009080000000  0.5216860000000  0.5365820000000 1.0
C      1  0.4476960000000  0.5260500000000  0.4929100000000 1.0
C      1  0.4836870000000  0.5255030000000  0.4465220000000 1.0
C      1  0.5462620000000  0.5293440000000  0.4674690000000 1.0
C      1  0.5423840000000  0.5256000000000  0.5366650000000 1.0
C      1  0.4824840000000  0.5295470000000  0.5533640000000 1.0
C      1  0.5736920000000  0.5409620000000  0.5721240000000 1.0
C      1  0.4544740000000  0.5435480000000  0.5939310000000 1.0
C      1  0.4001850000000  0.5396900000000  0.4860480000000 1.0
C      1  0.4821540000000  0.5431830000000  0.3974780000000 1.0
C      1  0.5913060000000  0.5433960000000  0.4514000000000 1.0
C      1  0.5781670000000  0.4519320000000  0.4727330000000 1.0
C      1  0.5487410000000  0.4518840000000  0.5671960000000 1.0
C      1  0.4506760000000  0.4514720000000  0.5665940000000 1.0
C      1  0.4213380000000  0.4525160000000  0.4756320000000 1.0
C      1  0.4989530000000  0.4506510000000  0.4162320000000 1.0
C      1  0.4829780000000  0.5788600000000  0.4349410000000 1.0
C      1  0.5564670000000  0.5779290000000  0.4638180000000 1.0
C      1  0.5507480000000  0.5750010000000  0.5422510000000 1.0
C      1  0.4760440000000  0.5772800000000  0.5628080000000 1.0
C      1  0.4350900000000  0.5746280000000  0.4961070000000 1.0
C      1  0.5477130000000  0.4255730000000  0.4446090000000 1.0
C      1  0.5674400000000  0.4258110000000  0.5284240000000 1.0
C      1  0.4927220000000  0.4252410000000  0.5726330000000 1.0
C      1  0.4302560000000  0.4284460000000  0.5179160000000 1.0
C      1  0.4614800000000  0.4249010000000  0.4373320000000 1.0
C      1  0.4901350000000  0.4229930000000  0.4247570000000 1.0
C      1  0.5682460000000  0.4241030000000  0.4676910000000 1.0
C      1  0.5514730000000  0.4243590000000  0.5551590000000 1.0
C      1  0.4611480000000  0.4233420000000  0.5642890000000 1.0
C      1  0.4256920000000  0.4250890000000  0.4871140000000 1.0
C      1  0.5032610000000  0.4960530000000  0.6012260000000 1.0
C      1  0.3966640000000  0.4952820000000  0.5463190000000 1.0
C      1  0.4373970000000  0.4952710000000  0.4207500000000 1.0
C      1  0.5550560000000  0.4960900000000  0.4156220000000 1.0
C      1  0.5954670000000  0.4957380000000  0.5239850000000 1.0
C      1  0.4626360000000  0.4144360000000  0.4915570000000 1.0
C      1  0.4966470000000  0.4146400000000  0.4618210000000 1.0
C      1  0.5354200000000  0.4149890000000  0.4857770000000 1.0
C      1  0.5245340000000  0.4150590000000  0.5290720000000 1.0
C      1  0.4804300000000  0.4147430000000  0.5317940000000 1.0
C      1  0.4751340000000  0.3877480000000  0.4970770000000 1.0
C      1  0.4949320000000  0.3882450000000  0.4755100000000 1.0
C      1  0.5217070000000  0.3884230000000  0.4876370000000 1.0
C      1  0.5185400000000  0.3882210000000  0.5168450000000 1.0
C      1  0.4898100000000  0.3878080000000  0.5225880000000 1.0
C      1  0.4805930000000  0.5614420000000  0.4828300000000 1.0
C      1  0.5098460000000  0.5606950000000  0.4739780000000 1.0
C      1  0.5272970000000  0.5598700000000  0.4997960000000 1.0
C      1  0.5081130000000  0.5606260000000  0.5244070000000 1.0
C      1  0.4791500000000  0.5603340000000  0.5139060000000 1.0
C      1  0.5924370000000  0.5217600000000  0.4304770000000 1.0
C      1  0.5927360000000  0.5183860000000  0.5657270000000 1.0
C      1  0.4649000000000  0.5217320000000  0.6116300000000 1.0
C      1  0.3888160000000  0.5164270000000  0.5014650000000 1.0
C      1  0.4635840000000  0.5207270000000  0.3903400000000 1.0
END
