TITL C-3577082-504-107 2.56857529498646e-07 125000 -1182.45929918325 0 0 186 (C1) n - 1
REM
REM in /home/bkarasulu/work/CARBON/AIRSS/Generating-Clusters/EDIP-Nigel-Params/with-SteepDescent/Higher-Symm/SD-CG/HFTN-CG
REM
REM
REM
REM
REM
REM ./C.cell (12c818d87b63d06a65506943cc24bca4)
REM
REM compiler GCC version 9.2.1 20190827 (Red Hat 9.2.1-1)
REM options -cpp -mtune=generic -march=x86-64 -g -O0 -fpre-include=/usr/include/finclude/math-vector-fortran.h
REM seed -319148226 489216625 -1251911450 1001995082 793311104 1663219367 428513796 -1177074982 -794834006 1330768748 -789918929 2058499963 856731352 -916437636 -899013758 1241427741 -1243637394 -1142619062 405939193 -718807463 277981334 258015559 1455228538 -300306579 1529207017 1367343479 1877687269 333343722 -417992084 -378659769 2095313420 -915955695 -1799353470
REM
CELL 1.54180   50.00000   50.00000   50.00000   90.00000   90.00000   90.00000
LATT -1
SFAC C  
C      1  0.5025210000000  0.4333550000000  0.4857880000000 1.0
C      1  0.4446600000000  0.5281200000000  0.4850510000000 1.0
C      1  0.5530780000000  0.5210470000000  0.4847240000000 1.0
C      1  0.4861100000000  0.5847840000000  0.5972000000000 1.0
C      1  0.5739480000000  0.4632240000000  0.5970850000000 1.0
C      1  0.4386860000000  0.4444660000000  0.5984010000000 1.0
C      1  0.4988140000000  0.4623890000000  0.5725950000000 1.0
C      1  0.4589660000000  0.5239430000000  0.5802570000000 1.0
C      1  0.5331930000000  0.5216980000000  0.5952400000000 1.0
C      1  0.5410600000000  0.4185220000000  0.4306590000000 1.0
C      1  0.4132230000000  0.5071170000000  0.4298010000000 1.0
C      1  0.5391510000000  0.5661790000000  0.4363940000000 1.0
C      1  0.5116440000000  0.5538700000000  0.6226300000000 1.0
C      1  0.5273740000000  0.4645330000000  0.6122530000000 1.0
C      1  0.4435240000000  0.4874690000000  0.6153320000000 1.0
C      1  0.4794230000000  0.4578530000000  0.6176460000000 1.0
C      1  0.4786980000000  0.5395910000000  0.5930810000000 1.0
C      1  0.5527900000000  0.5052110000000  0.6074330000000 1.0
C      1  0.5929340000000  0.4991210000000  0.4704870000000 1.0
C      1  0.4574560000000  0.4105420000000  0.4738340000000 1.0
C      1  0.4477590000000  0.5827230000000  0.4776830000000 1.0
C      1  0.5868960000000  0.5458960000000  0.5308490000000 1.0
C      1  0.5035720000000  0.3935110000000  0.5342760000000 1.0
C      1  0.4013670000000  0.5552030000000  0.5316300000000 1.0
C      1  0.4982740000000  0.5074910000000  0.5488530000000 1.0
C      1  0.5150870000000  0.4846560000000  0.5618480000000 1.0
C      1  0.4709180000000  0.5053850000000  0.5608300000000 1.0
C      1  0.5524680000000  0.5839120000000  0.4562970000000 1.0
C      1  0.5501520000000  0.4039480000000  0.4553070000000 1.0
C      1  0.3984250000000  0.5056910000000  0.4555670000000 1.0
C      1  0.4582660000000  0.5008760000000  0.4359230000000 1.0
C      1  0.5189700000000  0.5460920000000  0.4501550000000 1.0
C      1  0.5330640000000  0.4540430000000  0.4451760000000 1.0
C      1  0.5002800000000  0.3941670000000  0.5623460000000 1.0
C      1  0.3973650000000  0.5589600000000  0.5594330000000 1.0
C      1  0.5826680000000  0.5420330000000  0.5595340000000 1.0
C      1  0.4709920000000  0.4581290000000  0.5533470000000 1.0
C      1  0.4771220000000  0.5600510000000  0.5363950000000 1.0
C      1  0.5613230000000  0.4926880000000  0.5562510000000 1.0
C      1  0.5835780000000  0.4400150000000  0.5067060000000 1.0
C      1  0.4183900000000  0.4694260000000  0.5132860000000 1.0
C      1  0.5170580000000  0.5970230000000  0.5175490000000 1.0
C      1  0.5522670000000  0.4766390000000  0.6089230000000 1.0
C      1  0.4521250000000  0.4613430000000  0.6156540000000 1.0
C      1  0.4887450000000  0.5598970000000  0.6085230000000 1.0
C      1  0.5241710000000  0.5796530000000  0.5439580000000 1.0
C      1  0.5563920000000  0.4377720000000  0.5540840000000 1.0
C      1  0.4174860000000  0.4874540000000  0.5654680000000 1.0
C      1  0.4028090000000  0.5258200000000  0.5281630000000 1.0
C      1  0.5681840000000  0.5676990000000  0.5257860000000 1.0
C      1  0.5307730000000  0.4032410000000  0.5281700000000 1.0
C      1  0.4536350000000  0.4219130000000  0.5247720000000 1.0
C      1  0.4365310000000  0.5936510000000  0.5335420000000 1.0
C      1  0.5883820000000  0.4927090000000  0.5216760000000 1.0
C      1  0.5855450000000  0.4397950000000  0.5564950000000 1.0
C      1  0.4126370000000  0.4587690000000  0.5603850000000 1.0
C      1  0.5111700000000  0.6040110000000  0.5607990000000 1.0
C      1  0.5164110000000  0.5400210000000  0.3985130000000 1.0
C      1  0.5199770000000  0.4589840000000  0.3958090000000 1.0
C      1  0.4615840000000  0.4998590000000  0.3890600000000 1.0
C      1  0.5057990000000  0.6025260000000  0.4653600000000 1.0
C      1  0.5859510000000  0.4401390000000  0.4583700000000 1.0
C      1  0.4129630000000  0.4553230000000  0.4625480000000 1.0
C      1  0.4510170000000  0.5207390000000  0.5148060000000 1.0
C      1  0.5435660000000  0.5236840000000  0.5187650000000 1.0
C      1  0.5078260000000  0.4510970000000  0.5129560000000 1.0
C      1  0.5279140000000  0.4994330000000  0.5131020000000 1.0
C      1  0.4629250000000  0.4710180000000  0.5114240000000 1.0
C      1  0.5042430000000  0.5475020000000  0.5034180000000 1.0
C      1  0.5060320000000  0.5693300000000  0.3987780000000 1.0
C      1  0.5498790000000  0.4570170000000  0.3951010000000 1.0
C      1  0.4459570000000  0.4756920000000  0.3986670000000 1.0
C      1  0.5606710000000  0.4377270000000  0.4161390000000 1.0
C      1  0.4342860000000  0.4831070000000  0.4265100000000 1.0
C      1  0.5189940000000  0.5833730000000  0.4212110000000 1.0
C      1  0.4116950000000  0.5365780000000  0.5702870000000 1.0
C      1  0.5590290000000  0.5578020000000  0.5699250000000 1.0
C      1  0.5196190000000  0.4136860000000  0.5703170000000 1.0
C      1  0.4445190000000  0.5095030000000  0.6002510000000 1.0
C      1  0.5324150000000  0.5364430000000  0.6191910000000 1.0
C      1  0.5021210000000  0.4592880000000  0.6021080000000 1.0
C      1  0.5123660000000  0.4405190000000  0.5581330000000 1.0
C      1  0.4406740000000  0.5408460000000  0.5640650000000 1.0
C      1  0.5361620000000  0.5357390000000  0.5686230000000 1.0
C      1  0.5710270000000  0.4141150000000  0.4973780000000 1.0
C      1  0.3979910000000  0.4852530000000  0.4984110000000 1.0
C      1  0.5414300000000  0.6005450000000  0.4999670000000 1.0
C      1  0.4777300000000  0.6229560000000  0.5321380000000 1.0
C      1  0.6218430000000  0.4590170000000  0.5275940000000 1.0
C      1  0.4072000000000  0.4240240000000  0.5269870000000 1.0
C      1  0.4530730000000  0.4841890000000  0.5523660000000 1.0
C      1  0.5074900000000  0.5392500000000  0.5508250000000 1.0
C      1  0.5411630000000  0.4720790000000  0.5494340000000 1.0
C      1  0.4902650000000  0.6033470000000  0.4900960000000 1.0
C      1  0.5967020000000  0.4516050000000  0.4824760000000 1.0
C      1  0.4182440000000  0.4408830000000  0.4873780000000 1.0
C      1  0.4007090000000  0.4805940000000  0.4702440000000 1.0
C      1  0.5344510000000  0.6016990000000  0.4714750000000 1.0
C      1  0.5736930000000  0.4153390000000  0.4681490000000 1.0
C      1  0.5170480000000  0.4544370000000  0.4698160000000 1.0
C      1  0.4591060000000  0.5086300000000  0.4655040000000 1.0
C      1  0.5289200000000  0.5235020000000  0.4673360000000 1.0
C      1  0.4713380000000  0.4380470000000  0.4796320000000 1.0
C      1  0.4660780000000  0.5601280000000  0.4845140000000 1.0
C      1  0.5637800000000  0.4918030000000  0.4774530000000 1.0
C      1  0.4847990000000  0.5975860000000  0.5723580000000 1.0
C      1  0.5920440000000  0.4622130000000  0.5750950000000 1.0
C      1  0.4311170000000  0.4380180000000  0.5721400000000 1.0
C      1  0.4462590000000  0.4343390000000  0.4285590000000 1.0
C      1  0.4701980000000  0.5872830000000  0.4298290000000 1.0
C      1  0.5824470000000  0.4802300000000  0.4234440000000 1.0
C      1  0.4927970000000  0.4069690000000  0.4430290000000 1.0
C      1  0.4276980000000  0.5542130000000  0.4454190000000 1.0
C      1  0.5785920000000  0.5334190000000  0.4394960000000 1.0
C      1  0.4998070000000  0.5013540000000  0.5175870000000 1.0
C      1  0.4907930000000  0.4756140000000  0.5046890000000 1.0
C      1  0.4873830000000  0.5234170000000  0.5012450000000 1.0
C      1  0.5761090000000  0.4536640000000  0.4346980000000 1.0
C      1  0.4333580000000  0.4574320000000  0.4425020000000 1.0
C      1  0.4976920000000  0.5909370000000  0.4401200000000 1.0
C      1  0.5103080000000  0.4493030000000  0.4223010000000 1.0
C      1  0.4550050000000  0.5240370000000  0.4169080000000 1.0
C      1  0.5453020000000  0.5304210000000  0.4029890000000 1.0
C      1  0.4548220000000  0.6120440000000  0.5190120000000 1.0
C      1  0.6149740000000  0.4820320000000  0.5124890000000 1.0
C      1  0.4279990000000  0.4086260000000  0.5160890000000 1.0
C      1  0.4834460000000  0.4887440000000  0.4256690000000 1.0
C      1  0.5048900000000  0.5321540000000  0.4253530000000 1.0
C      1  0.5092120000000  0.5027220000000  0.4286440000000 1.0
C      1  0.4488120000000  0.5458790000000  0.5339840000000 1.0
C      1  0.5555050000000  0.5199770000000  0.5479110000000 1.0
C      1  0.4944020000000  0.4362390000000  0.5347160000000 1.0
C      1  0.5202390000000  0.4975450000000  0.4556420000000 1.0
C      1  0.4965660000000  0.4764890000000  0.4731360000000 1.0
C      1  0.4852360000000  0.5190530000000  0.4719440000000 1.0
C      1  0.4467490000000  0.5782540000000  0.4474980000000 1.0
C      1  0.5886580000000  0.5044810000000  0.4406250000000 1.0
C      1  0.4625990000000  0.4128520000000  0.4438850000000 1.0
C      1  0.3951160000000  0.5139270000000  0.5025420000000 1.0
C      1  0.5621460000000  0.5800700000000  0.5007640000000 1.0
C      1  0.5440240000000  0.4037300000000  0.5020910000000 1.0
C      1  0.5057360000000  0.6192660000000  0.5353590000000 1.0
C      1  0.6007450000000  0.4405070000000  0.5307360000000 1.0
C      1  0.4056200000000  0.4514790000000  0.5332170000000 1.0
C      1  0.4855270000000  0.5685130000000  0.5074240000000 1.0
C      1  0.5665780000000  0.4749490000000  0.5050290000000 1.0
C      1  0.4533530000000  0.4453870000000  0.5033930000000 1.0
C      1  0.4742770000000  0.4609890000000  0.4590670000000 1.0
C      1  0.4817970000000  0.5466580000000  0.4604320000000 1.0
C      1  0.5461150000000  0.4831900000000  0.4480550000000 1.0
C      1  0.4235880000000  0.5705860000000  0.4913340000000 1.0
C      1  0.5963080000000  0.5255180000000  0.4851820000000 1.0
C      1  0.4794810000000  0.3941520000000  0.4890260000000 1.0
C      1  0.5873440000000  0.5222170000000  0.5127780000000 1.0
C      1  0.4800870000000  0.4038460000000  0.5177160000000 1.0
C      1  0.4270500000000  0.5674300000000  0.5213840000000 1.0
C      1  0.4615290000000  0.4505530000000  0.4084130000000 1.0
C      1  0.4766310000000  0.5683580000000  0.4076730000000 1.0
C      1  0.5637190000000  0.4837130000000  0.4003730000000 1.0
C      1  0.4207240000000  0.5454110000000  0.4740490000000 1.0
C      1  0.5798770000000  0.5437500000000  0.4677140000000 1.0
C      1  0.5033580000000  0.4041840000000  0.4722880000000 1.0
C      1  0.5384970000000  0.4729880000000  0.5190930000000 1.0
C      1  0.4444280000000  0.4895180000000  0.5236460000000 1.0
C      1  0.5228400000000  0.5458950000000  0.5248730000000 1.0
C      1  0.4290230000000  0.4123470000000  0.4863240000000 1.0
C      1  0.4610000000000  0.6063120000000  0.4907060000000 1.0
C      1  0.6105540000000  0.4773570000000  0.4832350000000 1.0
C      1  0.5713460000000  0.5716630000000  0.4745740000000 1.0
C      1  0.5317010000000  0.3951640000000  0.4767400000000 1.0
C      1  0.3963670000000  0.5278660000000  0.4759740000000 1.0
C      1  0.5889810000000  0.4862450000000  0.5586510000000 1.0
C      1  0.4548290000000  0.4328590000000  0.5540360000000 1.0
C      1  0.4683200000000  0.5847240000000  0.5512100000000 1.0
C      1  0.4272140000000  0.5333800000000  0.4236690000000 1.0
C      1  0.5592740000000  0.5479280000000  0.4215920000000 1.0
C      1  0.5107770000000  0.4188800000000  0.4228120000000 1.0
C      1  0.4824130000000  0.4601890000000  0.4292400000000 1.0
C      1  0.4760800000000  0.5435660000000  0.4258720000000 1.0
C      1  0.5451960000000  0.5022250000000  0.4141940000000 1.0
C      1  0.4888350000000  0.4998360000000  0.3776220000000 1.0
C      1  0.5026950000000  0.5240300000000  0.3788810000000 1.0
C      1  0.5051610000000  0.4773390000000  0.3805500000000 1.0
C      1  0.5445600000000  0.4108850000000  0.5533100000000 1.0
C      1  0.4037510000000  0.5116800000000  0.5550530000000 1.0
C      1  0.5536380000000  0.5774650000000  0.5489650000000 1.0
END
