TITL C-3578197-9521-263 -1.90769242677506e-06 125000 -824.38616713059 0 0 133 (C1) n - 1
REM
REM in /home/bkarasulu/work/CARBON/AIRSS/Generating-Clusters/EDIP-Nigel-Params/with-SteepDescent/Higher-Symm/SD-CG/HFTN-CG
REM
REM
REM
REM
REM
REM ./C.cell (12c818d87b63d06a65506943cc24bca4)
REM
REM compiler GCC version 9.2.1 20190827 (Red Hat 9.2.1-1)
REM options -cpp -mtune=generic -march=x86-64 -g -O0 -fpre-include=/usr/include/finclude/math-vector-fortran.h
REM seed -528094717 421963458 -443047725 -244033708 -1257144463 793292831 -1182616722 -67716035 -266681411 -772853254 -719351580 1841643354 -519424973 -1304758495 639758471 1805044888 1009795364 1198248474 -1960803068 -521904564 -1680855748 -315180435 -1921244739 -288166139 -119937598 -778539191 -1973993229 1042813055 -1471287987 2043514451 -1440363769 -1204269469 -72767632
REM
CELL 1.54180   50.00000   50.00000   50.00000   90.00000   90.00000   90.00000
LATT -1
SFAC C  
C      1  0.4620460000000  0.5923680000000  0.5122640000000 1.0
C      1  0.5361540000000  0.4152630000000  0.4911590000000 1.0
C      1  0.4679010000000  0.5107770000000  0.4834340000000 1.0
C      1  0.5397760000000  0.4903280000000  0.5177580000000 1.0
C      1  0.5709660000000  0.4538110000000  0.5333620000000 1.0
C      1  0.4326620000000  0.5456790000000  0.4683290000000 1.0
C      1  0.5578440000000  0.5399180000000  0.5780380000000 1.0
C      1  0.4430130000000  0.4625610000000  0.4213840000000 1.0
C      1  0.4287430000000  0.5588210000000  0.4937540000000 1.0
C      1  0.5719210000000  0.4428790000000  0.5064610000000 1.0
C      1  0.4302540000000  0.4424120000000  0.4903370000000 1.0
C      1  0.5718920000000  0.5576440000000  0.5090410000000 1.0
C      1  0.5304070000000  0.4221350000000  0.4238410000000 1.0
C      1  0.4718090000000  0.5751250000000  0.5734620000000 1.0
C      1  0.5396450000000  0.4603710000000  0.5723840000000 1.0
C      1  0.4604580000000  0.5393680000000  0.4273290000000 1.0
C      1  0.4428430000000  0.4413640000000  0.5608590000000 1.0
C      1  0.5567840000000  0.5587970000000  0.4406930000000 1.0
C      1  0.5116320000000  0.4216660000000  0.4481810000000 1.0
C      1  0.4885300000000  0.5690270000000  0.5487550000000 1.0
C      1  0.5287420000000  0.5378060000000  0.5356250000000 1.0
C      1  0.4669450000000  0.4389270000000  0.4585370000000 1.0
C      1  0.4698730000000  0.4774790000000  0.5405200000000 1.0
C      1  0.5308410000000  0.5215710000000  0.4600750000000 1.0
C      1  0.5109590000000  0.4033720000000  0.4926160000000 1.0
C      1  0.4899870000000  0.5960420000000  0.5102100000000 1.0
C      1  0.5024160000000  0.4689190000000  0.4912340000000 1.0
C      1  0.4922200000000  0.5375560000000  0.5072350000000 1.0
C      1  0.5133920000000  0.4352190000000  0.4013600000000 1.0
C      1  0.4889590000000  0.5635760000000  0.5960840000000 1.0
C      1  0.5532210000000  0.5009830000000  0.4555540000000 1.0
C      1  0.4466700000000  0.4976890000000  0.5449800000000 1.0
C      1  0.5468610000000  0.5891030000000  0.4813800000000 1.0
C      1  0.4512500000000  0.4086840000000  0.5211490000000 1.0
C      1  0.4830080000000  0.4334880000000  0.4091360000000 1.0
C      1  0.5184220000000  0.5645110000000  0.5866700000000 1.0
C      1  0.5574510000000  0.4960470000000  0.4243600000000 1.0
C      1  0.4423950000000  0.5042240000000  0.5761430000000 1.0
C      1  0.5367500000000  0.5352430000000  0.4858750000000 1.0
C      1  0.4630400000000  0.4612990000000  0.5151190000000 1.0
C      1  0.4134740000000  0.5409360000000  0.5111190000000 1.0
C      1  0.5867970000000  0.4602020000000  0.4886230000000 1.0
C      1  0.5542550000000  0.4406000000000  0.4271290000000 1.0
C      1  0.4462230000000  0.5593320000000  0.5742760000000 1.0
C      1  0.4892390000000  0.5402280000000  0.4183610000000 1.0
C      1  0.5107600000000  0.4627920000000  0.5805790000000 1.0
C      1  0.5826990000000  0.5293380000000  0.4717910000000 1.0
C      1  0.4171070000000  0.4702060000000  0.5276810000000 1.0
C      1  0.4201010000000  0.4532670000000  0.5497860000000 1.0
C      1  0.5803590000000  0.5476010000000  0.4507680000000 1.0
C      1  0.4816060000000  0.5281520000000  0.5341590000000 1.0
C      1  0.5142560000000  0.4758790000000  0.4633020000000 1.0
C      1  0.5736740000000  0.4618400000000  0.4613640000000 1.0
C      1  0.4263070000000  0.5379100000000  0.5380930000000 1.0
C      1  0.4414450000000  0.4881500000000  0.4373900000000 1.0
C      1  0.5575340000000  0.5138210000000  0.5620870000000 1.0
C      1  0.4955520000000  0.4231060000000  0.5080710000000 1.0
C      1  0.4983960000000  0.5766930000000  0.4899500000000 1.0
C      1  0.5060720000000  0.5038120000000  0.4616800000000 1.0
C      1  0.4939710000000  0.5003430000000  0.5314230000000 1.0
C      1  0.5666830000000  0.5060660000000  0.5123500000000 1.0
C      1  0.4370560000000  0.4950420000000  0.4881600000000 1.0
C      1  0.4363820000000  0.4673190000000  0.5055810000000 1.0
C      1  0.5645020000000  0.5322930000000  0.4945240000000 1.0
C      1  0.5442330000000  0.4748310000000  0.4657710000000 1.0
C      1  0.4527770000000  0.5233900000000  0.5323310000000 1.0
C      1  0.5343750000000  0.5392740000000  0.4352780000000 1.0
C      1  0.4649270000000  0.4610590000000  0.5675730000000 1.0
C      1  0.4671680000000  0.4119010000000  0.4709280000000 1.0
C      1  0.5336260000000  0.5817660000000  0.5311140000000 1.0
C      1  0.5048520000000  0.5895940000000  0.5348040000000 1.0
C      1  0.4974550000000  0.4020580000000  0.4664940000000 1.0
C      1  0.4935880000000  0.4832270000000  0.5949820000000 1.0
C      1  0.5059230000000  0.5177760000000  0.4081800000000 1.0
C      1  0.4414100000000  0.4417300000000  0.4425100000000 1.0
C      1  0.5539120000000  0.5570600000000  0.5522930000000 1.0
C      1  0.4247370000000  0.4528040000000  0.4635560000000 1.0
C      1  0.5769640000000  0.5487190000000  0.5360670000000 1.0
C      1  0.5203710000000  0.4636610000000  0.4097680000000 1.0
C      1  0.4806350000000  0.5343350000000  0.5926880000000 1.0
C      1  0.5941060000000  0.5026100000000  0.4714240000000 1.0
C      1  0.4063440000000  0.4973250000000  0.5279590000000 1.0
C      1  0.4899220000000  0.4391760000000  0.4389210000000 1.0
C      1  0.5102590000000  0.5514770000000  0.5587840000000 1.0
C      1  0.4923920000000  0.4958900000000  0.3984330000000 1.0
C      1  0.5078150000000  0.5033470000000  0.6088570000000 1.0
C      1  0.5450860000000  0.4417210000000  0.4949860000000 1.0
C      1  0.4538440000000  0.5658140000000  0.5063200000000 1.0
C      1  0.5364230000000  0.5185020000000  0.4132010000000 1.0
C      1  0.4628240000000  0.4826170000000  0.5888430000000 1.0
C      1  0.5515930000000  0.5796740000000  0.5075790000000 1.0
C      1  0.4476840000000  0.4175010000000  0.4943650000000 1.0
C      1  0.5755810000000  0.5190270000000  0.5380330000000 1.0
C      1  0.4275840000000  0.4822060000000  0.4626780000000 1.0
C      1  0.4677720000000  0.4598450000000  0.4057420000000 1.0
C      1  0.5350080000000  0.5415240000000  0.5959600000000 1.0
C      1  0.4689340000000  0.5774200000000  0.4561350000000 1.0
C      1  0.5349330000000  0.4209480000000  0.5411340000000 1.0
C      1  0.5878270000000  0.4859910000000  0.4465930000000 1.0
C      1  0.4123390000000  0.5138870000000  0.5532230000000 1.0
C      1  0.5588490000000  0.4806520000000  0.5798060000000 1.0
C      1  0.4397190000000  0.5212870000000  0.4185900000000 1.0
C      1  0.4524060000000  0.5323180000000  0.5849710000000 1.0
C      1  0.5488500000000  0.4673620000000  0.4152130000000 1.0
C      1  0.5143710000000  0.5805520000000  0.4445650000000 1.0
C      1  0.4892030000000  0.4260120000000  0.5517710000000 1.0
C      1  0.5746390000000  0.4369780000000  0.4461210000000 1.0
C      1  0.4274910000000  0.5622590000000  0.5536880000000 1.0
C      1  0.4775940000000  0.5054510000000  0.4548830000000 1.0
C      1  0.5236990000000  0.5065220000000  0.5358520000000 1.0
C      1  0.4890280000000  0.4451430000000  0.5728800000000 1.0
C      1  0.5093690000000  0.5539140000000  0.4339960000000 1.0
C      1  0.5908800000000  0.4879300000000  0.5005590000000 1.0
C      1  0.4114870000000  0.5126320000000  0.4995610000000 1.0
C      1  0.4809300000000  0.4468400000000  0.4933680000000 1.0
C      1  0.5198350000000  0.5489530000000  0.5065020000000 1.0
C      1  0.5262910000000  0.4618650000000  0.5100530000000 1.0
C      1  0.4717860000000  0.5490410000000  0.4885170000000 1.0
C      1  0.4161490000000  0.5170130000000  0.4348170000000 1.0
C      1  0.5833310000000  0.4852140000000  0.5649160000000 1.0
C      1  0.5880900000000  0.4764810000000  0.5378680000000 1.0
C      1  0.4144520000000  0.5244970000000  0.4625390000000 1.0
C      1  0.4524610000000  0.5560350000000  0.4495760000000 1.0
C      1  0.5495750000000  0.4432960000000  0.5507210000000 1.0
C      1  0.4981020000000  0.5257490000000  0.5692800000000 1.0
C      1  0.5031080000000  0.4659690000000  0.4355120000000 1.0
C      1  0.5106650000000  0.4339730000000  0.5319870000000 1.0
C      1  0.4935340000000  0.5882920000000  0.4633030000000 1.0
C      1  0.5427130000000  0.5818420000000  0.4543230000000 1.0
C      1  0.4598570000000  0.4219290000000  0.5447870000000 1.0
C      1  0.5211370000000  0.5166800000000  0.5873510000000 1.0
C      1  0.4819170000000  0.4835300000000  0.4227820000000 1.0
C      1  0.4890970000000  0.4942520000000  0.5013990000000 1.0
END
