TITL C-3577080-309-258 -2.38491339838761e-06 125000 -824.912883548066 0 0 134 (C1) n - 1
REM
REM in /home/bkarasulu/work/CARBON/AIRSS/Generating-Clusters/EDIP-Nigel-Params/with-SteepDescent/Higher-Symm/SD-CG/HFTN-CG
REM
REM
REM
REM
REM
REM ./C.cell (12c818d87b63d06a65506943cc24bca4)
REM
REM compiler GCC version 9.2.1 20190827 (Red Hat 9.2.1-1)
REM options -cpp -mtune=generic -march=x86-64 -g -O0 -fpre-include=/usr/include/finclude/math-vector-fortran.h
REM seed -1291638646 -573725592 -676605259 -969615308 112383454 -837042363 366193195 250834530 -505791846 -731104491 1569978223 1150359082 148132131 439118594 2005062764 1410911416 99751012 301161563 1049240257 -674228268 1174084087 352699315 711695298 -419773343 -1076716218 -62148494 -838904895 -188886100 27270673 1011176235 1001184510 132799217 1425895717
REM
CELL 1.54180   50.00000   50.00000   50.00000   90.00000   90.00000   90.00000
LATT -1
SFAC C  
C      1  0.4120610000000  0.5338230000000  0.4800410000000 1.0
C      1  0.4181970000000  0.4525200000000  0.4792150000000 1.0
C      1  0.4844240000000  0.4051640000000  0.4803060000000 1.0
C      1  0.5602370000000  0.4324020000000  0.4837400000000 1.0
C      1  0.5935970000000  0.5074520000000  0.4778420000000 1.0
C      1  0.5509400000000  0.5785790000000  0.4801240000000 1.0
C      1  0.4704300000000  0.5918180000000  0.4824610000000 1.0
C      1  0.5257220000000  0.4185120000000  0.4589380000000 1.0
C      1  0.5705930000000  0.4730030000000  0.4615340000000 1.0
C      1  0.5597570000000  0.5374650000000  0.4596600000000 1.0
C      1  0.5071320000000  0.5815550000000  0.4600250000000 1.0
C      1  0.4465440000000  0.5547650000000  0.4616580000000 1.0
C      1  0.4231920000000  0.4913080000000  0.4585110000000 1.0
C      1  0.4597570000000  0.4361960000000  0.4605360000000 1.0
C      1  0.5319700000000  0.4963450000000  0.3990210000000 1.0
C      1  0.5203090000000  0.5238360000000  0.4005230000000 1.0
C      1  0.4944610000000  0.5234680000000  0.3900700000000 1.0
C      1  0.4701690000000  0.5142710000000  0.4008050000000 1.0
C      1  0.4673040000000  0.4856020000000  0.3985350000000 1.0
C      1  0.4896650000000  0.4672840000000  0.4004640000000 1.0
C      1  0.5131230000000  0.4779750000000  0.3893610000000 1.0
C      1  0.5272090000000  0.4781530000000  0.5644220000000 1.0
C      1  0.5337410000000  0.5090750000000  0.5546010000000 1.0
C      1  0.5130470000000  0.5309930000000  0.5664290000000 1.0
C      1  0.4787470000000  0.5280050000000  0.5677310000000 1.0
C      1  0.4647450000000  0.5038240000000  0.5539640000000 1.0
C      1  0.4735760000000  0.4753700000000  0.5649640000000 1.0
C      1  0.5002700000000  0.4641030000000  0.5524340000000 1.0
C      1  0.4662760000000  0.5233190000000  0.4285630000000 1.0
C      1  0.4681670000000  0.4808700000000  0.4370620000000 1.0
C      1  0.4922620000000  0.4593430000000  0.4293850000000 1.0
C      1  0.5250760000000  0.4644620000000  0.4400550000000 1.0
C      1  0.5412350000000  0.4885140000000  0.4265450000000 1.0
C      1  0.5199440000000  0.5336970000000  0.4291360000000 1.0
C      1  0.4895330000000  0.5404880000000  0.4401980000000 1.0
C      1  0.5501260000000  0.5505360000000  0.5533670000000 1.0
C      1  0.4912820000000  0.5671140000000  0.5540880000000 1.0
C      1  0.4373530000000  0.5377630000000  0.5559900000000 1.0
C      1  0.4313250000000  0.4754100000000  0.5535540000000 1.0
C      1  0.4705000000000  0.4272630000000  0.5557840000000 1.0
C      1  0.5488650000000  0.4587490000000  0.5559930000000 1.0
C      1  0.5843540000000  0.4913420000000  0.5568300000000 1.0
C      1  0.4190710000000  0.5204480000000  0.4539140000000 1.0
C      1  0.4338420000000  0.4481730000000  0.4540720000000 1.0
C      1  0.4970650000000  0.4125750000000  0.4541270000000 1.0
C      1  0.5634170000000  0.4446380000000  0.4578810000000 1.0
C      1  0.5798980000000  0.5158920000000  0.4525860000000 1.0
C      1  0.5358230000000  0.5769250000000  0.4544360000000 1.0
C      1  0.4627220000000  0.5787370000000  0.4566520000000 1.0
C      1  0.5927820000000  0.5350850000000  0.5397300000000 1.0
C      1  0.5302590000000  0.5938630000000  0.5433550000000 1.0
C      1  0.4443080000000  0.5825840000000  0.5444680000000 1.0
C      1  0.4004520000000  0.5085570000000  0.5417460000000 1.0
C      1  0.4286940000000  0.4278250000000  0.5411870000000 1.0
C      1  0.5125360000000  0.4148770000000  0.5402080000000 1.0
C      1  0.5941020000000  0.4485960000000  0.5421660000000 1.0
C      1  0.4503480000000  0.5960720000000  0.5026440000000 1.0
C      1  0.3950650000000  0.5210770000000  0.4994840000000 1.0
C      1  0.4168680000000  0.4312820000000  0.4985540000000 1.0
C      1  0.5003160000000  0.3914700000000  0.4989060000000 1.0
C      1  0.5836150000000  0.4367520000000  0.5007060000000 1.0
C      1  0.6013570000000  0.5276610000000  0.4967410000000 1.0
C      1  0.5416920000000  0.5971390000000  0.5004470000000 1.0
C      1  0.4466680000000  0.4478900000000  0.5589400000000 1.0
C      1  0.4986650000000  0.4342830000000  0.5590570000000 1.0
C      1  0.5772540000000  0.4641570000000  0.5625140000000 1.0
C      1  0.5687980000000  0.5263960000000  0.5574520000000 1.0
C      1  0.5236290000000  0.5678460000000  0.5595810000000 1.0
C      1  0.4590940000000  0.5610230000000  0.5611870000000 1.0
C      1  0.4260440000000  0.5070700000000  0.5594650000000 1.0
C      1  0.4931230000000  0.3983960000000  0.5252680000000 1.0
C      1  0.5758060000000  0.4312910000000  0.5274520000000 1.0
C      1  0.6055500000000  0.5155970000000  0.5227330000000 1.0
C      1  0.5533860000000  0.5910850000000  0.5262160000000 1.0
C      1  0.4624280000000  0.5985460000000  0.5288260000000 1.0
C      1  0.3986870000000  0.5325660000000  0.5260290000000 1.0
C      1  0.4103140000000  0.4418160000000  0.5245420000000 1.0
C      1  0.4802170000000  0.4326430000000  0.4392060000000 1.0
C      1  0.5398370000000  0.4383080000000  0.4412220000000 1.0
C      1  0.5701080000000  0.4903620000000  0.4378510000000 1.0
C      1  0.5429390000000  0.5519660000000  0.4391950000000 1.0
C      1  0.4869020000000  0.5710070000000  0.4409670000000 1.0
C      1  0.4410030000000  0.5358400000000  0.4393060000000 1.0
C      1  0.4377350000000  0.4737220000000  0.4389720000000 1.0
C      1  0.4693810000000  0.5083310000000  0.4756900000000 1.0
C      1  0.4746760000000  0.4805450000000  0.4683470000000 1.0
C      1  0.5001490000000  0.4664260000000  0.4766270000000 1.0
C      1  0.5272080000000  0.4744790000000  0.4710910000000 1.0
C      1  0.5311860000000  0.5053390000000  0.4710420000000 1.0
C      1  0.5126420000000  0.5260100000000  0.4793320000000 1.0
C      1  0.4865160000000  0.5312450000000  0.4701940000000 1.0
C      1  0.5325760000000  0.5110500000000  0.5240450000000 1.0
C      1  0.5146340000000  0.5352400000000  0.5223690000000 1.0
C      1  0.4849890000000  0.5326890000000  0.5177580000000 1.0
C      1  0.4667170000000  0.5076880000000  0.5229550000000 1.0
C      1  0.4729150000000  0.4794120000000  0.5151370000000 1.0
C      1  0.4992300000000  0.4675110000000  0.5212600000000 1.0
C      1  0.5226120000000  0.4850770000000  0.5134030000000 1.0
C      1  0.4723440000000  0.4997860000000  0.6067880000000 1.0
C      1  0.4773570000000  0.4753940000000  0.5945390000000 1.0
C      1  0.5016920000000  0.4639050000000  0.6021900000000 1.0
C      1  0.5243920000000  0.4780090000000  0.5941360000000 1.0
C      1  0.5255910000000  0.5035040000000  0.6050980000000 1.0
C      1  0.5120820000000  0.5265280000000  0.5968220000000 1.0
C      1  0.4821440000000  0.5241970000000  0.5975870000000 1.0
C      1  0.4770330000000  0.5497500000000  0.4929610000000 1.0
C      1  0.4475280000000  0.5127140000000  0.4960870000000 1.0
C      1  0.4577800000000  0.4674100000000  0.4913820000000 1.0
C      1  0.4986570000000  0.4438090000000  0.4964980000000 1.0
C      1  0.5461840000000  0.4688710000000  0.5041890000000 1.0
C      1  0.5527780000000  0.5111240000000  0.4942780000000 1.0
C      1  0.5228420000000  0.5483440000000  0.4961820000000 1.0
C      1  0.5930140000000  0.4911410000000  0.5296860000000 1.0
C      1  0.5605980000000  0.5638730000000  0.5299120000000 1.0
C      1  0.4881160000000  0.5860450000000  0.5317190000000 1.0
C      1  0.4234730000000  0.5455430000000  0.5318470000000 1.0
C      1  0.4166990000000  0.4692160000000  0.5293120000000 1.0
C      1  0.4689800000000  0.4126200000000  0.5312680000000 1.0
C      1  0.5501420000000  0.4467520000000  0.5283470000000 1.0
C      1  0.5106100000000  0.6009220000000  0.5228970000000 1.0
C      1  0.4278120000000  0.5719200000000  0.5223530000000 1.0
C      1  0.3986680000000  0.4888400000000  0.5200630000000 1.0
C      1  0.4429470000000  0.4123620000000  0.5196740000000 1.0
C      1  0.5300020000000  0.4273590000000  0.5209940000000 1.0
C      1  0.6009900000000  0.4660380000000  0.5183070000000 1.0
C      1  0.5853120000000  0.5546500000000  0.5191690000000 1.0
C      1  0.5556960000000  0.5493850000000  0.4886070000000 1.0
C      1  0.4980590000000  0.5758910000000  0.4899780000000 1.0
C      1  0.4387030000000  0.5450410000000  0.4906730000000 1.0
C      1  0.4278120000000  0.4817640000000  0.4886370000000 1.0
C      1  0.4689450000000  0.4301880000000  0.4907600000000 1.0
C      1  0.5308840000000  0.4226050000000  0.4903830000000 1.0
C      1  0.5747840000000  0.4861660000000  0.4897360000000 1.0
C      1  0.5301690000000  0.5096050000000  0.4420190000000 1.0
END
