TITL C-3577081-279-47 -2.41864633380366e-06 125000 -411.322696335365 0 0 67 (C1) n - 1
REM
REM in /home/bkarasulu/work/CARBON/AIRSS/Generating-Clusters/EDIP-Nigel-Params/with-SteepDescent/Higher-Symm/SD-CG/HFTN-CG
REM
REM
REM
REM
REM
REM ./C.cell (12c818d87b63d06a65506943cc24bca4)
REM
REM compiler GCC version 9.2.1 20190827 (Red Hat 9.2.1-1)
REM options -cpp -mtune=generic -march=x86-64 -g -O0 -fpre-include=/usr/include/finclude/math-vector-fortran.h
REM seed 1063324262 -1471529939 -920887635 22767798 294043602 -1850822982 -241163634 -1329118462 -1559596575 -1103018219 882586911 -1899008608 -971027711 -1663707517 -566486082 -1743472874 305056628 -1352548413 -1731425946 -191563664 -2003429489 -448693497 710614664 -1414983616 -361983994 378375271 -52086853 -763568934 1637795607 -1980028057 -2123644187 1480385900 -1948154185
REM
CELL 1.54180   50.00000   50.00000   50.00000   90.00000   90.00000   90.00000
LATT -1
SFAC C  
C      1  0.5431430000000  0.4647100000000  0.4373630000000 1.0
C      1  0.5664570000000  0.4921010000000  0.5000730000000 1.0
C      1  0.5047050000000  0.4673890000000  0.5705920000000 1.0
C      1  0.4369410000000  0.4735100000000  0.5283570000000 1.0
C      1  0.4477710000000  0.4900220000000  0.4547690000000 1.0
C      1  0.5258570000000  0.5100020000000  0.4289470000000 1.0
C      1  0.5671580000000  0.5373780000000  0.5159150000000 1.0
C      1  0.5278080000000  0.5105070000000  0.5671590000000 1.0
C      1  0.4374680000000  0.5184820000000  0.5330810000000 1.0
C      1  0.4559840000000  0.5340170000000  0.4359650000000 1.0
C      1  0.5589490000000  0.4837060000000  0.4521950000000 1.0
C      1  0.5606090000000  0.4917790000000  0.5294610000000 1.0
C      1  0.4827550000000  0.4865740000000  0.5795080000000 1.0
C      1  0.4297540000000  0.4841980000000  0.5023060000000 1.0
C      1  0.4703970000000  0.4875150000000  0.4350110000000 1.0
C      1  0.5463830000000  0.5096020000000  0.4502330000000 1.0
C      1  0.5681200000000  0.5184010000000  0.5397990000000 1.0
C      1  0.4910060000000  0.5159710000000  0.5762330000000 1.0
C      1  0.4298330000000  0.5137110000000  0.5046450000000 1.0
C      1  0.4754810000000  0.5149240000000  0.4245450000000 1.0
C      1  0.5273390000000  0.4958610000000  0.5009900000000 1.0
C      1  0.5060860000000  0.4792350000000  0.5334040000000 1.0
C      1  0.4723240000000  0.4891220000000  0.5265600000000 1.0
C      1  0.4747560000000  0.4880940000000  0.4966100000000 1.0
C      1  0.5112150000000  0.4893310000000  0.4676900000000 1.0
C      1  0.5167010000000  0.5213020000000  0.5171850000000 1.0
C      1  0.5093380000000  0.5078600000000  0.5423700000000 1.0
C      1  0.4676130000000  0.5197530000000  0.5327500000000 1.0
C      1  0.4771480000000  0.5168040000000  0.4873720000000 1.0
C      1  0.4986290000000  0.5155070000000  0.4666310000000 1.0
C      1  0.5575700000000  0.4723490000000  0.4786840000000 1.0
C      1  0.5476720000000  0.4709790000000  0.5458630000000 1.0
C      1  0.4615280000000  0.4719620000000  0.5638670000000 1.0
C      1  0.4501460000000  0.4757600000000  0.4824720000000 1.0
C      1  0.4970960000000  0.4739600000000  0.4433120000000 1.0
C      1  0.5555550000000  0.5306360000000  0.4681910000000 1.0
C      1  0.5482140000000  0.5298390000000  0.5575300000000 1.0
C      1  0.4768120000000  0.5337120000000  0.5570290000000 1.0
C      1  0.4481310000000  0.5276210000000  0.4840650000000 1.0
C      1  0.4996390000000  0.5257260000000  0.4388080000000 1.0
C      1  0.5219270000000  0.5669880000000  0.4823000000000 1.0
C      1  0.5219180000000  0.5682440000000  0.5118420000000 1.0
C      1  0.4923230000000  0.5691070000000  0.5194330000000 1.0
C      1  0.4747500000000  0.5686580000000  0.4930430000000 1.0
C      1  0.4944760000000  0.5638330000000  0.4720340000000 1.0
C      1  0.5221940000000  0.4363450000000  0.4878160000000 1.0
C      1  0.5167790000000  0.4396340000000  0.5167520000000 1.0
C      1  0.4874020000000  0.4416990000000  0.5211220000000 1.0
C      1  0.4753720000000  0.4392570000000  0.4938950000000 1.0
C      1  0.4964950000000  0.4357490000000  0.4746410000000 1.0
C      1  0.4876100000000  0.5530790000000  0.4453870000000 1.0
C      1  0.5440310000000  0.5559220000000  0.4693540000000 1.0
C      1  0.5362060000000  0.5440730000000  0.5246810000000 1.0
C      1  0.4862410000000  0.5582740000000  0.5462880000000 1.0
C      1  0.4498870000000  0.5561410000000  0.4890070000000 1.0
C      1  0.4942370000000  0.4457550000000  0.4487450000000 1.0
C      1  0.5440870000000  0.4470800000000  0.4718720000000 1.0
C      1  0.5369070000000  0.4480800000000  0.5340540000000 1.0
C      1  0.4773600000000  0.4510120000000  0.5481070000000 1.0
C      1  0.4507880000000  0.4467550000000  0.4829660000000 1.0
C      1  0.4342110000000  0.4930520000000  0.5487900000000 1.0
C      1  0.5207440000000  0.4799510000000  0.4253570000000 1.0
C      1  0.4408580000000  0.5193300000000  0.4562260000000 1.0
C      1  0.5702660000000  0.5208730000000  0.4915520000000 1.0
C      1  0.5324700000000  0.4805950000000  0.5689020000000 1.0
C      1  0.4876850000000  0.5310550000000  0.5112630000000 1.0
C      1  0.5018270000000  0.4744510000000  0.4949620000000 1.0
END
