TITL C-3578200-9634-694 -4.64537451508684e-06 125000 -371.402942028359 0 0 61 (C3) n - 1
REM
REM in /home/bkarasulu/work/CARBON/AIRSS/Generating-Clusters/EDIP-Nigel-Params/with-SteepDescent/Higher-Symm/SD-CG/HFTN-CG
REM
REM
REM
REM
REM
REM ./C.cell (12c818d87b63d06a65506943cc24bca4)
REM
REM compiler GCC version 9.2.1 20190827 (Red Hat 9.2.1-1)
REM options -cpp -mtune=generic -march=x86-64 -g -O0 -fpre-include=/usr/include/finclude/math-vector-fortran.h
REM seed -1381342224 -854306021 316707564 -1218717307 958786597 1643910014 785080463 -970997693 -755715702 2027508439 955470333 -1961201563 -1695609269 1647137781 1976538398 -51602507 -631182527 -587634711 1074663130 -2097932975 721291128 439586655 -1249393962 -789539701 947873112 443022383 1268235632 378912673 -477593754 673248325 -205738550 -1769739607 568957656
REM
CELL 1.54180   50.00000   50.00000   50.00000   90.00000   90.00000   90.00000
LATT -1
SFAC C  
C      1  0.4306050000000  0.4474000000000  0.5333370000000 1.0
C      1  0.4900810000000  0.5866880000000  0.5317050000000 1.0
C      1  0.5809720000000  0.4655270000000  0.5318180000000 1.0
C      1  0.4606310000000  0.5111770000000  0.5357960000000 1.0
C      1  0.5303240000000  0.5288560000000  0.5350190000000 1.0
C      1  0.5107920000000  0.4596590000000  0.5357380000000 1.0
C      1  0.5039440000000  0.5367190000000  0.5237930000000 1.0
C      1  0.5307100000000  0.4783490000000  0.5240030000000 1.0
C      1  0.4667800000000  0.4843560000000  0.5245420000000 1.0
C      1  0.5208650000000  0.5188990000000  0.4429250000000 1.0
C      1  0.5062530000000  0.4710170000000  0.4434320000000 1.0
C      1  0.4720920000000  0.5076150000000  0.4434600000000 1.0
C      1  0.5517530000000  0.5382400000000  0.4778480000000 1.0
C      1  0.5078080000000  0.4352900000000  0.4790540000000 1.0
C      1  0.4406220000000  0.5248290000000  0.4789710000000 1.0
C      1  0.5070690000000  0.5675620000000  0.5187550000000 1.0
C      1  0.5558250000000  0.4601240000000  0.5191460000000 1.0
C      1  0.4384070000000  0.4716260000000  0.5201330000000 1.0
C      1  0.4900900000000  0.4498610000000  0.4573410000000 1.0
C      1  0.4619470000000  0.5324600000000  0.4569540000000 1.0
C      1  0.5475480000000  0.5155280000000  0.4563020000000 1.0
C      1  0.4428520000000  0.4506290000000  0.4762420000000 1.0
C      1  0.4863570000000  0.5733480000000  0.4748850000000 1.0
C      1  0.5708830000000  0.4743040000000  0.4748830000000 1.0
C      1  0.4525750000000  0.4882110000000  0.4503340000000 1.0
C      1  0.5138630000000  0.5456330000000  0.4493240000000 1.0
C      1  0.5329520000000  0.4638410000000  0.4497880000000 1.0
C      1  0.5367930000000  0.5016050000000  0.5434000000000 1.0
C      1  0.4840160000000  0.4678450000000  0.5441470000000 1.0
C      1  0.4811640000000  0.5304340000000  0.5436850000000 1.0
C      1  0.4735250000000  0.4580280000000  0.4814800000000 1.0
C      1  0.4774680000000  0.5431940000000  0.4807790000000 1.0
C      1  0.5492520000000  0.4971910000000  0.4804800000000 1.0
C      1  0.5526950000000  0.5445470000000  0.5276070000000 1.0
C      1  0.5131470000000  0.4322990000000  0.5288460000000 1.0
C      1  0.4357100000000  0.5226790000000  0.5288500000000 1.0
C      1  0.5004450000000  0.5232610000000  0.4951210000000 1.0
C      1  0.5206030000000  0.4875420000000  0.4952150000000 1.0
C      1  0.4795920000000  0.4879460000000  0.4955880000000 1.0
C      1  0.4665620000000  0.5718220000000  0.5361090000000 1.0
C      1  0.5798840000000  0.4934100000000  0.5356820000000 1.0
C      1  0.4553240000000  0.4344790000000  0.5372840000000 1.0
C      1  0.4673160000000  0.4265170000000  0.5116300000000 1.0
C      1  0.4534920000000  0.5649150000000  0.5106760000000 1.0
C      1  0.5802580000000  0.5076790000000  0.5099610000000 1.0
C      1  0.4420520000000  0.5381590000000  0.5060720000000 1.0
C      1  0.5627720000000  0.5308700000000  0.5050230000000 1.0
C      1  0.4961070000000  0.4299670000000  0.5064210000000 1.0
C      1  0.5573350000000  0.4522780000000  0.4903890000000 1.0
C      1  0.4306560000000  0.4736770000000  0.4913830000000 1.0
C      1  0.5125190000000  0.5726840000000  0.4898590000000 1.0
C      1  0.4487410000000  0.4949060000000  0.4788780000000 1.0
C      1  0.5217780000000  0.5461670000000  0.4778080000000 1.0
C      1  0.5296570000000  0.4572800000000  0.4784300000000 1.0
C      1  0.4479950000000  0.4270790000000  0.4911080000000 1.0
C      1  0.4634940000000  0.5809600000000  0.4897640000000 1.0
C      1  0.5890090000000  0.4905870000000  0.4893190000000 1.0
C      1  0.4685990000000  0.5523900000000  0.5561840000000 1.0
C      1  0.5621760000000  0.5017540000000  0.5557220000000 1.0
C      1  0.4715430000000  0.4460340000000  0.5569880000000 1.0
C      1  0.4997810000000  0.4992150000000  0.4480990000000 1.0
END
