TITL C-3578205-846-21 -1.4985397078421e-06 125000 -291.427097692062 0 0 48 (C1) n - 1
REM
REM in /home/bkarasulu/work/CARBON/AIRSS/Generating-Clusters/EDIP-Nigel-Params/with-SteepDescent/Higher-Symm/SD-CG/HFTN-CG
REM
REM
REM
REM
REM
REM ./C.cell (12c818d87b63d06a65506943cc24bca4)
REM
REM compiler GCC version 9.2.1 20190827 (Red Hat 9.2.1-1)
REM options -cpp -mtune=generic -march=x86-64 -g -O0 -fpre-include=/usr/include/finclude/math-vector-fortran.h
REM seed 1677119427 736710092 -31751959 310529060 607209588 -1482835032 -893940242 -1825427025 -1187008360 -770710963 -1650234836 -1077636125 2135478364 -757943345 593253822 -672595580 119355645 1758021986 -891004845 221350098 -1730013133 390358787 -2075209898 209859215 1324354495 -1259024387 -1729966490 -366641509 -1070577704 2113412098 -20341628 -1648910470 537614725
REM
CELL 1.54180   50.00000   50.00000   50.00000   90.00000   90.00000   90.00000
LATT -1
SFAC C  
C      1  0.4513180000000  0.4684050000000  0.5237200000000 1.0
C      1  0.4822870000000  0.5290630000000  0.4692730000000 1.0
C      1  0.4701290000000  0.5387210000000  0.5181110000000 1.0
C      1  0.5162330000000  0.5309220000000  0.4969370000000 1.0
C      1  0.5181220000000  0.4701980000000  0.5621770000000 1.0
C      1  0.5647310000000  0.5182280000000  0.5042590000000 1.0
C      1  0.5525580000000  0.5375120000000  0.5200890000000 1.0
C      1  0.4341480000000  0.5108270000000  0.5159480000000 1.0
C      1  0.4716270000000  0.4534830000000  0.4611380000000 1.0
C      1  0.4590760000000  0.4816060000000  0.5485770000000 1.0
C      1  0.4990290000000  0.4754150000000  0.4880700000000 1.0
C      1  0.4521240000000  0.5259790000000  0.4709930000000 1.0
C      1  0.4871520000000  0.4374260000000  0.5051200000000 1.0
C      1  0.4343280000000  0.4780810000000  0.4790710000000 1.0
C      1  0.5222100000000  0.5179430000000  0.5528380000000 1.0
C      1  0.4474060000000  0.4504940000000  0.4784960000000 1.0
C      1  0.4926380000000  0.4398280000000  0.4757820000000 1.0
C      1  0.4572580000000  0.4434470000000  0.5074220000000 1.0
C      1  0.4981030000000  0.5521050000000  0.4845120000000 1.0
C      1  0.4966680000000  0.4746580000000  0.5427030000000 1.0
C      1  0.4627010000000  0.5325650000000  0.5473990000000 1.0
C      1  0.5314450000000  0.5146850000000  0.4753320000000 1.0
C      1  0.4884260000000  0.5621960000000  0.5114520000000 1.0
C      1  0.4490270000000  0.4889000000000  0.5030240000000 1.0
C      1  0.4732090000000  0.4819080000000  0.4526260000000 1.0
C      1  0.4478950000000  0.4965050000000  0.4592920000000 1.0
C      1  0.5410220000000  0.4679370000000  0.4628820000000 1.0
C      1  0.5756990000000  0.4942210000000  0.5165460000000 1.0
C      1  0.5362620000000  0.4906950000000  0.5546620000000 1.0
C      1  0.5519660000000  0.4855010000000  0.4436600000000 1.0
C      1  0.5236540000000  0.5223910000000  0.4464520000000 1.0
C      1  0.5687110000000  0.5044830000000  0.4562470000000 1.0
C      1  0.5310790000000  0.5421400000000  0.5370400000000 1.0
C      1  0.4946240000000  0.5221140000000  0.4429200000000 1.0
C      1  0.5260010000000  0.4850390000000  0.4794800000000 1.0
C      1  0.4972230000000  0.5056410000000  0.5395090000000 1.0
C      1  0.5300450000000  0.4990370000000  0.4300080000000 1.0
C      1  0.5825730000000  0.4687840000000  0.5282450000000 1.0
C      1  0.4451710000000  0.5336120000000  0.5003540000000 1.0
C      1  0.4921550000000  0.4940710000000  0.4343410000000 1.0
C      1  0.4913980000000  0.5174400000000  0.5120000000000 1.0
C      1  0.5109050000000  0.5605640000000  0.5289650000000 1.0
C      1  0.4847240000000  0.5210410000000  0.5616720000000 1.0
C      1  0.5030320000000  0.4611960000000  0.5160430000000 1.0
C      1  0.5612670000000  0.4827890000000  0.5410690000000 1.0
C      1  0.4783890000000  0.4983200000000  0.4928450000000 1.0
C      1  0.4455640000000  0.5084050000000  0.5441910000000 1.0
C      1  0.5686880000000  0.5234810000000  0.4765060000000 1.0
END
