TITL C-3578200-9634-126 -1.09682368660849e-06 125000 -565.871158559104 0 0 92 (C1) n - 1
REM
REM in /home/bkarasulu/work/CARBON/AIRSS/Generating-Clusters/EDIP-Nigel-Params/with-SteepDescent/Higher-Symm/SD-CG/HFTN-CG
REM
REM
REM
REM
REM
REM ./C.cell (12c818d87b63d06a65506943cc24bca4)
REM
REM compiler GCC version 9.2.1 20190827 (Red Hat 9.2.1-1)
REM options -cpp -mtune=generic -march=x86-64 -g -O0 -fpre-include=/usr/include/finclude/math-vector-fortran.h
REM seed 1167042876 1885233070 610408789 -750543684 -1922487540 1611096966 931752774 1096952713 -214735045 -2128708965 1520894583 171778509 -18132403 47556276 -1087555272 -946053726 1914313172 1609463816 1803054537 1222178640 -1433170715 545507650 -1792151385 929308358 -1404780881 495241526 724387335 277915010 540730620 487360924 -1387746884 -1572413218 636530553
REM
CELL 1.54180   50.00000   50.00000   50.00000   90.00000   90.00000   90.00000
LATT -1
SFAC C  
C      1  0.4479890000000  0.4912070000000  0.4576480000000 1.0
C      1  0.5108990000000  0.5086120000000  0.4339150000000 1.0
C      1  0.5635080000000  0.4912990000000  0.4764590000000 1.0
C      1  0.5523920000000  0.5091480000000  0.5436210000000 1.0
C      1  0.4886960000000  0.4912060000000  0.5678280000000 1.0
C      1  0.4360800000000  0.5085160000000  0.5243710000000 1.0
C      1  0.4546270000000  0.4483760000000  0.4802990000000 1.0
C      1  0.4947420000000  0.5514680000000  0.4511910000000 1.0
C      1  0.5434600000000  0.4493720000000  0.4689150000000 1.0
C      1  0.5489350000000  0.5508500000000  0.5221970000000 1.0
C      1  0.5061050000000  0.4495890000000  0.5546820000000 1.0
C      1  0.4555490000000  0.5504040000000  0.5330370000000 1.0
C      1  0.4612880000000  0.5706120000000  0.5524660000000 1.0
C      1  0.4356950000000  0.4287270000000  0.4896150000000 1.0
C      1  0.4771700000000  0.5711040000000  0.4394880000000 1.0
C      1  0.5366380000000  0.4290260000000  0.4503150000000 1.0
C      1  0.5617260000000  0.5710810000000  0.5069090000000 1.0
C      1  0.5258990000000  0.4295410000000  0.5597900000000 1.0
C      1  0.5625110000000  0.5589780000000  0.4809280000000 1.0
C      1  0.5486880000000  0.4411860000000  0.5465840000000 1.0
C      1  0.4840870000000  0.5589550000000  0.5656180000000 1.0
C      1  0.4373110000000  0.4407730000000  0.5160640000000 1.0
C      1  0.4550890000000  0.5591390000000  0.4542050000000 1.0
C      1  0.5144570000000  0.4409560000000  0.4366270000000 1.0
C      1  0.4541370000000  0.4722720000000  0.4350830000000 1.0
C      1  0.5336220000000  0.5275390000000  0.4280150000000 1.0
C      1  0.5782600000000  0.4717070000000  0.4944130000000 1.0
C      1  0.5441430000000  0.5288930000000  0.5652370000000 1.0
C      1  0.4658010000000  0.4711940000000  0.5709350000000 1.0
C      1  0.4217260000000  0.5283280000000  0.5062240000000 1.0
C      1  0.4753090000000  0.5338720000000  0.5819440000000 1.0
C      1  0.4178750000000  0.4651950000000  0.5191360000000 1.0
C      1  0.4426780000000  0.5346060000000  0.4392160000000 1.0
C      1  0.5233180000000  0.4653580000000  0.4196630000000 1.0
C      1  0.5816020000000  0.5345290000000  0.4803690000000 1.0
C      1  0.5584430000000  0.4662990000000  0.5622220000000 1.0
C      1  0.5443500000000  0.4770470000000  0.4579750000000 1.0
C      1  0.5588330000000  0.5230980000000  0.5175770000000 1.0
C      1  0.5146440000000  0.4775360000000  0.5605780000000 1.0
C      1  0.4550110000000  0.5224580000000  0.5434130000000 1.0
C      1  0.4421840000000  0.4769030000000  0.4836790000000 1.0
C      1  0.4856510000000  0.5229980000000  0.4421120000000 1.0
C      1  0.4491020000000  0.5203140000000  0.5726120000000 1.0
C      1  0.4133970000000  0.4785320000000  0.4922470000000 1.0
C      1  0.4636440000000  0.5216860000000  0.4216330000000 1.0
C      1  0.5498200000000  0.4783490000000  0.4285820000000 1.0
C      1  0.5870420000000  0.5214880000000  0.5077920000000 1.0
C      1  0.5371160000000  0.4794900000000  0.5801690000000 1.0
C      1  0.4280520000000  0.5129940000000  0.4547370000000 1.0
C      1  0.5027310000000  0.4872670000000  0.4148930000000 1.0
C      1  0.5759060000000  0.5127520000000  0.4598540000000 1.0
C      1  0.5729820000000  0.4878310000000  0.5464370000000 1.0
C      1  0.4963660000000  0.5126450000000  0.5870260000000 1.0
C      1  0.4235280000000  0.4864590000000  0.5399760000000 1.0
C      1  0.5051140000000  0.5164090000000  0.5305640000000 1.0
C      1  0.4765320000000  0.4835430000000  0.5206100000000 1.0
C      1  0.4712100000000  0.5166290000000  0.4902970000000 1.0
C      1  0.4948190000000  0.4832880000000  0.4709420000000 1.0
C      1  0.5231280000000  0.5164120000000  0.4809910000000 1.0
C      1  0.5285030000000  0.4837950000000  0.5110280000000 1.0
C      1  0.4995240000000  0.5719810000000  0.5196810000000 1.0
C      1  0.4890910000000  0.4386950000000  0.5063350000000 1.0
C      1  0.4893570000000  0.5612830000000  0.4940220000000 1.0
C      1  0.4927420000000  0.4270000000000  0.4798970000000 1.0
C      1  0.5141330000000  0.5728840000000  0.4839150000000 1.0
C      1  0.5165320000000  0.4282170000000  0.5103200000000 1.0
C      1  0.5598630000000  0.5146990000000  0.4343350000000 1.0
C      1  0.5865020000000  0.4851520000000  0.5197270000000 1.0
C      1  0.5262100000000  0.5158400000000  0.5852050000000 1.0
C      1  0.4394930000000  0.4839890000000  0.5653500000000 1.0
C      1  0.4136790000000  0.5149990000000  0.4809170000000 1.0
C      1  0.4727520000000  0.4851580000000  0.4156480000000 1.0
C      1  0.4554120000000  0.4955190000000  0.5048150000000 1.0
C      1  0.4744250000000  0.5043720000000  0.4641900000000 1.0
C      1  0.5188880000000  0.4951940000000  0.4599990000000 1.0
C      1  0.5445880000000  0.5047100000000  0.4964390000000 1.0
C      1  0.5258030000000  0.4956120000000  0.5373220000000 1.0
C      1  0.4809960000000  0.5046590000000  0.5415900000000 1.0
C      1  0.5594870000000  0.4472700000000  0.4942960000000 1.0
C      1  0.5349290000000  0.5531520000000  0.5487690000000 1.0
C      1  0.4760670000000  0.4469580000000  0.5545960000000 1.0
C      1  0.4408550000000  0.5528250000000  0.5068410000000 1.0
C      1  0.4627210000000  0.4470600000000  0.4496810000000 1.0
C      1  0.5252960000000  0.5527490000000  0.4427940000000 1.0
C      1  0.4605360000000  0.5589540000000  0.4846050000000 1.0
C      1  0.4910750000000  0.4424100000000  0.4553460000000 1.0
C      1  0.5345590000000  0.5574130000000  0.4701920000000 1.0
C      1  0.5414180000000  0.4424050000000  0.5174750000000 1.0
C      1  0.5057740000000  0.5578600000000  0.5448090000000 1.0
C      1  0.4664660000000  0.4410870000000  0.5264940000000 1.0
C      1  0.4998040000000  0.5189230000000  0.5005990000000 1.0
C      1  0.4998470000000  0.4811350000000  0.5008970000000 1.0
END
