TITL C-3578208-4450-77 -2.03575790399566e-06 125000 -716.456842249647 0 0 117 (C1) n - 1
REM
REM in /home/bkarasulu/work/CARBON/AIRSS/Generating-Clusters/EDIP-Nigel-Params/with-SteepDescent/Higher-Symm/SD-CG/HFTN-CG
REM
REM
REM
REM
REM
REM ./C.cell (12c818d87b63d06a65506943cc24bca4)
REM
REM compiler GCC version 9.2.1 20190827 (Red Hat 9.2.1-1)
REM options -cpp -mtune=generic -march=x86-64 -g -O0 -fpre-include=/usr/include/finclude/math-vector-fortran.h
REM seed -1332985989 -265486217 1202846210 -65080050 -1253963505 1620067359 -1278576550 1598122283 -685102027 -628538041 122154886 -932303818 -1762454458 -1350740866 -1002721549 1245185221 -1302043014 -1710338714 -1351869875 470206679 -1935472607 -1513307376 -1949781213 284831137 1641356167 -2069391524 -1393388716 -1414060718 1830455021 411146712 91560 -966048379 -1646385778
REM
CELL 1.54180   50.00000   50.00000   50.00000   90.00000   90.00000   90.00000
LATT -1
SFAC C  
C      1  0.4653890000000  0.4969940000000  0.5304410000000 1.0
C      1  0.4651190000000  0.5275930000000  0.4853800000000 1.0
C      1  0.4681460000000  0.4723560000000  0.4801150000000 1.0
C      1  0.5386560000000  0.4445930000000  0.4481960000000 1.0
C      1  0.5385150000000  0.4841210000000  0.5757780000000 1.0
C      1  0.5397860000000  0.5703880000000  0.4755280000000 1.0
C      1  0.4608470000000  0.4131320000000  0.4680010000000 1.0
C      1  0.4603040000000  0.5187130000000  0.5896130000000 1.0
C      1  0.4592120000000  0.5699280000000  0.4408510000000 1.0
C      1  0.5424370000000  0.5893070000000  0.4972810000000 1.0
C      1  0.5409700000000  0.4531460000000  0.4204560000000 1.0
C      1  0.5391890000000  0.4552810000000  0.5811250000000 1.0
C      1  0.4163690000000  0.5543420000000  0.5173850000000 1.0
C      1  0.4158550000000  0.4882780000000  0.4452980000000 1.0
C      1  0.4158770000000  0.4641550000000  0.5317180000000 1.0
C      1  0.4446500000000  0.4374640000000  0.4664710000000 1.0
C      1  0.4445000000000  0.5066230000000  0.5683810000000 1.0
C      1  0.4431930000000  0.5584110000000  0.4630520000000 1.0
C      1  0.4715480000000  0.5438920000000  0.5802910000000 1.0
C      1  0.4707900000000  0.5483990000000  0.4248530000000 1.0
C      1  0.4710090000000  0.4100200000000  0.4949620000000 1.0
C      1  0.4769340000000  0.4074090000000  0.4459990000000 1.0
C      1  0.4755890000000  0.5011760000000  0.6048240000000 1.0
C      1  0.4759640000000  0.5912390000000  0.4474100000000 1.0
C      1  0.4879800000000  0.5901680000000  0.4930830000000 1.0
C      1  0.4880250000000  0.4484440000000  0.4240440000000 1.0
C      1  0.4852520000000  0.4607500000000  0.5804650000000 1.0
C      1  0.4924370000000  0.5379610000000  0.4807810000000 1.0
C      1  0.4956930000000  0.4636910000000  0.4746410000000 1.0
C      1  0.4924320000000  0.4968330000000  0.5420190000000 1.0
C      1  0.5259430000000  0.5869600000000  0.5216960000000 1.0
C      1  0.5248500000000  0.4753210000000  0.4090050000000 1.0
C      1  0.5236580000000  0.4357680000000  0.5647890000000 1.0
C      1  0.4534810000000  0.5749810000000  0.5409940000000 1.0
C      1  0.4531240000000  0.4996780000000  0.4168140000000 1.0
C      1  0.4515240000000  0.4298030000000  0.5395930000000 1.0
C      1  0.5568380000000  0.4172770000000  0.4935810000000 1.0
C      1  0.5556960000000  0.5404220000000  0.5782960000000 1.0
C      1  0.5549600000000  0.5483830000000  0.4249570000000 1.0
C      1  0.5836340000000  0.4730360000000  0.5360990000000 1.0
C      1  0.5815350000000  0.5349300000000  0.5094760000000 1.0
C      1  0.5870290000000  0.4848620000000  0.4567160000000 1.0
C      1  0.4479810000000  0.4214200000000  0.5103750000000 1.0
C      1  0.4492070000000  0.5531900000000  0.5623730000000 1.0
C      1  0.4496350000000  0.5277500000000  0.4281250000000 1.0
C      1  0.5622890000000  0.4315870000000  0.5375860000000 1.0
C      1  0.5631430000000  0.5667960000000  0.5395270000000 1.0
C      1  0.5610940000000  0.5022130000000  0.4206830000000 1.0
C      1  0.5674180000000  0.5253330000000  0.4359940000000 1.0
C      1  0.5698710000000  0.4361540000000  0.5099690000000 1.0
C      1  0.5717350000000  0.5441330000000  0.5554830000000 1.0
C      1  0.4969500000000  0.5904720000000  0.4655400000000 1.0
C      1  0.4971540000000  0.4238630000000  0.4366180000000 1.0
C      1  0.4951320000000  0.4841560000000  0.5950830000000 1.0
C      1  0.5860580000000  0.5173110000000  0.4575490000000 1.0
C      1  0.5807950000000  0.4641170000000  0.5085790000000 1.0
C      1  0.5795590000000  0.5241030000000  0.5360930000000 1.0
C      1  0.4521960000000  0.4584160000000  0.4477810000000 1.0
C      1  0.4499640000000  0.4789250000000  0.5609590000000 1.0
C      1  0.4527470000000  0.5639360000000  0.4899620000000 1.0
C      1  0.4957140000000  0.4699600000000  0.4055440000000 1.0
C      1  0.4943650000000  0.4339800000000  0.5711700000000 1.0
C      1  0.4974560000000  0.5951890000000  0.5203060000000 1.0
C      1  0.4382140000000  0.4779470000000  0.4319630000000 1.0
C      1  0.4368980000000  0.4554320000000  0.5496720000000 1.0
C      1  0.4388120000000  0.5707670000000  0.5142810000000 1.0
C      1  0.5362790000000  0.4818900000000  0.4556450000000 1.0
C      1  0.5337250000000  0.4716340000000  0.5404520000000 1.0
C      1  0.5338730000000  0.5466030000000  0.5045760000000 1.0
C      1  0.5123770000000  0.5110000000000  0.5272660000000 1.0
C      1  0.5118230000000  0.5177500000000  0.4757120000000 1.0
C      1  0.5148420000000  0.4707290000000  0.4951250000000 1.0
C      1  0.5058750000000  0.4231480000000  0.4892250000000 1.0
C      1  0.5058140000000  0.5316400000000  0.5716580000000 1.0
C      1  0.5054840000000  0.5466600000000  0.4367910000000 1.0
C      1  0.4601620000000  0.5252520000000  0.5168360000000 1.0
C      1  0.4631600000000  0.5001550000000  0.4669130000000 1.0
C      1  0.4626710000000  0.4715920000000  0.5117490000000 1.0
C      1  0.4893470000000  0.4978360000000  0.4424030000000 1.0
C      1  0.4882220000000  0.4517640000000  0.5280160000000 1.0
C      1  0.4865810000000  0.5490020000000  0.5271390000000 1.0
C      1  0.5401930000000  0.4848490000000  0.4864980000000 1.0
C      1  0.5376160000000  0.4963410000000  0.5230350000000 1.0
C      1  0.5369270000000  0.5184630000000  0.4912880000000 1.0
C      1  0.4812080000000  0.4269410000000  0.5445950000000 1.0
C      1  0.4832370000000  0.5768730000000  0.5398780000000 1.0
C      1  0.4827590000000  0.4964600000000  0.4125780000000 1.0
C      1  0.5352750000000  0.4217790000000  0.5396950000000 1.0
C      1  0.5358840000000  0.5725600000000  0.5463490000000 1.0
C      1  0.5341570000000  0.5044850000000  0.4112190000000 1.0
C      1  0.5633250000000  0.4788670000000  0.4381270000000 1.0
C      1  0.5627640000000  0.4577670000000  0.5510640000000 1.0
C      1  0.5638840000000  0.5599330000000  0.5103790000000 1.0
C      1  0.5840480000000  0.4849310000000  0.4875360000000 1.0
C      1  0.5897560000000  0.4993040000000  0.5421370000000 1.0
C      1  0.5806630000000  0.5155590000000  0.4876650000000 1.0
C      1  0.4286680000000  0.5038150000000  0.4664930000000 1.0
C      1  0.4317200000000  0.4663490000000  0.5066970000000 1.0
C      1  0.4287860000000  0.5289340000000  0.5249290000000 1.0
C      1  0.4199000000000  0.4911270000000  0.4933710000000 1.0
C      1  0.4035560000000  0.4887330000000  0.5380400000000 1.0
C      1  0.4111380000000  0.5059670000000  0.5169640000000 1.0
C      1  0.5109560000000  0.5369140000000  0.5401020000000 1.0
C      1  0.5119850000000  0.5169050000000  0.4468950000000 1.0
C      1  0.5126640000000  0.4465750000000  0.5113340000000 1.0
C      1  0.4325270000000  0.4400660000000  0.4931580000000 1.0
C      1  0.4335290000000  0.5297030000000  0.5539530000000 1.0
C      1  0.4350930000000  0.5315980000000  0.4535220000000 1.0
C      1  0.5155650000000  0.5689060000000  0.4587930000000 1.0
C      1  0.5164080000000  0.4283140000000  0.4581360000000 1.0
C      1  0.5145030000000  0.5004480000000  0.5804230000000 1.0
C      1  0.5052490000000  0.4723480000000  0.4485420000000 1.0
C      1  0.5018600000000  0.4701270000000  0.5476840000000 1.0
C      1  0.5019950000000  0.5556290000000  0.5017680000000 1.0
C      1  0.5294100000000  0.5365380000000  0.4165470000000 1.0
C      1  0.5322240000000  0.4126520000000  0.5084650000000 1.0
C      1  0.5310100000000  0.5532050000000  0.5709630000000 1.0
END
