TITL C-3578204-4308-351 6.77706641202633e-05 125000 -230.922716599918 0 0 39 (C1) n - 1
REM
REM in /home/bkarasulu/work/CARBON/AIRSS/Generating-Clusters/EDIP-Nigel-Params/with-SteepDescent/Higher-Symm/SD-CG/HFTN-CG
REM
REM
REM
REM
REM
REM ./C.cell (12c818d87b63d06a65506943cc24bca4)
REM
REM compiler GCC version 9.2.1 20190827 (Red Hat 9.2.1-1)
REM options -cpp -mtune=generic -march=x86-64 -g -O0 -fpre-include=/usr/include/finclude/math-vector-fortran.h
REM seed 194421127 1286271024 -1715225706 -535789370 556216426 -1983808122 -1578111598 -214268403 -465028915 1377924970 1595373860 269327354 -1858809484 1842060387 1305577855 472597024 -1328101074 819226488 868445311 1709080484 -1920574247 2129691186 1048797251 -1860251688 -1489482519 225757164 542911776 -2042630206 -1033186976 -1931622893 657876289 353327470 1693152688
REM
CELL 1.54180   50.00000   50.00000   50.00000   90.00000   90.00000   90.00000
LATT -1
SFAC C  
C      1  0.4923080000000  0.5016540000000  0.4337070000000 1.0
C      1  0.4832230000000  0.4379490000000  0.4741860000000 1.0
C      1  0.4904080000000  0.4547960000000  0.5595910000000 1.0
C      1  0.4809260000000  0.5277290000000  0.5526350000000 1.0
C      1  0.4856970000000  0.5610280000000  0.4773350000000 1.0
C      1  0.4714960000000  0.5378560000000  0.5256930000000 1.0
C      1  0.4830860000000  0.5330450000000  0.4723350000000 1.0
C      1  0.4827700000000  0.4840950000000  0.4544290000000 1.0
C      1  0.4776490000000  0.4534720000000  0.4969430000000 1.0
C      1  0.4786390000000  0.4795500000000  0.5569610000000 1.0
C      1  0.5580430000000  0.5086620000000  0.4647970000000 1.0
C      1  0.5296050000000  0.4709550000000  0.4620950000000 1.0
C      1  0.5237610000000  0.4449840000000  0.5264230000000 1.0
C      1  0.5282970000000  0.5097690000000  0.5341420000000 1.0
C      1  0.5503040000000  0.5482470000000  0.4895180000000 1.0
C      1  0.5051170000000  0.4831700000000  0.4749080000000 1.0
C      1  0.4994450000000  0.4731760000000  0.5024650000000 1.0
C      1  0.4961010000000  0.5014670000000  0.5458130000000 1.0
C      1  0.5004230000000  0.5359030000000  0.5129280000000 1.0
C      1  0.5097770000000  0.5156860000000  0.4758440000000 1.0
C      1  0.5400140000000  0.4950850000000  0.4480850000000 1.0
C      1  0.5256300000000  0.4472910000000  0.4477170000000 1.0
C      1  0.5366980000000  0.4430960000000  0.5501290000000 1.0
C      1  0.5206780000000  0.5380580000000  0.5371700000000 1.0
C      1  0.5312060000000  0.5669540000000  0.4910470000000 1.0
C      1  0.5040630000000  0.5429410000000  0.5599590000000 1.0
C      1  0.5047780000000  0.5618070000000  0.4977210000000 1.0
C      1  0.5163880000000  0.5134200000000  0.4443630000000 1.0
C      1  0.5036780000000  0.4349510000000  0.4570190000000 1.0
C      1  0.5089930000000  0.4371160000000  0.5495800000000 1.0
C      1  0.4573830000000  0.4907450000000  0.4699230000000 1.0
C      1  0.4549710000000  0.4730480000000  0.4948210000000 1.0
C      1  0.4535090000000  0.4814100000000  0.5444080000000 1.0
C      1  0.4516390000000  0.5203840000000  0.5108160000000 1.0
C      1  0.4572590000000  0.5199800000000  0.4801070000000 1.0
C      1  0.4596170000000  0.4922580000000  0.5177510000000 1.0
C      1  0.5325400000000  0.5065540000000  0.5055950000000 1.0
C      1  0.5515840000000  0.5206110000000  0.4892540000000 1.0
C      1  0.4894710000000  0.4982030000000  0.5163300000000 1.0
END
