TITL C-3577091-527-80 -4.39694243266555e-06 125000 -556.549703184641 0 0 89 (C1) n - 1
REM
REM in /home/bkarasulu/work/CARBON/AIRSS/Generating-Clusters/EDIP-Nigel-Params/with-SteepDescent/Higher-Symm/SD-CG/HFTN-CG
REM
REM
REM
REM
REM
REM ./C.cell (12c818d87b63d06a65506943cc24bca4)
REM
REM compiler GCC version 9.2.1 20190827 (Red Hat 9.2.1-1)
REM options -cpp -mtune=generic -march=x86-64 -g -O0 -fpre-include=/usr/include/finclude/math-vector-fortran.h
REM seed -2033449619 1988793053 1794940977 595347244 -1836586888 1376969918 2064578319 323966910 -1906033773 985994299 -690944270 1132610063 -1004772153 -34690424 -1480572416 -623872305 47155081 720479038 -1041619584 -2081168396 -1290734455 -567222774 -2076498131 199891252 1570187388 -1520756264 2066596145 675142638 1487446697 1728592237 1224008286 -1011202811 -435188180
REM
CELL 1.54180   50.00000   50.00000   50.00000   90.00000   90.00000   90.00000
LATT -1
SFAC C  
C      1  0.5373710000000  0.5832310000000  0.5115060000000 1.0
C      1  0.5291960000000  0.5292770000000  0.4284760000000 1.0
C      1  0.5322280000000  0.4402600000000  0.4421520000000 1.0
C      1  0.5317330000000  0.4280740000000  0.5356080000000 1.0
C      1  0.5244550000000  0.5149270000000  0.5765620000000 1.0
C      1  0.4658250000000  0.5819930000000  0.5210370000000 1.0
C      1  0.4613760000000  0.5426750000000  0.4303470000000 1.0
C      1  0.4759290000000  0.4476170000000  0.4405820000000 1.0
C      1  0.4700980000000  0.4291020000000  0.5361530000000 1.0
C      1  0.4601990000000  0.5091020000000  0.5832970000000 1.0
C      1  0.5066890000000  0.5183410000000  0.5977720000000 1.0
C      1  0.5128860000000  0.5972170000000  0.5127960000000 1.0
C      1  0.5088050000000  0.5393460000000  0.4124200000000 1.0
C      1  0.5175140000000  0.4200170000000  0.4292750000000 1.0
C      1  0.5098680000000  0.4124980000000  0.5257670000000 1.0
C      1  0.4866150000000  0.4991470000000  0.5932650000000 1.0
C      1  0.4945980000000  0.5783120000000  0.5222940000000 1.0
C      1  0.4901920000000  0.5507880000000  0.4301680000000 1.0
C      1  0.4914210000000  0.4256360000000  0.4334350000000 1.0
C      1  0.4877080000000  0.4082730000000  0.5419630000000 1.0
C      1  0.5523640000000  0.4653010000000  0.4782300000000 1.0
C      1  0.5473320000000  0.4725540000000  0.5289640000000 1.0
C      1  0.5549710000000  0.5234380000000  0.5411180000000 1.0
C      1  0.5672390000000  0.5494580000000  0.4943600000000 1.0
C      1  0.5662810000000  0.5030280000000  0.4442360000000 1.0
C      1  0.4421040000000  0.4644940000000  0.4823080000000 1.0
C      1  0.4362450000000  0.4619640000000  0.5384560000000 1.0
C      1  0.4365950000000  0.5138600000000  0.5378370000000 1.0
C      1  0.4480210000000  0.5444830000000  0.4993440000000 1.0
C      1  0.4449330000000  0.5117290000000  0.4630020000000 1.0
C      1  0.5489400000000  0.4307090000000  0.5119590000000 1.0
C      1  0.5377940000000  0.4898710000000  0.5709000000000 1.0
C      1  0.5483380000000  0.5688150000000  0.5346010000000 1.0
C      1  0.5424690000000  0.5444010000000  0.4491920000000 1.0
C      1  0.5497800000000  0.4598860000000  0.4290430000000 1.0
C      1  0.4563400000000  0.4298790000000  0.5104800000000 1.0
C      1  0.4436750000000  0.4842510000000  0.5796740000000 1.0
C      1  0.4531740000000  0.5619750000000  0.5407820000000 1.0
C      1  0.4486570000000  0.5580470000000  0.4532630000000 1.0
C      1  0.4727790000000  0.4675840000000  0.4207660000000 1.0
C      1  0.4840580000000  0.4950390000000  0.5441240000000 1.0
C      1  0.4743830000000  0.5263900000000  0.5013050000000 1.0
C      1  0.4860020000000  0.5253550000000  0.4736690000000 1.0
C      1  0.4862270000000  0.4960390000000  0.4631580000000 1.0
C      1  0.4828210000000  0.4787870000000  0.4897300000000 1.0
C      1  0.5074010000000  0.5026410000000  0.5263740000000 1.0
C      1  0.5022050000000  0.5303790000000  0.5151320000000 1.0
C      1  0.5204240000000  0.5349790000000  0.4895640000000 1.0
C      1  0.5134700000000  0.4903020000000  0.4580850000000 1.0
C      1  0.5110750000000  0.4801710000000  0.5048040000000 1.0
C      1  0.5191350000000  0.4666480000000  0.5682360000000 1.0
C      1  0.5270140000000  0.5588580000000  0.5534000000000 1.0
C      1  0.5262510000000  0.5589330000000  0.4692500000000 1.0
C      1  0.5336050000000  0.4806690000000  0.4148950000000 1.0
C      1  0.5244030000000  0.4266280000000  0.4921160000000 1.0
C      1  0.4641530000000  0.4610950000000  0.5764000000000 1.0
C      1  0.4753100000000  0.5459840000000  0.5523430000000 1.0
C      1  0.4699300000000  0.5747740000000  0.4688580000000 1.0
C      1  0.4760780000000  0.4957790000000  0.4239930000000 1.0
C      1  0.4740130000000  0.4309170000000  0.4869330000000 1.0
C      1  0.4386320000000  0.4532190000000  0.5094660000000 1.0
C      1  0.4281280000000  0.4866670000000  0.5537320000000 1.0
C      1  0.4339050000000  0.5428850000000  0.5266800000000 1.0
C      1  0.4363630000000  0.5378630000000  0.4722420000000 1.0
C      1  0.4304040000000  0.4899540000000  0.4751920000000 1.0
C      1  0.5615470000000  0.4581930000000  0.5074080000000 1.0
C      1  0.5563510000000  0.4940000000000  0.5471430000000 1.0
C      1  0.5654470000000  0.5461010000000  0.5242220000000 1.0
C      1  0.5601160000000  0.5259220000000  0.4658110000000 1.0
C      1  0.5662160000000  0.4737210000000  0.4510600000000 1.0
C      1  0.5275870000000  0.4558100000000  0.5421770000000 1.0
C      1  0.5401200000000  0.5348870000000  0.5633760000000 1.0
C      1  0.5475200000000  0.5704790000000  0.4872950000000 1.0
C      1  0.5469560000000  0.5070160000000  0.4212720000000 1.0
C      1  0.5390360000000  0.4400920000000  0.4698040000000 1.0
C      1  0.4532520000000  0.4443410000000  0.5544990000000 1.0
C      1  0.4648350000000  0.5172790000000  0.5540970000000 1.0
C      1  0.4549920000000  0.5727770000000  0.4950060000000 1.0
C      1  0.4561950000000  0.5137360000000  0.4360000000000 1.0
C      1  0.4617060000000  0.4482300000000  0.4664830000000 1.0
C      1  0.4902100000000  0.4783320000000  0.5703610000000 1.0
C      1  0.4925210000000  0.5537470000000  0.4603940000000 1.0
C      1  0.5086820000000  0.4762450000000  0.4329870000000 1.0
C      1  0.4989230000000  0.4442030000000  0.4979640000000 1.0
C      1  0.5006670000000  0.5532390000000  0.5370140000000 1.0
C      1  0.4382520000000  0.4972290000000  0.5119350000000 1.0
C      1  0.5416350000000  0.5143220000000  0.4868130000000 1.0
C      1  0.4672810000000  0.4978190000000  0.5090190000000 1.0
C      1  0.5305430000000  0.4872790000000  0.4821570000000 1.0
END
