TITL C-3577087-600-384 -3.71459785816469e-06 125000 -1218.82662878753 0 0 193 (C1) n - 1
REM
REM in /home/bkarasulu/work/CARBON/AIRSS/Generating-Clusters/EDIP-Nigel-Params/with-SteepDescent/Higher-Symm/SD-CG/HFTN-CG
REM
REM
REM
REM
REM
REM ./C.cell (12c818d87b63d06a65506943cc24bca4)
REM
REM compiler GCC version 9.2.1 20190827 (Red Hat 9.2.1-1)
REM options -cpp -mtune=generic -march=x86-64 -g -O0 -fpre-include=/usr/include/finclude/math-vector-fortran.h
REM seed 1302989534 -962284955 807498988 -1655423662 -1177829731 352792407 1062682197 612083933 -310169294 186691166 -1441841529 -1901431799 2073128040 -7839808 1998883129 -449941120 -1237680124 1332503413 -765830547 -1917910063 -1626799774 -1060166726 2011987506 -186827817 1354539218 947004437 -763851500 1390381904 -661354239 1085000506 -1273567489 -368905877 -868276320
REM
CELL 1.54180   50.00000   50.00000   50.00000   90.00000   90.00000   90.00000
LATT -1
SFAC C  
C      1  0.5092060000000  0.4774350000000  0.5126550000000 1.0
C      1  0.5192910000000  0.5290540000000  0.5114340000000 1.0
C      1  0.5454760000000  0.4876780000000  0.4856150000000 1.0
C      1  0.5205050000000  0.5239150000000  0.4839970000000 1.0
C      1  0.5177110000000  0.4822830000000  0.4520940000000 1.0
C      1  0.4963950000000  0.5234350000000  0.4702640000000 1.0
C      1  0.4767990000000  0.4848870000000  0.4787330000000 1.0
C      1  0.4741680000000  0.5284070000000  0.4862620000000 1.0
C      1  0.4630180000000  0.4760810000000  0.5039430000000 1.0
C      1  0.4728730000000  0.5181500000000  0.5124930000000 1.0
C      1  0.4833450000000  0.4731650000000  0.5241000000000 1.0
C      1  0.4979420000000  0.5183090000000  0.5259040000000 1.0
C      1  0.5256760000000  0.5511280000000  0.4496180000000 1.0
C      1  0.5017940000000  0.4412340000000  0.4468260000000 1.0
C      1  0.4688290000000  0.5498820000000  0.4480930000000 1.0
C      1  0.4536600000000  0.4483720000000  0.4708470000000 1.0
C      1  0.4385490000000  0.5486930000000  0.5032260000000 1.0
C      1  0.4470890000000  0.4504430000000  0.5360730000000 1.0
C      1  0.4686280000000  0.5464530000000  0.5469850000000 1.0
C      1  0.5015260000000  0.4519280000000  0.5584210000000 1.0
C      1  0.5191420000000  0.5469040000000  0.5553310000000 1.0
C      1  0.5471310000000  0.4516710000000  0.5193750000000 1.0
C      1  0.5549330000000  0.5493080000000  0.4960300000000 1.0
C      1  0.5436310000000  0.4412820000000  0.4702990000000 1.0
C      1  0.4794190000000  0.5700820000000  0.4718790000000 1.0
C      1  0.4705300000000  0.4288590000000  0.4871980000000 1.0
C      1  0.4619140000000  0.5704820000000  0.5019170000000 1.0
C      1  0.4699320000000  0.4307880000000  0.5221030000000 1.0
C      1  0.4800650000000  0.5694010000000  0.5297840000000 1.0
C      1  0.5005260000000  0.4307720000000  0.5365850000000 1.0
C      1  0.5135360000000  0.5683590000000  0.5311420000000 1.0
C      1  0.5280280000000  0.4274730000000  0.5160880000000 1.0
C      1  0.5305190000000  0.5702970000000  0.4992950000000 1.0
C      1  0.5244750000000  0.4212140000000  0.4835530000000 1.0
C      1  0.5127990000000  0.5716130000000  0.4711030000000 1.0
C      1  0.4965270000000  0.4227600000000  0.4696410000000 1.0
C      1  0.4696340000000  0.5295270000000  0.3952080000000 1.0
C      1  0.4089050000000  0.4695340000000  0.4340420000000 1.0
C      1  0.3923520000000  0.5168660000000  0.4882380000000 1.0
C      1  0.3900130000000  0.4710580000000  0.5510940000000 1.0
C      1  0.4372840000000  0.5211340000000  0.5859900000000 1.0
C      1  0.4929660000000  0.4835690000000  0.6109010000000 1.0
C      1  0.5516240000000  0.5104440000000  0.5981420000000 1.0
C      1  0.5828820000000  0.4922700000000  0.5465540000000 1.0
C      1  0.6179190000000  0.5361840000000  0.5196510000000 1.0
C      1  0.5864670000000  0.4620330000000  0.4365450000000 1.0
C      1  0.5792480000000  0.5372890000000  0.4153490000000 1.0
C      1  0.5103790000000  0.4591100000000  0.3851370000000 1.0
C      1  0.4407520000000  0.5184080000000  0.4361160000000 1.0
C      1  0.4066660000000  0.4912840000000  0.4817230000000 1.0
C      1  0.4051060000000  0.5206330000000  0.5389810000000 1.0
C      1  0.4342390000000  0.4770880000000  0.5803340000000 1.0
C      1  0.4872370000000  0.5096510000000  0.5963410000000 1.0
C      1  0.5390030000000  0.4856030000000  0.5873710000000 1.0
C      1  0.5756350000000  0.5179910000000  0.5618120000000 1.0
C      1  0.5886210000000  0.4810640000000  0.4914680000000 1.0
C      1  0.5998890000000  0.5279310000000  0.4714450000000 1.0
C      1  0.5518770000000  0.4935130000000  0.4267330000000 1.0
C      1  0.5300920000000  0.5293260000000  0.4006770000000 1.0
C      1  0.4803740000000  0.4805650000000  0.4149170000000 1.0
C      1  0.4796800000000  0.4584800000000  0.6006300000000 1.0
C      1  0.5338410000000  0.5338180000000  0.5947010000000 1.0
C      1  0.5730900000000  0.4659830000000  0.5562180000000 1.0
C      1  0.5972140000000  0.5522220000000  0.5289140000000 1.0
C      1  0.5910720000000  0.4430920000000  0.4569340000000 1.0
C      1  0.5745990000000  0.5556900000000  0.4355900000000 1.0
C      1  0.5209220000000  0.4396500000000  0.4016230000000 1.0
C      1  0.4830680000000  0.5528200000000  0.4016630000000 1.0
C      1  0.4280690000000  0.4495710000000  0.4320170000000 1.0
C      1  0.4029840000000  0.5411780000000  0.4740020000000 1.0
C      1  0.3984960000000  0.4534880000000  0.5309880000000 1.0
C      1  0.4306100000000  0.5473480000000  0.5740510000000 1.0
C      1  0.4302650000000  0.4350490000000  0.4590520000000 1.0
C      1  0.4110530000000  0.5598690000000  0.4951480000000 1.0
C      1  0.4203340000000  0.4377690000000  0.5427230000000 1.0
C      1  0.4568940000000  0.5584150000000  0.5716980000000 1.0
C      1  0.5009090000000  0.4433640000000  0.5863340000000 1.0
C      1  0.5443630000000  0.5578560000000  0.5831490000000 1.0
C      1  0.5708070000000  0.4452620000000  0.5363020000000 1.0
C      1  0.5837650000000  0.5712350000000  0.5103990000000 1.0
C      1  0.5673070000000  0.4251500000000  0.4582040000000 1.0
C      1  0.5484610000000  0.5709650000000  0.4340470000000 1.0
C      1  0.5009290000000  0.4264730000000  0.4209800000000 1.0
C      1  0.4670470000000  0.5687690000000  0.4218660000000 1.0
C      1  0.5781100000000  0.5146410000000  0.5905080000000 1.0
C      1  0.5919500000000  0.4930190000000  0.5189710000000 1.0
C      1  0.6168320000000  0.5304540000000  0.4934480000000 1.0
C      1  0.5636940000000  0.4675090000000  0.4208150000000 1.0
C      1  0.5572610000000  0.5358710000000  0.3998190000000 1.0
C      1  0.4894240000000  0.4752720000000  0.3891100000000 1.0
C      1  0.4501680000000  0.5185260000000  0.4100190000000 1.0
C      1  0.3987080000000  0.4818690000000  0.4557490000000 1.0
C      1  0.3898330000000  0.5208860000000  0.5156830000000 1.0
C      1  0.4088750000000  0.4697150000000  0.5707880000000 1.0
C      1  0.4603570000000  0.5196640000000  0.6017790000000 1.0
C      1  0.5197260000000  0.4776150000000  0.6069700000000 1.0
C      1  0.5378790000000  0.4367500000000  0.5786270000000 1.0
C      1  0.5601350000000  0.5635810000000  0.5599560000000 1.0
C      1  0.5880210000000  0.4323380000000  0.5052940000000 1.0
C      1  0.5860380000000  0.5750250000000  0.4799930000000 1.0
C      1  0.5551930000000  0.4187790000000  0.4313620000000 1.0
C      1  0.5252240000000  0.5766640000000  0.4136370000000 1.0
C      1  0.4705470000000  0.4272430000000  0.4186980000000 1.0
C      1  0.4358640000000  0.5704400000000  0.4381610000000 1.0
C      1  0.4153190000000  0.4358980000000  0.4883630000000 1.0
C      1  0.4118640000000  0.5708220000000  0.5312520000000 1.0
C      1  0.4453150000000  0.4313990000000  0.5707530000000 1.0
C      1  0.4916330000000  0.5592760000000  0.5868310000000 1.0
C      1  0.5547300000000  0.4013030000000  0.5493080000000 1.0
C      1  0.5671130000000  0.5935160000000  0.5216980000000 1.0
C      1  0.5671050000000  0.3998140000000  0.4763170000000 1.0
C      1  0.5493980000000  0.5958160000000  0.4513390000000 1.0
C      1  0.5094000000000  0.3980390000000  0.4301140000000 1.0
C      1  0.4800100000000  0.5946760000000  0.4304810000000 1.0
C      1  0.4413770000000  0.4064490000000  0.4558710000000 1.0
C      1  0.4276440000000  0.5984020000000  0.4818500000000 1.0
C      1  0.4302050000000  0.3988060000000  0.5260150000000 1.0
C      1  0.4465480000000  0.5968830000000  0.5531900000000 1.0
C      1  0.4860480000000  0.4033160000000  0.5743510000000 1.0
C      1  0.5157050000000  0.5990290000000  0.5727100000000 1.0
C      1  0.5463860000000  0.5260210000000  0.5212300000000 1.0
C      1  0.5557340000000  0.4595860000000  0.4908350000000 1.0
C      1  0.5443510000000  0.5329300000000  0.4691060000000 1.0
C      1  0.5273570000000  0.4543040000000  0.4475600000000 1.0
C      1  0.4958280000000  0.5304590000000  0.4422490000000 1.0
C      1  0.4633560000000  0.4721670000000  0.4545920000000 1.0
C      1  0.4455820000000  0.5299340000000  0.4783510000000 1.0
C      1  0.4363670000000  0.4755180000000  0.5190310000000 1.0
C      1  0.4497960000000  0.5292440000000  0.5277250000000 1.0
C      1  0.4807710000000  0.4729160000000  0.5544890000000 1.0
C      1  0.4936290000000  0.5287830000000  0.5521500000000 1.0
C      1  0.5338720000000  0.4786360000000  0.5297670000000 1.0
C      1  0.5825600000000  0.5462390000000  0.5531330000000 1.0
C      1  0.5981150000000  0.4516380000000  0.4847600000000 1.0
C      1  0.5841490000000  0.5513810000000  0.4629720000000 1.0
C      1  0.5428140000000  0.4454960000000  0.4223190000000 1.0
C      1  0.5117320000000  0.5516000000000  0.4074870000000 1.0
C      1  0.4582720000000  0.4555980000000  0.4233220000000 1.0
C      1  0.4253220000000  0.5425740000000  0.4477200000000 1.0
C      1  0.4103430000000  0.4631910000000  0.5039610000000 1.0
C      1  0.4147220000000  0.5471170000000  0.5484100000000 1.0
C      1  0.4578900000000  0.4592360000000  0.5778770000000 1.0
C      1  0.5047100000000  0.5348040000000  0.5979200000000 1.0
C      1  0.5546180000000  0.4613160000000  0.5788250000000 1.0
C      1  0.4844520000000  0.6163480000000  0.5295020000000 1.0
C      1  0.5034990000000  0.3828640000000  0.5331680000000 1.0
C      1  0.5139370000000  0.6175580000000  0.5277880000000 1.0
C      1  0.5266460000000  0.3795030000000  0.5152640000000 1.0
C      1  0.5270780000000  0.6195960000000  0.5013940000000 1.0
C      1  0.5213400000000  0.3733920000000  0.4862790000000 1.0
C      1  0.5105680000000  0.6206360000000  0.4763890000000 1.0
C      1  0.4928460000000  0.3741300000000  0.4750070000000 1.0
C      1  0.4808910000000  0.6188780000000  0.4780410000000 1.0
C      1  0.4702270000000  0.3793390000000  0.4935270000000 1.0
C      1  0.4678380000000  0.6175200000000  0.5047450000000 1.0
C      1  0.4760540000000  0.3818680000000  0.5223880000000 1.0
C      1  0.4912610000000  0.5862440000000  0.5733110000000 1.0
C      1  0.5338520000000  0.4110830000000  0.5647240000000 1.0
C      1  0.5542640000000  0.5889980000000  0.5468700000000 1.0
C      1  0.5720510000000  0.4071670000000  0.5036330000000 1.0
C      1  0.5651510000000  0.5962700000000  0.4755780000000 1.0
C      1  0.5365130000000  0.3963140000000  0.4404650000000 1.0
C      1  0.5089500000000  0.5972850000000  0.4292290000000 1.0
C      1  0.4639610000000  0.4035350000000  0.4376650000000 1.0
C      1  0.4405440000000  0.5935730000000  0.4576340000000 1.0
C      1  0.4292690000000  0.4112960000000  0.5007730000000 1.0
C      1  0.4304700000000  0.5933460000000  0.5306190000000 1.0
C      1  0.4606400000000  0.4071430000000  0.5633540000000 1.0
C      1  0.5471680000000  0.5970100000000  0.4996770000000 1.0
C      1  0.5371740000000  0.3946740000000  0.4717580000000 1.0
C      1  0.5201380000000  0.5987640000000  0.4573360000000 1.0
C      1  0.4900210000000  0.3964490000000  0.4536000000000 1.0
C      1  0.4701210000000  0.5968820000000  0.4591660000000 1.0
C      1  0.4525700000000  0.4034220000000  0.4841200000000 1.0
C      1  0.4457030000000  0.5964580000000  0.5045710000000 1.0
C      1  0.4583900000000  0.4034190000000  0.5336170000000 1.0
C      1  0.4748540000000  0.5937390000000  0.5478690000000 1.0
C      1  0.5060080000000  0.4054680000000  0.5534620000000 1.0
C      1  0.5247080000000  0.5950350000000  0.5453250000000 1.0
C      1  0.5465900000000  0.4025260000000  0.5215970000000 1.0
C      1  0.5420060000000  0.5237140000000  0.5522900000000 1.0
C      1  0.5539060000000  0.4978060000000  0.5140400000000 1.0
C      1  0.5864710000000  0.5019800000000  0.4689650000000 1.0
C      1  0.5575940000000  0.5044440000000  0.4617230000000 1.0
C      1  0.5269050000000  0.5027740000000  0.4134650000000 1.0
C      1  0.5024110000000  0.4984580000000  0.4304940000000 1.0
C      1  0.4412220000000  0.4932330000000  0.4522570000000 1.0
C      1  0.4352330000000  0.5003650000000  0.4796220000000 1.0
C      1  0.4311240000000  0.5047780000000  0.5382640000000 1.0
C      1  0.4412720000000  0.5007330000000  0.5663970000000 1.0
C      1  0.4944320000000  0.5009790000000  0.5666600000000 1.0
C      1  0.5263390000000  0.4959500000000  0.5605590000000 1.0
C      1  0.5070660000000  0.4825570000000  0.4817400000000 1.0
END
