TITL C-3578203-1966-283 -1.20500376737496e-06 125000 -632.192225103044 0 0 101 (C1) n - 1
REM
REM in /home/bkarasulu/work/CARBON/AIRSS/Generating-Clusters/EDIP-Nigel-Params/with-SteepDescent/Higher-Symm/SD-CG/HFTN-CG
REM
REM
REM
REM
REM
REM ./C.cell (12c818d87b63d06a65506943cc24bca4)
REM
REM compiler GCC version 9.2.1 20190827 (Red Hat 9.2.1-1)
REM options -cpp -mtune=generic -march=x86-64 -g -O0 -fpre-include=/usr/include/finclude/math-vector-fortran.h
REM seed 1217041036 211930612 -557070955 350842751 1423591806 406521415 -37649213 -888542386 -654787666 223818347 -1067937927 -1252706159 -1253427895 -1288994405 735861636 -1837145528 -1825229772 -1530585694 -2048098004 887669190 481474152 -1502048469 1409398186 150917661 1597654351 -1496495331 -361464979 1663432851 314499023 1031514753 227184142 -1260060059 -1116803965
REM
CELL 1.54180   50.00000   50.00000   50.00000   90.00000   90.00000   90.00000
LATT -1
SFAC C  
C      1  0.4487750000000  0.4731260000000  0.4642040000000 1.0
C      1  0.4478750000000  0.4619010000000  0.4931190000000 1.0
C      1  0.4506370000000  0.4815160000000  0.5360680000000 1.0
C      1  0.4570710000000  0.5096500000000  0.5423670000000 1.0
C      1  0.4503400000000  0.5310400000000  0.5218700000000 1.0
C      1  0.4502420000000  0.5314990000000  0.4806390000000 1.0
C      1  0.4498820000000  0.5112850000000  0.4562590000000 1.0
C      1  0.5001910000000  0.5355550000000  0.4062010000000 1.0
C      1  0.5009650000000  0.4502230000000  0.4138290000000 1.0
C      1  0.5003880000000  0.4056140000000  0.4863470000000 1.0
C      1  0.4990680000000  0.4306290000000  0.5673000000000 1.0
C      1  0.5045490000000  0.5097500000000  0.5987760000000 1.0
C      1  0.5009270000000  0.5809840000000  0.5544920000000 1.0
C      1  0.5002400000000  0.5892770000000  0.4711710000000 1.0
C      1  0.4208190000000  0.4798430000000  0.5308650000000 1.0
C      1  0.4093570000000  0.5058070000000  0.5320690000000 1.0
C      1  0.4196220000000  0.5293510000000  0.5203420000000 1.0
C      1  0.4224230000000  0.5256730000000  0.4915760000000 1.0
C      1  0.4215060000000  0.5065930000000  0.4484380000000 1.0
C      1  0.4197960000000  0.4798510000000  0.4576020000000 1.0
C      1  0.4197080000000  0.4692340000000  0.5031890000000 1.0
C      1  0.5163430000000  0.5754710000000  0.4276150000000 1.0
C      1  0.5139990000000  0.4898890000000  0.3882380000000 1.0
C      1  0.5182250000000  0.4112530000000  0.4409010000000 1.0
C      1  0.5151720000000  0.3998640000000  0.5328740000000 1.0
C      1  0.5159510000000  0.4629970000000  0.6025330000000 1.0
C      1  0.5193350000000  0.5564880000000  0.5932930000000 1.0
C      1  0.5167090000000  0.6040190000000  0.5143200000000 1.0
C      1  0.5100020000000  0.5665980000000  0.4543730000000 1.0
C      1  0.5104270000000  0.5073940000000  0.4111400000000 1.0
C      1  0.5117520000000  0.4396560000000  0.4405490000000 1.0
C      1  0.5076080000000  0.4191620000000  0.5124710000000 1.0
C      1  0.5104910000000  0.4577470000000  0.5745330000000 1.0
C      1  0.5161440000000  0.5308470000000  0.5801080000000 1.0
C      1  0.5104920000000  0.5780690000000  0.5260630000000 1.0
C      1  0.5243520000000  0.5739180000000  0.5717560000000 1.0
C      1  0.5235320000000  0.5969380000000  0.4878940000000 1.0
C      1  0.5230950000000  0.5531360000000  0.4121270000000 1.0
C      1  0.5223180000000  0.4655800000000  0.4002190000000 1.0
C      1  0.5241220000000  0.4070240000000  0.4683880000000 1.0
C      1  0.5218000000000  0.4164110000000  0.5546330000000 1.0
C      1  0.5252910000000  0.4896560000000  0.6044090000000 1.0
C      1  0.5360950000000  0.5618470000000  0.5307070000000 1.0
C      1  0.5349750000000  0.5572410000000  0.4688840000000 1.0
C      1  0.5365280000000  0.5127010000000  0.4252420000000 1.0
C      1  0.5376310000000  0.4563390000000  0.4433750000000 1.0
C      1  0.5316090000000  0.4370760000000  0.5039680000000 1.0
C      1  0.5357300000000  0.4598230000000  0.5586580000000 1.0
C      1  0.5426900000000  0.5180040000000  0.5713460000000 1.0
C      1  0.5696740000000  0.4772520000000  0.4763950000000 1.0
C      1  0.5699360000000  0.4682640000000  0.5038640000000 1.0
C      1  0.5833600000000  0.4854860000000  0.5212820000000 1.0
C      1  0.5753490000000  0.5099990000000  0.5319830000000 1.0
C      1  0.5765690000000  0.5312490000000  0.5118790000000 1.0
C      1  0.5713830000000  0.5261850000000  0.4837400000000 1.0
C      1  0.5822280000000  0.5021340000000  0.4744430000000 1.0
C      1  0.4822970000000  0.4337630000000  0.5201100000000 1.0
C      1  0.4900440000000  0.4773370000000  0.5631340000000 1.0
C      1  0.4945070000000  0.5334910000000  0.5577110000000 1.0
C      1  0.4872090000000  0.5645270000000  0.5111830000000 1.0
C      1  0.4861230000000  0.5468890000000  0.4544220000000 1.0
C      1  0.4895840000000  0.4958200000000  0.4306050000000 1.0
C      1  0.4882470000000  0.4445190000000  0.4593790000000 1.0
C      1  0.4714420000000  0.5178410000000  0.5662800000000 1.0
C      1  0.4649920000000  0.5576260000000  0.5289710000000 1.0
C      1  0.4622630000000  0.5580760000000  0.4697010000000 1.0
C      1  0.4660850000000  0.5141150000000  0.4308470000000 1.0
C      1  0.4659440000000  0.4567790000000  0.4460250000000 1.0
C      1  0.4614590000000  0.4337490000000  0.4986130000000 1.0
C      1  0.4646260000000  0.4626020000000  0.5563110000000 1.0
C      1  0.5469340000000  0.5682250000000  0.5557280000000 1.0
C      1  0.5449600000000  0.5788340000000  0.4836840000000 1.0
C      1  0.5460620000000  0.5382030000000  0.4187680000000 1.0
C      1  0.5446330000000  0.4652640000000  0.4175870000000 1.0
C      1  0.5424230000000  0.4242270000000  0.4814040000000 1.0
C      1  0.5441610000000  0.4337260000000  0.5526780000000 1.0
C      1  0.5483930000000  0.4981780000000  0.5904780000000 1.0
C      1  0.5038670000000  0.4882180000000  0.5353870000000 1.0
C      1  0.5048710000000  0.5190690000000  0.5314540000000 1.0
C      1  0.5040780000000  0.5257650000000  0.4985920000000 1.0
C      1  0.4925970000000  0.5229500000000  0.4714850000000 1.0
C      1  0.5032640000000  0.4992700000000  0.4586010000000 1.0
C      1  0.5068800000000  0.4757370000000  0.4834300000000 1.0
C      1  0.4914510000000  0.4757710000000  0.5106280000000 1.0
C      1  0.5333050000000  0.4799760000000  0.5363990000000 1.0
C      1  0.5469280000000  0.5095120000000  0.5425090000000 1.0
C      1  0.5396190000000  0.5336100000000  0.5208090000000 1.0
C      1  0.5422670000000  0.5286560000000  0.4769180000000 1.0
C      1  0.5335300000000  0.5059490000000  0.4544280000000 1.0
C      1  0.5415310000000  0.4766010000000  0.4652400000000 1.0
C      1  0.5409080000000  0.4662430000000  0.5085570000000 1.0
C      1  0.4781040000000  0.4228520000000  0.4761500000000 1.0
C      1  0.4751750000000  0.4355480000000  0.5488750000000 1.0
C      1  0.4820210000000  0.4975880000000  0.5838730000000 1.0
C      1  0.4802270000000  0.5597300000000  0.5547950000000 1.0
C      1  0.4773330000000  0.5777020000000  0.4869340000000 1.0
C      1  0.4777270000000  0.5401430000000  0.4257600000000 1.0
C      1  0.4791630000000  0.4685160000000  0.4227960000000 1.0
C      1  0.4101720000000  0.4905880000000  0.4839880000000 1.0
C      1  0.4633680000000  0.4797090000000  0.5098100000000 1.0
C      1  0.5250140000000  0.5005940000000  0.4976270000000 1.0
END
