TITL C-3578200-9634-792 6.1818684080464e-07 125000 -494.406853016259 0 0 80 (C1) n - 1
REM
REM in /home/bkarasulu/work/CARBON/AIRSS/Generating-Clusters/EDIP-Nigel-Params/with-SteepDescent/Higher-Symm/SD-CG/HFTN-CG
REM
REM
REM
REM
REM
REM ./C.cell (12c818d87b63d06a65506943cc24bca4)
REM
REM compiler GCC version 9.2.1 20190827 (Red Hat 9.2.1-1)
REM options -cpp -mtune=generic -march=x86-64 -g -O0 -fpre-include=/usr/include/finclude/math-vector-fortran.h
REM seed -1677794247 1787020304 1157916176 -947319786 810088813 1740339355 248004991 -1855820589 1595131533 -1574348230 -1660643400 1306154504 1489103518 1120294465 957221813 -150411462 73526667 1635079297 -901293324 -77935072 -1491205306 -1714968509 495878691 -1186496093 367907875 1821748233 2100706139 -1004713985 384579368 2026120616 87845118 808972670 1590068038
REM
CELL 1.54180   50.00000   50.00000   50.00000   90.00000   90.00000   90.00000
LATT -1
SFAC C  
C      1  0.4722610000000  0.5749330000000  0.4668910000000 1.0
C      1  0.4639240000000  0.5855020000000  0.5159970000000 1.0
C      1  0.4660440000000  0.5604730000000  0.5608680000000 1.0
C      1  0.4749940000000  0.5127760000000  0.5781220000000 1.0
C      1  0.4753000000000  0.4633430000000  0.5656910000000 1.0
C      1  0.4715740000000  0.4246630000000  0.5330160000000 1.0
C      1  0.4661940000000  0.4153960000000  0.4836220000000 1.0
C      1  0.4658620000000  0.4394050000000  0.4385240000000 1.0
C      1  0.4748340000000  0.4870260000000  0.4212930000000 1.0
C      1  0.4750400000000  0.5368450000000  0.4330650000000 1.0
C      1  0.5634850000000  0.5232200000000  0.5407570000000 1.0
C      1  0.5649740000000  0.4955700000000  0.5475340000000 1.0
C      1  0.5662160000000  0.4611060000000  0.5300850000000 1.0
C      1  0.5642300000000  0.4515270000000  0.5032510000000 1.0
C      1  0.5761980000000  0.4661830000000  0.4824780000000 1.0
C      1  0.5635080000000  0.4758750000000  0.4593760000000 1.0
C      1  0.5648580000000  0.5035440000000  0.4528210000000 1.0
C      1  0.5665640000000  0.5381590000000  0.4699870000000 1.0
C      1  0.5648690000000  0.5481140000000  0.4966520000000 1.0
C      1  0.5759830000000  0.5328970000000  0.5175300000000 1.0
C      1  0.4412330000000  0.4776860000000  0.4560660000000 1.0
C      1  0.4424230000000  0.5077710000000  0.4533870000000 1.0
C      1  0.4430820000000  0.5342650000000  0.4684210000000 1.0
C      1  0.4406730000000  0.5495570000000  0.4942510000000 1.0
C      1  0.4376630000000  0.5458170000000  0.5243290000000 1.0
C      1  0.4411730000000  0.5223510000000  0.5435400000000 1.0
C      1  0.4426960000000  0.4923090000000  0.5457190000000 1.0
C      1  0.4429590000000  0.4656660000000  0.5309350000000 1.0
C      1  0.4408600000000  0.4501170000000  0.5053140000000 1.0
C      1  0.4383330000000  0.4543150000000  0.4754020000000 1.0
C      1  0.5414260000000  0.4590570000000  0.4509000000000 1.0
C      1  0.5474920000000  0.5185050000000  0.4349270000000 1.0
C      1  0.5484070000000  0.5447730000000  0.4482830000000 1.0
C      1  0.5419100000000  0.5634820000000  0.5055060000000 1.0
C      1  0.5399900000000  0.5652210000000  0.5346400000000 1.0
C      1  0.5414860000000  0.5401390000000  0.5492780000000 1.0
C      1  0.5480150000000  0.4805520000000  0.5658710000000 1.0
C      1  0.5487240000000  0.4542920000000  0.5522610000000 1.0
C      1  0.5418820000000  0.4353100000000  0.4940000000000 1.0
C      1  0.5402430000000  0.4334820000000  0.4649430000000 1.0
C      1  0.5092110000000  0.4893760000000  0.5188160000000 1.0
C      1  0.5033280000000  0.4636010000000  0.5141750000000 1.0
C      1  0.4921850000000  0.4497730000000  0.4935340000000 1.0
C      1  0.4916470000000  0.4645330000000  0.4705570000000 1.0
C      1  0.4971440000000  0.4910880000000  0.4706200000000 1.0
C      1  0.5004760000000  0.5145030000000  0.4830700000000 1.0
C      1  0.4981950000000  0.5412010000000  0.4867140000000 1.0
C      1  0.4877660000000  0.5551440000000  0.5097240000000 1.0
C      1  0.4889960000000  0.5368350000000  0.5314350000000 1.0
C      1  0.5004630000000  0.5122910000000  0.5293780000000 1.0
C      1  0.5051460000000  0.5128710000000  0.5736930000000 1.0
C      1  0.5045480000000  0.4615190000000  0.5685260000000 1.0
C      1  0.5085680000000  0.4239420000000  0.5321590000000 1.0
C      1  0.5030100000000  0.4095390000000  0.4826460000000 1.0
C      1  0.5020680000000  0.4370640000000  0.4378990000000 1.0
C      1  0.5046920000000  0.4868350000000  0.4269990000000 1.0
C      1  0.5045210000000  0.5380590000000  0.4315900000000 1.0
C      1  0.5097030000000  0.5773380000000  0.4659980000000 1.0
C      1  0.5022220000000  0.5830910000000  0.5158110000000 1.0
C      1  0.5026940000000  0.5631900000000  0.5638200000000 1.0
C      1  0.4598690000000  0.5527270000000  0.4523840000000 1.0
C      1  0.4541020000000  0.5755250000000  0.4901100000000 1.0
C      1  0.4502780000000  0.5697230000000  0.5373940000000 1.0
C      1  0.4561560000000  0.5334970000000  0.5667960000000 1.0
C      1  0.4604860000000  0.4883020000000  0.5693250000000 1.0
C      1  0.4597190000000  0.4473130000000  0.5469620000000 1.0
C      1  0.4548300000000  0.4242170000000  0.5090270000000 1.0
C      1  0.4515590000000  0.4305040000000  0.4628440000000 1.0
C      1  0.4558980000000  0.4664510000000  0.4326950000000 1.0
C      1  0.4600340000000  0.5117230000000  0.4294930000000 1.0
C      1  0.5191790000000  0.5130280000000  0.4261270000000 1.0
C      1  0.5204010000000  0.5544970000000  0.4503340000000 1.0
C      1  0.5225720000000  0.5826080000000  0.4925970000000 1.0
C      1  0.5158610000000  0.5796850000000  0.5427710000000 1.0
C      1  0.5194190000000  0.5389470000000  0.5694250000000 1.0
C      1  0.5195100000000  0.4863690000000  0.5743050000000 1.0
C      1  0.5205480000000  0.4445320000000  0.5502780000000 1.0
C      1  0.5207940000000  0.4176590000000  0.5056260000000 1.0
C      1  0.5158190000000  0.4187750000000  0.4571540000000 1.0
C      1  0.5188020000000  0.4608990000000  0.4316550000000 1.0
END
