TITL C-3577080-309-674 -6.52007005507342e-07 125000 -874.750476982599 0 0 141 (C1) n - 1
REM
REM in /home/bkarasulu/work/CARBON/AIRSS/Generating-Clusters/EDIP-Nigel-Params/with-SteepDescent/Higher-Symm/SD-CG/HFTN-CG
REM
REM
REM
REM
REM
REM ./C.cell (12c818d87b63d06a65506943cc24bca4)
REM
REM compiler GCC version 9.2.1 20190827 (Red Hat 9.2.1-1)
REM options -cpp -mtune=generic -march=x86-64 -g -O0 -fpre-include=/usr/include/finclude/math-vector-fortran.h
REM seed -274358504 -746051050 1229332613 -82911660 1596729779 427430141 -882653365 -1448961973 -944727148 -375138262 -386420156 -842777347 -1219589610 325717796 1183938267 20519510 452250909 -650864350 252118413 -1984411207 -1054788017 431403907 1724407539 315407849 1260653822 -1562930208 905583553 -1308590495 679355768 301588684 1810973081 403797213 -632609877
REM
CELL 1.54180   50.00000   50.00000   50.00000   90.00000   90.00000   90.00000
LATT -1
SFAC C  
C      1  0.4394210000000  0.4183840000000  0.4740740000000 1.0
C      1  0.4399150000000  0.4258640000000  0.5202850000000 1.0
C      1  0.4362690000000  0.4436460000000  0.5639340000000 1.0
C      1  0.4450930000000  0.4879010000000  0.5756820000000 1.0
C      1  0.4373490000000  0.5328370000000  0.5776360000000 1.0
C      1  0.4467800000000  0.5610680000000  0.5422100000000 1.0
C      1  0.4470780000000  0.5736350000000  0.4995750000000 1.0
C      1  0.4368020000000  0.5706390000000  0.4559740000000 1.0
C      1  0.4426860000000  0.5330850000000  0.4312230000000 1.0
C      1  0.4410360000000  0.4896690000000  0.4216420000000 1.0
C      1  0.4429020000000  0.4498110000000  0.4412210000000 1.0
C      1  0.5184020000000  0.4092310000000  0.5259650000000 1.0
C      1  0.5189660000000  0.4295130000000  0.5746110000000 1.0
C      1  0.5200550000000  0.4833700000000  0.6012410000000 1.0
C      1  0.5201870000000  0.5414230000000  0.5980830000000 1.0
C      1  0.5193060000000  0.5830060000000  0.5600610000000 1.0
C      1  0.5256030000000  0.5983310000000  0.4969690000000 1.0
C      1  0.5183060000000  0.5850610000000  0.4429240000000 1.0
C      1  0.5195870000000  0.5399910000000  0.4135260000000 1.0
C      1  0.5203200000000  0.4875840000000  0.3986640000000 1.0
C      1  0.5189600000000  0.4364830000000  0.4271910000000 1.0
C      1  0.5201180000000  0.4037250000000  0.4695800000000 1.0
C      1  0.4957180000000  0.4180530000000  0.4738470000000 1.0
C      1  0.4926070000000  0.4205080000000  0.5218360000000 1.0
C      1  0.4955680000000  0.4419840000000  0.5640920000000 1.0
C      1  0.4940790000000  0.4856260000000  0.5869400000000 1.0
C      1  0.4963100000000  0.5342760000000  0.5823400000000 1.0
C      1  0.4942300000000  0.5712010000000  0.5504020000000 1.0
C      1  0.4987670000000  0.5834030000000  0.5013650000000 1.0
C      1  0.4958830000000  0.5707170000000  0.4528150000000 1.0
C      1  0.4921290000000  0.5366240000000  0.4206490000000 1.0
C      1  0.4952330000000  0.4892660000000  0.4124600000000 1.0
C      1  0.4926490000000  0.4444590000000  0.4340680000000 1.0
C      1  0.5459430000000  0.4102500000000  0.5257180000000 1.0
C      1  0.5461150000000  0.4337880000000  0.5709960000000 1.0
C      1  0.5453940000000  0.4785410000000  0.5898230000000 1.0
C      1  0.5438470000000  0.5286970000000  0.5886820000000 1.0
C      1  0.5441970000000  0.5691840000000  0.5589510000000 1.0
C      1  0.5485610000000  0.5969020000000  0.5153620000000 1.0
C      1  0.5447370000000  0.5812030000000  0.4488950000000 1.0
C      1  0.5455650000000  0.5357430000000  0.4221270000000 1.0
C      1  0.5464470000000  0.4864740000000  0.4078600000000 1.0
C      1  0.5462650000000  0.4383260000000  0.4292850000000 1.0
C      1  0.5467120000000  0.4111180000000  0.4729140000000 1.0
C      1  0.4495590000000  0.5621130000000  0.4305380000000 1.0
C      1  0.4502650000000  0.5150000000000  0.4068700000000 1.0
C      1  0.4511660000000  0.4617410000000  0.4136810000000 1.0
C      1  0.4505230000000  0.4217720000000  0.4481750000000 1.0
C      1  0.4516420000000  0.4115790000000  0.4981820000000 1.0
C      1  0.4503840000000  0.4231720000000  0.5473980000000 1.0
C      1  0.4513420000000  0.4598700000000  0.5849720000000 1.0
C      1  0.4514680000000  0.5112970000000  0.5933520000000 1.0
C      1  0.4514880000000  0.5584020000000  0.5717760000000 1.0
C      1  0.4545830000000  0.5869640000000  0.5267050000000 1.0
C      1  0.4531200000000  0.5882150000000  0.4744260000000 1.0
C      1  0.4643950000000  0.5487440000000  0.4987380000000 1.0
C      1  0.4507830000000  0.5303680000000  0.4800140000000 1.0
C      1  0.4614710000000  0.5213220000000  0.4532920000000 1.0
C      1  0.4536740000000  0.4930960000000  0.4498770000000 1.0
C      1  0.4612710000000  0.4665200000000  0.4611470000000 1.0
C      1  0.4486970000000  0.4540410000000  0.4872210000000 1.0
C      1  0.4673760000000  0.4646960000000  0.5100610000000 1.0
C      1  0.4550020000000  0.4658730000000  0.5372670000000 1.0
C      1  0.4638060000000  0.4912020000000  0.5505220000000 1.0
C      1  0.4523120000000  0.5142800000000  0.5352670000000 1.0
C      1  0.4657510000000  0.5404100000000  0.5276680000000 1.0
C      1  0.4794020000000  0.4211680000000  0.5488170000000 1.0
C      1  0.4807250000000  0.4578680000000  0.5861840000000 1.0
C      1  0.4808240000000  0.5119340000000  0.5962580000000 1.0
C      1  0.4805580000000  0.5597560000000  0.5755210000000 1.0
C      1  0.4835710000000  0.5903750000000  0.5282950000000 1.0
C      1  0.4830380000000  0.5872320000000  0.4741580000000 1.0
C      1  0.4790830000000  0.5636610000000  0.4280370000000 1.0
C      1  0.4795420000000  0.5149290000000  0.4031810000000 1.0
C      1  0.4805660000000  0.4614330000000  0.4114940000000 1.0
C      1  0.4799000000000  0.4202170000000  0.4473270000000 1.0
C      1  0.4803340000000  0.4073740000000  0.4980640000000 1.0
C      1  0.4171380000000  0.4447340000000  0.5159520000000 1.0
C      1  0.4230680000000  0.4638350000000  0.5414770000000 1.0
C      1  0.4173360000000  0.4910040000000  0.5586870000000 1.0
C      1  0.4266200000000  0.5206530000000  0.5504100000000 1.0
C      1  0.4191930000000  0.5511320000000  0.5311400000000 1.0
C      1  0.4186040000000  0.5600400000000  0.5020030000000 1.0
C      1  0.4243780000000  0.5451060000000  0.4719250000000 1.0
C      1  0.4153050000000  0.5234080000000  0.4451570000000 1.0
C      1  0.4105580000000  0.4922410000000  0.4414120000000 1.0
C      1  0.4157190000000  0.4632370000000  0.4531880000000 1.0
C      1  0.4153410000000  0.4597870000000  0.4869980000000 1.0
C      1  0.4944910000000  0.4507290000000  0.5128830000000 1.0
C      1  0.5066950000000  0.4630940000000  0.5417330000000 1.0
C      1  0.4945800000000  0.4910080000000  0.5556710000000 1.0
C      1  0.5070460000000  0.5205230000000  0.5528520000000 1.0
C      1  0.4954310000000  0.5444120000000  0.5337200000000 1.0
C      1  0.5078500000000  0.5531860000000  0.5055550000000 1.0
C      1  0.5051960000000  0.5434180000000  0.4676760000000 1.0
C      1  0.4909220000000  0.5233110000000  0.4482930000000 1.0
C      1  0.5031410000000  0.4946120000000  0.4434890000000 1.0
C      1  0.4920030000000  0.4645020000000  0.4577570000000 1.0
C      1  0.5050640000000  0.4480380000000  0.4820370000000 1.0
C      1  0.5357700000000  0.4524070000000  0.4818530000000 1.0
C      1  0.5486690000000  0.4559180000000  0.5093740000000 1.0
C      1  0.5379320000000  0.4626690000000  0.5391780000000 1.0
C      1  0.5510050000000  0.4895000000000  0.5473020000000 1.0
C      1  0.5369740000000  0.5164020000000  0.5466830000000 1.0
C      1  0.5511170000000  0.5365150000000  0.5296770000000 1.0
C      1  0.5374610000000  0.5542580000000  0.5104030000000 1.0
C      1  0.5520370000000  0.5544900000000  0.4845060000000 1.0
C      1  0.5346570000000  0.5344520000000  0.4647870000000 1.0
C      1  0.5326810000000  0.5011620000000  0.4514390000000 1.0
C      1  0.5449300000000  0.4768640000000  0.4657980000000 1.0
C      1  0.5560210000000  0.4330080000000  0.4562400000000 1.0
C      1  0.5559410000000  0.4091160000000  0.4994140000000 1.0
C      1  0.5565500000000  0.4298190000000  0.5443490000000 1.0
C      1  0.5573000000000  0.4531560000000  0.5879220000000 1.0
C      1  0.5529660000000  0.5040790000000  0.6008810000000 1.0
C      1  0.5527860000000  0.5560250000000  0.5834840000000 1.0
C      1  0.5524960000000  0.5930040000000  0.5435280000000 1.0
C      1  0.5495130000000  0.5842260000000  0.4783840000000 1.0
C      1  0.5554100000000  0.5556570000000  0.4401600000000 1.0
C      1  0.5522470000000  0.5069650000000  0.4288460000000 1.0
C      1  0.5553370000000  0.4608200000000  0.4150290000000 1.0
C      1  0.5898240000000  0.4670360000000  0.4817140000000 1.0
C      1  0.5781460000000  0.4560610000000  0.5068100000000 1.0
C      1  0.5903740000000  0.4642060000000  0.5310530000000 1.0
C      1  0.5798440000000  0.4886800000000  0.5409230000000 1.0
C      1  0.5944810000000  0.5123280000000  0.5315490000000 1.0
C      1  0.5804610000000  0.5370940000000  0.5260400000000 1.0
C      1  0.5907920000000  0.5499730000000  0.5028060000000 1.0
C      1  0.5880230000000  0.5465260000000  0.4750020000000 1.0
C      1  0.5899730000000  0.5188050000000  0.4656040000000 1.0
C      1  0.5792950000000  0.5007650000000  0.4433950000000 1.0
C      1  0.5732160000000  0.4739080000000  0.4577850000000 1.0
C      1  0.4244070000000  0.4995800000000  0.5043710000000 1.0
C      1  0.4734670000000  0.4925770000000  0.5029130000000 1.0
C      1  0.4995350000000  0.4996450000000  0.4949920000000 1.0
C      1  0.6081700000000  0.5069740000000  0.5078990000000 1.0
C      1  0.5841150000000  0.5027730000000  0.4896080000000 1.0
C      1  0.4038060000000  0.4849980000000  0.4958280000000 1.0
C      1  0.5264070000000  0.5044220000000  0.4951000000000 1.0
C      1  0.4487740000000  0.5044070000000  0.4924950000000 1.0
C      1  0.5541590000000  0.5086690000000  0.4951370000000 1.0
END
