TITL C-3578195-8548-84 4.4450955467017e-07 125000 -1192.46836427389 0 0 188 (C1) n - 1
REM
REM in /home/bkarasulu/work/CARBON/AIRSS/Generating-Clusters/EDIP-Nigel-Params/with-SteepDescent/Higher-Symm/SD-CG/HFTN-CG
REM
REM
REM
REM
REM
REM ./C.cell (12c818d87b63d06a65506943cc24bca4)
REM
REM compiler GCC version 9.2.1 20190827 (Red Hat 9.2.1-1)
REM options -cpp -mtune=generic -march=x86-64 -g -O0 -fpre-include=/usr/include/finclude/math-vector-fortran.h
REM seed 1333617758 584790657 1485071814 -435775288 -1625149755 229104386 -193136746 -1163921035 620439021 -1539112581 -1972785347 1248618344 -1641698335 101034984 -1213066200 -441974617 -1967677371 225857326 -1559657577 517093539 -1798317588 1167841373 428130850 1366168567 1193742026 928418449 -732678251 -1013689122 -632456979 -610975606 1378971665 -1983326310 -996632198
REM
CELL 1.54180   50.00000   50.00000   50.00000   90.00000   90.00000   90.00000
LATT -1
SFAC C  
C      1  0.5118200000000  0.4843100000000  0.4735520000000 1.0
C      1  0.5252370000000  0.5030640000000  0.4918900000000 1.0
C      1  0.5199870000000  0.4868640000000  0.5171770000000 1.0
C      1  0.4958540000000  0.4944370000000  0.5304380000000 1.0
C      1  0.4740280000000  0.4808920000000  0.5184550000000 1.0
C      1  0.4700390000000  0.4912830000000  0.4921610000000 1.0
C      1  0.4848530000000  0.4767150000000  0.4731190000000 1.0
C      1  0.5573950000000  0.5188040000000  0.4217240000000 1.0
C      1  0.5948710000000  0.5232740000000  0.4935990000000 1.0
C      1  0.5646910000000  0.5216880000000  0.5677580000000 1.0
C      1  0.4877440000000  0.5232570000000  0.5954340000000 1.0
C      1  0.4137980000000  0.5190340000000  0.5479130000000 1.0
C      1  0.4128580000000  0.5207650000000  0.4655350000000 1.0
C      1  0.4740460000000  0.5194480000000  0.4090680000000 1.0
C      1  0.4959330000000  0.5424190000000  0.5491300000000 1.0
C      1  0.4734710000000  0.5412970000000  0.5276010000000 1.0
C      1  0.4685830000000  0.5385980000000  0.4779330000000 1.0
C      1  0.4913000000000  0.5337930000000  0.4566350000000 1.0
C      1  0.5228570000000  0.5261640000000  0.4636660000000 1.0
C      1  0.5462890000000  0.5491670000000  0.5027040000000 1.0
C      1  0.5278700000000  0.5428310000000  0.5338420000000 1.0
C      1  0.4577420000000  0.5448480000000  0.4083240000000 1.0
C      1  0.5460940000000  0.5448470000000  0.4116460000000 1.0
C      1  0.6044930000000  0.5466540000000  0.4770950000000 1.0
C      1  0.5831770000000  0.5461860000000  0.5644170000000 1.0
C      1  0.5057490000000  0.5475480000000  0.6044800000000 1.0
C      1  0.4192940000000  0.5457330000000  0.5621160000000 1.0
C      1  0.3994260000000  0.5454100000000  0.4762040000000 1.0
C      1  0.4591370000000  0.5695820000000  0.5733510000000 1.0
C      1  0.4022310000000  0.5423270000000  0.5066450000000 1.0
C      1  0.4318290000000  0.5693910000000  0.4411640000000 1.0
C      1  0.5048690000000  0.5707220000000  0.4110280000000 1.0
C      1  0.5653230000000  0.5627930000000  0.4534830000000 1.0
C      1  0.5898140000000  0.5736450000000  0.5234640000000 1.0
C      1  0.5427390000000  0.5686130000000  0.5783050000000 1.0
C      1  0.5747630000000  0.4705640000000  0.4389990000000 1.0
C      1  0.5915880000000  0.4713450000000  0.5195000000000 1.0
C      1  0.5420130000000  0.4698650000000  0.5844600000000 1.0
C      1  0.4584460000000  0.4724650000000  0.5913140000000 1.0
C      1  0.4026170000000  0.4666570000000  0.5227740000000 1.0
C      1  0.4189320000000  0.4700610000000  0.4385320000000 1.0
C      1  0.4974590000000  0.4644270000000  0.4011190000000 1.0
C      1  0.6075020000000  0.4514240000000  0.4780470000000 1.0
C      1  0.5849990000000  0.4502160000000  0.5705120000000 1.0
C      1  0.4974620000000  0.4512020000000  0.6092630000000 1.0
C      1  0.4114930000000  0.4479000000000  0.5675500000000 1.0
C      1  0.3912470000000  0.4492890000000  0.4726530000000 1.0
C      1  0.4521350000000  0.4472120000000  0.3999960000000 1.0
C      1  0.5490030000000  0.4512770000000  0.4020830000000 1.0
C      1  0.4580850000000  0.4394860000000  0.5746840000000 1.0
C      1  0.4075920000000  0.4352220000000  0.5160040000000 1.0
C      1  0.4339720000000  0.4379640000000  0.4433890000000 1.0
C      1  0.5036020000000  0.4346230000000  0.4091150000000 1.0
C      1  0.5707680000000  0.4408390000000  0.4491400000000 1.0
C      1  0.5845070000000  0.4401980000000  0.5239420000000 1.0
C      1  0.5338490000000  0.4393830000000  0.5807690000000 1.0
C      1  0.5845630000000  0.5192970000000  0.4364690000000 1.0
C      1  0.6019160000000  0.5220580000000  0.5237920000000 1.0
C      1  0.5468590000000  0.5194270000000  0.5929740000000 1.0
C      1  0.4551410000000  0.5226450000000  0.5924490000000 1.0
C      1  0.3925350000000  0.5181690000000  0.5223320000000 1.0
C      1  0.4218240000000  0.5200260000000  0.4357860000000 1.0
C      1  0.5027960000000  0.5211630000000  0.3939920000000 1.0
C      1  0.5239410000000  0.4562780000000  0.5122840000000 1.0
C      1  0.5020860000000  0.4409650000000  0.5240390000000 1.0
C      1  0.4760920000000  0.4510850000000  0.5187970000000 1.0
C      1  0.4519610000000  0.4459860000000  0.4901400000000 1.0
C      1  0.4778120000000  0.4475830000000  0.4751440000000 1.0
C      1  0.5285100000000  0.4640510000000  0.4597940000000 1.0
C      1  0.5268640000000  0.4439110000000  0.4835960000000 1.0
C      1  0.5750940000000  0.5912440000000  0.5479580000000 1.0
C      1  0.5264370000000  0.5894840000000  0.5912140000000 1.0
C      1  0.4452030000000  0.5879870000000  0.5554910000000 1.0
C      1  0.4186610000000  0.5888220000000  0.4870370000000 1.0
C      1  0.4568240000000  0.5864840000000  0.4321270000000 1.0
C      1  0.5286420000000  0.5845560000000  0.4300830000000 1.0
C      1  0.5771520000000  0.5851320000000  0.4702830000000 1.0
C      1  0.5950700000000  0.4943220000000  0.4486230000000 1.0
C      1  0.5983220000000  0.4956680000000  0.5390540000000 1.0
C      1  0.5311320000000  0.4946080000000  0.6012320000000 1.0
C      1  0.4403230000000  0.4969000000000  0.5873940000000 1.0
C      1  0.3927700000000  0.4928640000000  0.5059130000000 1.0
C      1  0.4288920000000  0.4949500000000  0.4217370000000 1.0
C      1  0.5202240000000  0.4953460000000  0.3970110000000 1.0
C      1  0.5375600000000  0.3999430000000  0.5473630000000 1.0
C      1  0.4861730000000  0.3999520000000  0.5575800000000 1.0
C      1  0.4435280000000  0.3985370000000  0.5257160000000 1.0
C      1  0.4437660000000  0.3990130000000  0.4743620000000 1.0
C      1  0.4864470000000  0.3985170000000  0.4410540000000 1.0
C      1  0.5384040000000  0.4007890000000  0.4528940000000 1.0
C      1  0.5612590000000  0.4003930000000  0.5005590000000 1.0
C      1  0.5018220000000  0.6254630000000  0.5216950000000 1.0
C      1  0.4733790000000  0.6197560000000  0.5197540000000 1.0
C      1  0.4635370000000  0.6085600000000  0.4940130000000 1.0
C      1  0.4824460000000  0.6074140000000  0.4713410000000 1.0
C      1  0.5097340000000  0.6144130000000  0.4748930000000 1.0
C      1  0.5334010000000  0.6152370000000  0.4905190000000 1.0
C      1  0.5293780000000  0.6172400000000  0.5192750000000 1.0
C      1  0.5007410000000  0.4982270000000  0.6063280000000 1.0
C      1  0.4176810000000  0.4953080000000  0.5659690000000 1.0
C      1  0.3985280000000  0.4960630000000  0.4763000000000 1.0
C      1  0.4553550000000  0.4948650000000  0.4058340000000 1.0
C      1  0.5527560000000  0.4979880000000  0.4002170000000 1.0
C      1  0.6007510000000  0.4976870000000  0.4780660000000 1.0
C      1  0.5815770000000  0.4973400000000  0.5643330000000 1.0
C      1  0.5539370000000  0.5694800000000  0.4261320000000 1.0
C      1  0.5979300000000  0.5733760000000  0.4885030000000 1.0
C      1  0.5725840000000  0.5731010000000  0.5723310000000 1.0
C      1  0.5014000000000  0.5747530000000  0.5930510000000 1.0
C      1  0.4252710000000  0.5692520000000  0.5437970000000 1.0
C      1  0.4126980000000  0.5703710000000  0.4665190000000 1.0
C      1  0.4718580000000  0.5709920000000  0.4108620000000 1.0
C      1  0.4824650000000  0.4229370000000  0.4267720000000 1.0
C      1  0.5450870000000  0.4268800000000  0.4421410000000 1.0
C      1  0.5746680000000  0.4257750000000  0.4997850000000 1.0
C      1  0.5468010000000  0.4250580000000  0.5578890000000 1.0
C      1  0.4839650000000  0.4243790000000  0.5723430000000 1.0
C      1  0.4301270000000  0.4232000000000  0.5322120000000 1.0
C      1  0.4338550000000  0.4271690000000  0.4734190000000 1.0
C      1  0.5504990000000  0.3923040000000  0.4764060000000 1.0
C      1  0.5499660000000  0.3916100000000  0.5241860000000 1.0
C      1  0.5118620000000  0.3912610000000  0.5526040000000 1.0
C      1  0.4650890000000  0.3918250000000  0.5416300000000 1.0
C      1  0.4428130000000  0.3889600000000  0.4999180000000 1.0
C      1  0.4652980000000  0.3916750000000  0.4580500000000 1.0
C      1  0.5127840000000  0.3914000000000  0.4470370000000 1.0
C      1  0.4949680000000  0.5634640000000  0.4476090000000 1.0
C      1  0.5385370000000  0.5527650000000  0.4698550000000 1.0
C      1  0.5601280000000  0.5756080000000  0.5097700000000 1.0
C      1  0.5322050000000  0.5682660000000  0.5501880000000 1.0
C      1  0.4882840000000  0.5685950000000  0.5663120000000 1.0
C      1  0.4457160000000  0.5610730000000  0.5201610000000 1.0
C      1  0.4560450000000  0.5661940000000  0.4719580000000 1.0
C      1  0.4312510000000  0.4718080000000  0.5107770000000 1.0
C      1  0.4437420000000  0.4735200000000  0.4570820000000 1.0
C      1  0.5020190000000  0.4712720000000  0.4324370000000 1.0
C      1  0.5529480000000  0.4839900000000  0.4573920000000 1.0
C      1  0.5640490000000  0.4821050000000  0.5144960000000 1.0
C      1  0.5267870000000  0.4781630000000  0.5603710000000 1.0
C      1  0.4689410000000  0.4749010000000  0.5621630000000 1.0
C      1  0.5466050000000  0.5901220000000  0.5338160000000 1.0
C      1  0.4931240000000  0.5887120000000  0.5448090000000 1.0
C      1  0.4665380000000  0.5966820000000  0.5366680000000 1.0
C      1  0.4456430000000  0.5824470000000  0.4951090000000 1.0
C      1  0.4737590000000  0.5827290000000  0.4556680000000 1.0
C      1  0.5204070000000  0.5750070000000  0.4584840000000 1.0
C      1  0.5583980000000  0.6032990000000  0.4825000000000 1.0
C      1  0.4326460000000  0.4315710000000  0.5603100000000 1.0
C      1  0.4067260000000  0.4305920000000  0.4865070000000 1.0
C      1  0.4544740000000  0.4307460000000  0.4221810000000 1.0
C      1  0.5330550000000  0.4331460000000  0.4158760000000 1.0
C      1  0.5858770000000  0.4344880000000  0.4739030000000 1.0
C      1  0.5744640000000  0.4332940000000  0.5511240000000 1.0
C      1  0.5060780000000  0.4334010000000  0.5897230000000 1.0
C      1  0.6067200000000  0.4741830000000  0.4936110000000 1.0
C      1  0.5716500000000  0.4732440000000  0.5777020000000 1.0
C      1  0.4832480000000  0.4748420000000  0.6086740000000 1.0
C      1  0.4061920000000  0.4710210000000  0.5534800000000 1.0
C      1  0.3968630000000  0.4728980000000  0.4589510000000 1.0
C      1  0.4677940000000  0.4697310000000  0.3965130000000 1.0
C      1  0.5649890000000  0.4727060000000  0.4096210000000 1.0
C      1  0.4949720000000  0.5188350000000  0.5674410000000 1.0
C      1  0.4386600000000  0.5149540000000  0.5323900000000 1.0
C      1  0.4386830000000  0.5208180000000  0.4823910000000 1.0
C      1  0.4789390000000  0.5138560000000  0.4380760000000 1.0
C      1  0.5381740000000  0.5072380000000  0.4426570000000 1.0
C      1  0.5652110000000  0.5257830000000  0.4937430000000 1.0
C      1  0.5455200000000  0.5203280000000  0.5444720000000 1.0
C      1  0.4448870000000  0.5447990000000  0.5762540000000 1.0
C      1  0.4319620000000  0.5343130000000  0.5094420000000 1.0
C      1  0.4338630000000  0.5444340000000  0.4257050000000 1.0
C      1  0.5180140000000  0.5454990000000  0.4020600000000 1.0
C      1  0.5886040000000  0.5441990000000  0.4515940000000 1.0
C      1  0.5946440000000  0.5471980000000  0.5374190000000 1.0
C      1  0.5341790000000  0.5450410000000  0.5958450000000 1.0
C      1  0.5554760000000  0.4982590000000  0.4900060000000 1.0
C      1  0.5427060000000  0.4914130000000  0.5371660000000 1.0
C      1  0.4972300000000  0.4903080000000  0.5588070000000 1.0
C      1  0.4476710000000  0.4857850000000  0.5342940000000 1.0
C      1  0.4417720000000  0.4892580000000  0.4848070000000 1.0
C      1  0.4752360000000  0.4840760000000  0.4442970000000 1.0
C      1  0.5171100000000  0.4948590000000  0.4262910000000 1.0
C      1  0.4972190000000  0.4015690000000  0.4875300000000 1.0
C      1  0.4998770000000  0.3785750000000  0.4992110000000 1.0
C      1  0.4988780000000  0.4304480000000  0.4874760000000 1.0
C      1  0.4856480000000  0.5398180000000  0.5018010000000 1.0
C      1  0.5038020000000  0.5603160000000  0.5014000000000 1.0
C      1  0.5041890000000  0.5809960000000  0.5189790000000 1.0
END
