TITL C-3577087-600-6 -9.5882216232875e-07 125000 -528.800688827774 0 0 87 (C1) n - 1
REM
REM in /home/bkarasulu/work/CARBON/AIRSS/Generating-Clusters/EDIP-Nigel-Params/with-SteepDescent/Higher-Symm/SD-CG/HFTN-CG
REM
REM
REM
REM
REM
REM ./C.cell (12c818d87b63d06a65506943cc24bca4)
REM
REM compiler GCC version 9.2.1 20190827 (Red Hat 9.2.1-1)
REM options -cpp -mtune=generic -march=x86-64 -g -O0 -fpre-include=/usr/include/finclude/math-vector-fortran.h
REM seed -148535110 -1133992944 -1312851758 1348807012 486639323 -220483388 352018182 -1113796608 -1032053126 -249594520 1281086178 1717525755 -1015733004 644744753 -857612506 -27114716 -1150725687 865248744 393984065 2020357954 -856011299 1546834681 -1306830322 -363892884 1233107609 -1608144377 2046745443 1761282323 1606378775 1133047571 -1794803441 -2048040005 -231916058
REM
CELL 1.54180   50.00000   50.00000   50.00000   90.00000   90.00000   90.00000
LATT -1
SFAC C  
C      1  0.4768750000000  0.4340730000000  0.5547000000000 1.0
C      1  0.4795970000000  0.4792240000000  0.4062740000000 1.0
C      1  0.4827590000000  0.5827050000000  0.5270390000000 1.0
C      1  0.5019490000000  0.4506540000000  0.5514140000000 1.0
C      1  0.5046580000000  0.4680850000000  0.4164690000000 1.0
C      1  0.5123500000000  0.5858830000000  0.5217010000000 1.0
C      1  0.4760840000000  0.4386060000000  0.4456680000000 1.0
C      1  0.4784820000000  0.4799980000000  0.5859660000000 1.0
C      1  0.4753750000000  0.5808980000000  0.4739570000000 1.0
C      1  0.5016480000000  0.4554820000000  0.4439470000000 1.0
C      1  0.5053240000000  0.4735490000000  0.5740680000000 1.0
C      1  0.5006190000000  0.5714400000000  0.4879710000000 1.0
C      1  0.5492610000000  0.4515880000000  0.5528470000000 1.0
C      1  0.5547330000000  0.4730010000000  0.4333210000000 1.0
C      1  0.5470000000000  0.5712800000000  0.5096850000000 1.0
C      1  0.4530790000000  0.4517990000000  0.5518230000000 1.0
C      1  0.4503280000000  0.4799190000000  0.4307410000000 1.0
C      1  0.4533630000000  0.5727460000000  0.5188140000000 1.0
C      1  0.5527720000000  0.4484700000000  0.4503530000000 1.0
C      1  0.5431290000000  0.4802720000000  0.5656930000000 1.0
C      1  0.5486450000000  0.5679680000000  0.4794020000000 1.0
C      1  0.4512610000000  0.4542840000000  0.4468470000000 1.0
C      1  0.4535870000000  0.4784800000000  0.5680230000000 1.0
C      1  0.4506470000000  0.5732280000000  0.4879980000000 1.0
C      1  0.5742350000000  0.5028970000000  0.5304200000000 1.0
C      1  0.5809400000000  0.4732200000000  0.4871230000000 1.0
C      1  0.5781970000000  0.5261150000000  0.4830410000000 1.0
C      1  0.4261740000000  0.5015340000000  0.5304990000000 1.0
C      1  0.4264680000000  0.4757530000000  0.4845670000000 1.0
C      1  0.4254730000000  0.5286470000000  0.4855200000000 1.0
C      1  0.5798510000000  0.4985330000000  0.4694430000000 1.0
C      1  0.5782120000000  0.4753260000000  0.5179860000000 1.0
C      1  0.5752550000000  0.5284170000000  0.5136620000000 1.0
C      1  0.4261660000000  0.5024130000000  0.4697450000000 1.0
C      1  0.4266860000000  0.4749600000000  0.5149000000000 1.0
C      1  0.4251040000000  0.5286870000000  0.5161600000000 1.0
C      1  0.5317770000000  0.4725720000000  0.4871370000000 1.0
C      1  0.5298520000000  0.5226770000000  0.4804710000000 1.0
C      1  0.5262280000000  0.5036740000000  0.5265380000000 1.0
C      1  0.4750450000000  0.4763910000000  0.4839450000000 1.0
C      1  0.4736640000000  0.5299510000000  0.4836780000000 1.0
C      1  0.4741300000000  0.5025450000000  0.5288780000000 1.0
C      1  0.5274590000000  0.4752930000000  0.5161830000000 1.0
C      1  0.5259640000000  0.5284480000000  0.5095570000000 1.0
C      1  0.5300400000000  0.4953960000000  0.4684560000000 1.0
C      1  0.4760450000000  0.4758720000000  0.5150590000000 1.0
C      1  0.4726370000000  0.5287550000000  0.5148100000000 1.0
C      1  0.4734750000000  0.5034280000000  0.4677000000000 1.0
C      1  0.5217700000000  0.4270350000000  0.4820530000000 1.0
C      1  0.5183700000000  0.5514710000000  0.4441400000000 1.0
C      1  0.5192380000000  0.5217630000000  0.5825240000000 1.0
C      1  0.4950570000000  0.4187350000000  0.4869690000000 1.0
C      1  0.4913220000000  0.5515170000000  0.4341430000000 1.0
C      1  0.4911110000000  0.5281720000000  0.5819310000000 1.0
C      1  0.5237840000000  0.4211510000000  0.5205910000000 1.0
C      1  0.5202770000000  0.5542520000000  0.5611970000000 1.0
C      1  0.5166800000000  0.5155670000000  0.4294330000000 1.0
C      1  0.4970360000000  0.4107980000000  0.5149780000000 1.0
C      1  0.4920210000000  0.5514650000000  0.5641780000000 1.0
C      1  0.4891250000000  0.5229750000000  0.4272780000000 1.0
C      1  0.5254630000000  0.4935840000000  0.5870670000000 1.0
C      1  0.5248900000000  0.4377500000000  0.4543350000000 1.0
C      1  0.5222160000000  0.5703480000000  0.4666160000000 1.0
C      1  0.4713050000000  0.5077780000000  0.5871540000000 1.0
C      1  0.4770430000000  0.4183910000000  0.4655340000000 1.0
C      1  0.4746950000000  0.5693720000000  0.4480910000000 1.0
C      1  0.5247560000000  0.4893040000000  0.4193170000000 1.0
C      1  0.5259470000000  0.4328870000000  0.5483390000000 1.0
C      1  0.5290260000000  0.5753710000000  0.5436980000000 1.0
C      1  0.4718810000000  0.5061400000000  0.4118170000000 1.0
C      1  0.4776340000000  0.4136400000000  0.5351940000000 1.0
C      1  0.4743180000000  0.5702430000000  0.5515490000000 1.0
C      1  0.5497730000000  0.5439050000000  0.5209380000000 1.0
C      1  0.5531320000000  0.4586110000000  0.5245240000000 1.0
C      1  0.5554650000000  0.4971320000000  0.4501870000000 1.0
C      1  0.4492370000000  0.5438590000000  0.5265200000000 1.0
C      1  0.4513590000000  0.4584220000000  0.5227290000000 1.0
C      1  0.4488800000000  0.5033270000000  0.4495980000000 1.0
C      1  0.5535440000000  0.5390790000000  0.4699710000000 1.0
C      1  0.5563680000000  0.4551020000000  0.4803850000000 1.0
C      1  0.5482100000000  0.5036700000000  0.5465160000000 1.0
C      1  0.4485490000000  0.5456130000000  0.4752590000000 1.0
C      1  0.4506200000000  0.4593960000000  0.4761170000000 1.0
C      1  0.4510660000000  0.5023490000000  0.5482680000000 1.0
C      1  0.4995480000000  0.5456930000000  0.5093110000000 1.0
C      1  0.5013910000000  0.4631490000000  0.5244140000000 1.0
C      1  0.5020890000000  0.4858500000000  0.4569420000000 1.0
END
