TITL C-3578201-9217-325 -5.04523842783967e-06 125000 -1163.01261339401 0 0 184 (C1) n - 1
REM
REM in /home/bkarasulu/work/CARBON/AIRSS/Generating-Clusters/EDIP-Nigel-Params/with-SteepDescent/Higher-Symm/SD-CG/HFTN-CG
REM
REM
REM
REM
REM
REM ./C.cell (12c818d87b63d06a65506943cc24bca4)
REM
REM compiler GCC version 9.2.1 20190827 (Red Hat 9.2.1-1)
REM options -cpp -mtune=generic -march=x86-64 -g -O0 -fpre-include=/usr/include/finclude/math-vector-fortran.h
REM seed -2096193487 -1877179593 609162596 2077394610 629417202 605384458 -749542896 -1729216101 63028448 -177735055 543375631 906937265 -649046756 -1561344752 1968003232 -494078577 1373820840 1278166465 -1305223053 166383430 -674220639 -738381256 1666534251 -985458413 -803741940 -16665565 -1905233484 1166749173 -420647069 -430332624 1425567936 -1160837148 944295458
REM
CELL 1.54180   50.00000   50.00000   50.00000   90.00000   90.00000   90.00000
LATT -1
SFAC C  
C      1  0.4877040000000  0.4283150000000  0.4480480000000 1.0
C      1  0.5604210000000  0.4171470000000  0.5434050000000 1.0
C      1  0.4891430000000  0.4949250000000  0.4614000000000 1.0
C      1  0.3965900000000  0.4897230000000  0.4486120000000 1.0
C      1  0.4408680000000  0.4479110000000  0.5507130000000 1.0
C      1  0.5103470000000  0.4775660000000  0.4233400000000 1.0
C      1  0.4875670000000  0.4365890000000  0.3898160000000 1.0
C      1  0.5629830000000  0.5289350000000  0.4846660000000 1.0
C      1  0.4650590000000  0.4140690000000  0.4618690000000 1.0
C      1  0.5640100000000  0.4702850000000  0.4435900000000 1.0
C      1  0.5894580000000  0.5039470000000  0.5513040000000 1.0
C      1  0.4812700000000  0.4741070000000  0.4230380000000 1.0
C      1  0.4017050000000  0.5190530000000  0.4731560000000 1.0
C      1  0.4768570000000  0.3807670000000  0.4985710000000 1.0
C      1  0.6042780000000  0.5436740000000  0.4853590000000 1.0
C      1  0.5028510000000  0.6112440000000  0.4827730000000 1.0
C      1  0.5906330000000  0.5598050000000  0.5301860000000 1.0
C      1  0.4451470000000  0.5713810000000  0.5754420000000 1.0
C      1  0.5423140000000  0.5165940000000  0.5369520000000 1.0
C      1  0.4467130000000  0.4956190000000  0.5586970000000 1.0
C      1  0.5469210000000  0.5476430000000  0.5917920000000 1.0
C      1  0.5749820000000  0.4616020000000  0.5763580000000 1.0
C      1  0.4482500000000  0.5565480000000  0.4428070000000 1.0
C      1  0.6046560000000  0.4853870000000  0.5087050000000 1.0
C      1  0.5431110000000  0.5018450000000  0.3829810000000 1.0
C      1  0.6015900000000  0.5259610000000  0.4644310000000 1.0
C      1  0.4091780000000  0.4984270000000  0.5686900000000 1.0
C      1  0.4692020000000  0.5387680000000  0.5504830000000 1.0
C      1  0.5863120000000  0.4808540000000  0.4834710000000 1.0
C      1  0.4686460000000  0.4789620000000  0.3969360000000 1.0
C      1  0.5118800000000  0.5229340000000  0.5014360000000 1.0
C      1  0.4671110000000  0.6085370000000  0.5228940000000 1.0
C      1  0.4295820000000  0.5155050000000  0.4607150000000 1.0
C      1  0.4406090000000  0.4332050000000  0.4934060000000 1.0
C      1  0.5544800000000  0.5159940000000  0.5865440000000 1.0
C      1  0.5238390000000  0.5684740000000  0.4936840000000 1.0
C      1  0.5475550000000  0.5363020000000  0.5119020000000 1.0
C      1  0.5815980000000  0.5599120000000  0.5585040000000 1.0
C      1  0.5513090000000  0.4672800000000  0.5148160000000 1.0
C      1  0.5676650000000  0.4213600000000  0.5147170000000 1.0
C      1  0.4200450000000  0.4138440000000  0.5039480000000 1.0
C      1  0.5450020000000  0.4917040000000  0.5008120000000 1.0
C      1  0.4884120000000  0.5803540000000  0.4474910000000 1.0
C      1  0.4881860000000  0.4237150000000  0.5771910000000 1.0
C      1  0.5661730000000  0.4985020000000  0.4017930000000 1.0
C      1  0.4452390000000  0.5005540000000  0.5288660000000 1.0
C      1  0.5989730000000  0.5700330000000  0.4787100000000 1.0
C      1  0.4786260000000  0.4690870000000  0.6039450000000 1.0
C      1  0.5387090000000  0.5163270000000  0.4397100000000 1.0
C      1  0.4739330000000  0.5808750000000  0.5831060000000 1.0
C      1  0.5027250000000  0.3967080000000  0.5042960000000 1.0
C      1  0.4730860000000  0.4977540000000  0.5703710000000 1.0
C      1  0.4934340000000  0.4857410000000  0.5552670000000 1.0
C      1  0.5562420000000  0.5640570000000  0.4492050000000 1.0
C      1  0.4196950000000  0.5284070000000  0.5666990000000 1.0
C      1  0.3902930000000  0.4660260000000  0.4624590000000 1.0
C      1  0.5240130000000  0.4774490000000  0.3867970000000 1.0
C      1  0.5095100000000  0.4221180000000  0.4059580000000 1.0
C      1  0.5420290000000  0.4579150000000  0.3998530000000 1.0
C      1  0.4603070000000  0.5263930000000  0.5238300000000 1.0
C      1  0.4152880000000  0.4885900000000  0.4919500000000 1.0
C      1  0.5063880000000  0.4701290000000  0.5062150000000 1.0
C      1  0.4474420000000  0.5027770000000  0.6071070000000 1.0
C      1  0.5288780000000  0.5933640000000  0.4772760000000 1.0
C      1  0.5321410000000  0.4378440000000  0.4780080000000 1.0
C      1  0.5156560000000  0.5084570000000  0.4162630000000 1.0
C      1  0.4655260000000  0.3891200000000  0.4745240000000 1.0
C      1  0.5818580000000  0.4754680000000  0.5501840000000 1.0
C      1  0.4896930000000  0.4160820000000  0.5223960000000 1.0
C      1  0.4146360000000  0.5452660000000  0.5433720000000 1.0
C      1  0.4272010000000  0.4625390000000  0.4236330000000 1.0
C      1  0.5342630000000  0.4638420000000  0.5596990000000 1.0
C      1  0.4824510000000  0.5177990000000  0.5053690000000 1.0
C      1  0.4772250000000  0.5252020000000  0.5759680000000 1.0
C      1  0.4083840000000  0.5295610000000  0.5200400000000 1.0
C      1  0.4940410000000  0.4450750000000  0.5970440000000 1.0
C      1  0.5126960000000  0.4763980000000  0.4542420000000 1.0
C      1  0.4683370000000  0.5709470000000  0.4259520000000 1.0
C      1  0.4731090000000  0.4934700000000  0.4888000000000 1.0
C      1  0.5245970000000  0.5060750000000  0.5877360000000 1.0
C      1  0.5391010000000  0.4714880000000  0.6118440000000 1.0
C      1  0.5556080000000  0.4433400000000  0.4568580000000 1.0
C      1  0.4422570000000  0.4859530000000  0.4722960000000 1.0
C      1  0.5136570000000  0.5638740000000  0.4111660000000 1.0
C      1  0.5624870000000  0.4808680000000  0.5962430000000 1.0
C      1  0.5617340000000  0.5489360000000  0.4216180000000 1.0
C      1  0.4891120000000  0.4526500000000  0.4901360000000 1.0
C      1  0.5364730000000  0.3994330000000  0.5446550000000 1.0
C      1  0.5914100000000  0.5360470000000  0.5110440000000 1.0
C      1  0.5933280000000  0.5090090000000  0.4440620000000 1.0
C      1  0.4031850000000  0.5412770000000  0.4940610000000 1.0
C      1  0.4433100000000  0.6082280000000  0.5031150000000 1.0
C      1  0.5966020000000  0.4624480000000  0.5265360000000 1.0
C      1  0.4737510000000  0.4011060000000  0.5419820000000 1.0
C      1  0.4317200000000  0.3934220000000  0.5186080000000 1.0
C      1  0.5238970000000  0.4508320000000  0.5953160000000 1.0
C      1  0.5614020000000  0.4992080000000  0.4807170000000 1.0
C      1  0.5373170000000  0.4272290000000  0.5834800000000 1.0
C      1  0.4449750000000  0.4573500000000  0.4490670000000 1.0
C      1  0.5198340000000  0.4944070000000  0.6158440000000 1.0
C      1  0.4582100000000  0.3846990000000  0.5224920000000 1.0
C      1  0.5736760000000  0.5788670000000  0.4711890000000 1.0
C      1  0.5647730000000  0.5192190000000  0.5578910000000 1.0
C      1  0.5060240000000  0.5780210000000  0.5826660000000 1.0
C      1  0.5284650000000  0.4086670000000  0.4783590000000 1.0
C      1  0.3985030000000  0.4648860000000  0.4894000000000 1.0
C      1  0.5160790000000  0.4453800000000  0.5428030000000 1.0
C      1  0.5081770000000  0.5294650000000  0.5777550000000 1.0
C      1  0.4297660000000  0.5373740000000  0.4290310000000 1.0
C      1  0.5629310000000  0.4332290000000  0.5698710000000 1.0
C      1  0.4625000000000  0.5790170000000  0.5296730000000 1.0
C      1  0.5321710000000  0.5853400000000  0.5638420000000 1.0
C      1  0.4354270000000  0.5758460000000  0.4641750000000 1.0
C      1  0.5733680000000  0.5193730000000  0.4229540000000 1.0
C      1  0.4859040000000  0.5221780000000  0.4160510000000 1.0
C      1  0.5638210000000  0.4715890000000  0.4131380000000 1.0
C      1  0.4132230000000  0.4551950000000  0.5378230000000 1.0
C      1  0.4499380000000  0.4750430000000  0.6004420000000 1.0
C      1  0.4567630000000  0.5901120000000  0.4817630000000 1.0
C      1  0.6003930000000  0.5104080000000  0.5243130000000 1.0
C      1  0.4417170000000  0.4313990000000  0.4640830000000 1.0
C      1  0.5547910000000  0.5652650000000  0.5694530000000 1.0
C      1  0.4861200000000  0.5527660000000  0.4091880000000 1.0
C      1  0.4703170000000  0.4482480000000  0.4319020000000 1.0
C      1  0.4179530000000  0.5681980000000  0.4898110000000 1.0
C      1  0.5567250000000  0.5975390000000  0.4889340000000 1.0
C      1  0.5184250000000  0.4944800000000  0.4943370000000 1.0
C      1  0.5179820000000  0.4853600000000  0.5682820000000 1.0
C      1  0.4669970000000  0.5677280000000  0.5013590000000 1.0
C      1  0.5910240000000  0.4806340000000  0.4531190000000 1.0
C      1  0.4498540000000  0.5292060000000  0.4779220000000 1.0
C      1  0.4436090000000  0.4591380000000  0.3980090000000 1.0
C      1  0.5535930000000  0.5903610000000  0.5184310000000 1.0
C      1  0.5148870000000  0.6197770000000  0.5295300000000 1.0
C      1  0.4360000000000  0.4707520000000  0.5729190000000 1.0
C      1  0.5765650000000  0.4513770000000  0.5064320000000 1.0
C      1  0.4575970000000  0.4798400000000  0.5132190000000 1.0
C      1  0.4934260000000  0.4861180000000  0.6207130000000 1.0
C      1  0.4642680000000  0.4558180000000  0.5296570000000 1.0
C      1  0.5329560000000  0.5999540000000  0.5370690000000 1.0
C      1  0.5095530000000  0.5627480000000  0.5415300000000 1.0
C      1  0.4709710000000  0.4357740000000  0.5079340000000 1.0
C      1  0.4613360000000  0.4352920000000  0.4049790000000 1.0
C      1  0.5164500000000  0.5450870000000  0.4787670000000 1.0
C      1  0.4569050000000  0.5285120000000  0.5986980000000 1.0
C      1  0.5030150000000  0.4075280000000  0.4318650000000 1.0
C      1  0.4891710000000  0.4596760000000  0.5455560000000 1.0
C      1  0.5532400000000  0.4796620000000  0.5420120000000 1.0
C      1  0.5460340000000  0.4248120000000  0.4362660000000 1.0
C      1  0.5132630000000  0.5840380000000  0.4321350000000 1.0
C      1  0.4964610000000  0.6054690000000  0.5122680000000 1.0
C      1  0.4036930000000  0.4839760000000  0.5419820000000 1.0
C      1  0.5033750000000  0.5744330000000  0.5130630000000 1.0
C      1  0.5427490000000  0.5392280000000  0.4623750000000 1.0
C      1  0.4618900000000  0.5080120000000  0.4021600000000 1.0
C      1  0.5276090000000  0.4496830000000  0.5120330000000 1.0
C      1  0.5311350000000  0.5272730000000  0.3860110000000 1.0
C      1  0.4937040000000  0.4664760000000  0.3811840000000 1.0
C      1  0.5059780000000  0.4476160000000  0.4662340000000 1.0
C      1  0.5291020000000  0.4027590000000  0.4477580000000 1.0
C      1  0.5438780000000  0.4906250000000  0.4560390000000 1.0
C      1  0.4354140000000  0.5449830000000  0.5864410000000 1.0
C      1  0.4267830000000  0.5731980000000  0.5429430000000 1.0
C      1  0.5305960000000  0.3882570000000  0.5172850000000 1.0
C      1  0.4685350000000  0.5395980000000  0.4586400000000 1.0
C      1  0.4074490000000  0.4436490000000  0.5101300000000 1.0
C      1  0.4909760000000  0.5565570000000  0.4663140000000 1.0
C      1  0.5514710000000  0.4005680000000  0.4984610000000 1.0
C      1  0.4222870000000  0.5877360000000  0.5137250000000 1.0
C      1  0.4164460000000  0.5007870000000  0.5205240000000 1.0
C      1  0.5167840000000  0.5526330000000  0.5947310000000 1.0
C      1  0.5358170000000  0.5859380000000  0.4489610000000 1.0
C      1  0.5167080000000  0.4187400000000  0.5617000000000 1.0
C      1  0.5603200000000  0.5623620000000  0.5263060000000 1.0
C      1  0.4357940000000  0.5114580000000  0.4176260000000 1.0
C      1  0.5175400000000  0.5333110000000  0.5484510000000 1.0
C      1  0.5363390000000  0.5462290000000  0.4067950000000 1.0
C      1  0.4166410000000  0.4896130000000  0.4268150000000 1.0
C      1  0.4625190000000  0.4186720000000  0.5630270000000 1.0
C      1  0.4799120000000  0.6028400000000  0.4657200000000 1.0
C      1  0.4801510000000  0.5652740000000  0.5495970000000 1.0
C      1  0.4459950000000  0.5448070000000  0.5027380000000 1.0
C      1  0.5302390000000  0.4388640000000  0.4165250000000 1.0
C      1  0.4808600000000  0.5175580000000  0.4447550000000 1.0
END
