TITL C-3577076-40-4 -1.75461707566437e-06 125000 -765.050641166317 0 0 120 (C1) n - 1
REM
REM in /home/bkarasulu/work/CARBON/AIRSS/Generating-Clusters/EDIP-Nigel-Params/with-SteepDescent/Higher-Symm/SD-CG/HFTN-CG
REM
REM
REM
REM
REM
REM ./C.cell (12c818d87b63d06a65506943cc24bca4)
REM
REM compiler GCC version 9.2.1 20190827 (Red Hat 9.2.1-1)
REM options -cpp -mtune=generic -march=x86-64 -g -O0 -fpre-include=/usr/include/finclude/math-vector-fortran.h
REM seed -2079285294 2002324841 -1910353398 -63251457 -310616730 -252189351 58228737 -574819233 416308538 1242688618 456973270 896718642 928941928 1220421879 1037362238 247160408 588525261 2042376499 -820594702 -658071520 2029380262 873418191 1257790037 376685892 -324817293 -780502333 -1610355708 -1615201951 -1918258947 -216548043 -1672101201 -675882031 -1707922349
REM
CELL 1.54180   50.00000   50.00000   50.00000   90.00000   90.00000   90.00000
LATT -1
SFAC C  
C      1  0.4316470000000  0.5493390000000  0.5152900000000 1.0
C      1  0.4315600000000  0.4620160000000  0.5355010000000 1.0
C      1  0.4303040000000  0.4865690000000  0.4474320000000 1.0
C      1  0.5663970000000  0.5473730000000  0.5152020000000 1.0
C      1  0.5690630000000  0.4619970000000  0.5348260000000 1.0
C      1  0.5675270000000  0.4880010000000  0.4491380000000 1.0
C      1  0.4737440000000  0.5609950000000  0.5440540000000 1.0
C      1  0.4735390000000  0.4311310000000  0.5312050000000 1.0
C      1  0.4737040000000  0.5073420000000  0.4249230000000 1.0
C      1  0.5262220000000  0.5614570000000  0.5440070000000 1.0
C      1  0.5259230000000  0.4310580000000  0.5306820000000 1.0
C      1  0.5258230000000  0.5075070000000  0.4247280000000 1.0
C      1  0.4102070000000  0.4920010000000  0.4709920000000 1.0
C      1  0.4069440000000  0.5296640000000  0.5077120000000 1.0
C      1  0.4066050000000  0.4781530000000  0.5217530000000 1.0
C      1  0.5898320000000  0.4926990000000  0.4705590000000 1.0
C      1  0.5960390000000  0.5297770000000  0.5062340000000 1.0
C      1  0.5926510000000  0.4788150000000  0.5204600000000 1.0
C      1  0.5551930000000  0.4150730000000  0.4609920000000 1.0
C      1  0.5551020000000  0.5782940000000  0.4458090000000 1.0
C      1  0.5561190000000  0.5089250000000  0.5935540000000 1.0
C      1  0.4444840000000  0.4135060000000  0.4607570000000 1.0
C      1  0.4441120000000  0.5779070000000  0.4457990000000 1.0
C      1  0.4449970000000  0.5082930000000  0.5943220000000 1.0
C      1  0.5149410000000  0.5339760000000  0.5424260000000 1.0
C      1  0.5138450000000  0.4447220000000  0.5068230000000 1.0
C      1  0.5147760000000  0.5193220000000  0.4495740000000 1.0
C      1  0.4856720000000  0.5336600000000  0.5427200000000 1.0
C      1  0.4846220000000  0.4453530000000  0.5073970000000 1.0
C      1  0.4854900000000  0.5196420000000  0.4494730000000 1.0
C      1  0.5156160000000  0.5652490000000  0.5736310000000 1.0
C      1  0.5152160000000  0.4028200000000  0.5204950000000 1.0
C      1  0.5153520000000  0.5321620000000  0.4073410000000 1.0
C      1  0.4843280000000  0.5651010000000  0.5737090000000 1.0
C      1  0.4840680000000  0.4031530000000  0.5204420000000 1.0
C      1  0.4838510000000  0.5319720000000  0.4071510000000 1.0
C      1  0.4469410000000  0.5136710000000  0.5155530000000 1.0
C      1  0.4469160000000  0.4802180000000  0.5050930000000 1.0
C      1  0.4451400000000  0.5061970000000  0.4835900000000 1.0
C      1  0.5539850000000  0.5192480000000  0.5145510000000 1.0
C      1  0.5534790000000  0.4731930000000  0.5006260000000 1.0
C      1  0.5570370000000  0.5020440000000  0.4894510000000 1.0
C      1  0.5569740000000  0.5595490000000  0.5415290000000 1.0
C      1  0.5566100000000  0.4343290000000  0.5301800000000 1.0
C      1  0.5561000000000  0.5069530000000  0.4295000000000 1.0
C      1  0.4430730000000  0.5586170000000  0.5418030000000 1.0
C      1  0.4428050000000  0.4342110000000  0.5307590000000 1.0
C      1  0.4433160000000  0.5064830000000  0.4294780000000 1.0
C      1  0.4442360000000  0.5654820000000  0.4938980000000 1.0
C      1  0.4448690000000  0.4732930000000  0.5593480000000 1.0
C      1  0.4438210000000  0.4608680000000  0.4458540000000 1.0
C      1  0.5548620000000  0.5649470000000  0.4938580000000 1.0
C      1  0.5560400000000  0.4738000000000  0.5584610000000 1.0
C      1  0.5547240000000  0.4622970000000  0.4467060000000 1.0
C      1  0.5271990000000  0.4137600000000  0.4602870000000 1.0
C      1  0.5270780000000  0.5790090000000  0.4454160000000 1.0
C      1  0.5280740000000  0.5086780000000  0.5942660000000 1.0
C      1  0.4725400000000  0.4133900000000  0.4604440000000 1.0
C      1  0.4721330000000  0.5785660000000  0.4454290000000 1.0
C      1  0.4730670000000  0.5083780000000  0.5946550000000 1.0
C      1  0.4298790000000  0.5654260000000  0.4679750000000 1.0
C      1  0.4305140000000  0.4955710000000  0.5724940000000 1.0
C      1  0.4301310000000  0.4388480000000  0.4605750000000 1.0
C      1  0.5694870000000  0.5658620000000  0.4679570000000 1.0
C      1  0.5703710000000  0.4962750000000  0.5715660000000 1.0
C      1  0.5682900000000  0.4409820000000  0.4612960000000 1.0
C      1  0.4595140000000  0.4068200000000  0.4958310000000 1.0
C      1  0.4592390000000  0.5507190000000  0.4225390000000 1.0
C      1  0.4597480000000  0.5423100000000  0.5829600000000 1.0
C      1  0.5399370000000  0.4069750000000  0.4956870000000 1.0
C      1  0.5399010000000  0.5512610000000  0.4223800000000 1.0
C      1  0.5407860000000  0.5428920000000  0.5828760000000 1.0
C      1  0.5248530000000  0.4638490000000  0.4487440000000 1.0
C      1  0.5250290000000  0.5619640000000  0.4937380000000 1.0
C      1  0.5260760000000  0.4746160000000  0.5555490000000 1.0
C      1  0.4740420000000  0.4634360000000  0.4485660000000 1.0
C      1  0.4742680000000  0.5619970000000  0.4939440000000 1.0
C      1  0.4750120000000  0.4744750000000  0.5562390000000 1.0
C      1  0.5142750000000  0.4789820000000  0.4243790000000 1.0
C      1  0.5143860000000  0.5752630000000  0.5192240000000 1.0
C      1  0.5148890000000  0.4460220000000  0.5549190000000 1.0
C      1  0.4849550000000  0.4788560000000  0.4243860000000 1.0
C      1  0.4851040000000  0.5751920000000  0.5193540000000 1.0
C      1  0.4855880000000  0.4458990000000  0.5553210000000 1.0
C      1  0.4857110000000  0.5747290000000  0.4698890000000 1.0
C      1  0.4866810000000  0.4891590000000  0.5789890000000 1.0
C      1  0.4857310000000  0.4363060000000  0.4502260000000 1.0
C      1  0.5135200000000  0.5747080000000  0.4697830000000 1.0
C      1  0.5145000000000  0.4897450000000  0.5782150000000 1.0
C      1  0.5135680000000  0.4365350000000  0.4503240000000 1.0
C      1  0.5243100000000  0.4709510000000  0.5021490000000 1.0
C      1  0.5272720000000  0.5099580000000  0.4744910000000 1.0
C      1  0.5252930000000  0.5173600000000  0.5211870000000 1.0
C      1  0.4757540000000  0.4724980000000  0.5033230000000 1.0
C      1  0.4745010000000  0.5104270000000  0.4744360000000 1.0
C      1  0.4761520000000  0.5166030000000  0.5216530000000 1.0
C      1  0.5151000000000  0.4814840000000  0.4752020000000 1.0
C      1  0.5152420000000  0.5297420000000  0.4952380000000 1.0
C      1  0.5163790000000  0.4881240000000  0.5264800000000 1.0
C      1  0.4848430000000  0.4818270000000  0.4756880000000 1.0
C      1  0.4852170000000  0.5294470000000  0.4956810000000 1.0
C      1  0.4861560000000  0.4883060000000  0.5271530000000 1.0
C      1  0.5752000000000  0.5387460000000  0.4602300000000 1.0
C      1  0.5769190000000  0.5168060000000  0.5521630000000 1.0
C      1  0.5727670000000  0.4490220000000  0.4893530000000 1.0
C      1  0.4248900000000  0.5380030000000  0.4608860000000 1.0
C      1  0.4240460000000  0.5157420000000  0.5528080000000 1.0
C      1  0.4248400000000  0.4464130000000  0.4879300000000 1.0
C      1  0.4059160000000  0.5218960000000  0.4778610000000 1.0
C      1  0.4059500000000  0.5081710000000  0.5293040000000 1.0
C      1  0.4065110000000  0.4698930000000  0.4925920000000 1.0
C      1  0.5935080000000  0.5220250000000  0.4770670000000 1.0
C      1  0.5945080000000  0.5084730000000  0.5280440000000 1.0
C      1  0.5965510000000  0.4704550000000  0.4917740000000 1.0
C      1  0.4358410000000  0.5337370000000  0.4336730000000 1.0
C      1  0.4357860000000  0.5413360000000  0.5632600000000 1.0
C      1  0.4355410000000  0.4242950000000  0.5049700000000 1.0
C      1  0.5633700000000  0.5343410000000  0.4333720000000 1.0
C      1  0.5648340000000  0.5424810000000  0.5631570000000 1.0
C      1  0.5642830000000  0.4235630000000  0.5051010000000 1.0
END
