TITL C-3578200-9634-530 -7.49699472557274e-07 125000 -747.400645512456 0 0 117 (C1) n - 1
REM
REM in /home/bkarasulu/work/CARBON/AIRSS/Generating-Clusters/EDIP-Nigel-Params/with-SteepDescent/Higher-Symm/SD-CG/HFTN-CG
REM
REM
REM
REM
REM
REM ./C.cell (12c818d87b63d06a65506943cc24bca4)
REM
REM compiler GCC version 9.2.1 20190827 (Red Hat 9.2.1-1)
REM options -cpp -mtune=generic -march=x86-64 -g -O0 -fpre-include=/usr/include/finclude/math-vector-fortran.h
REM seed -1260629208 58792090 -89172471 644471156 -823114420 -1091876234 -1808596788 -1247942221 -1254286862 -919511999 -992448758 -1579847292 291124597 -2115199896 -1486787223 -522844065 1122884373 1504688936 -155691884 -385298823 -638995311 198280226 -39042474 1496931623 747765172 -632405782 -12651323 897729285 382738064 2077307017 -1211118019 -174286837 893468160
REM
CELL 1.54180   50.00000   50.00000   50.00000   90.00000   90.00000   90.00000
LATT -1
SFAC C  
C      1  0.5658950000000  0.5115700000000  0.5598690000000 1.0
C      1  0.5008740000000  0.5141480000000  0.5802660000000 1.0
C      1  0.4266480000000  0.5095050000000  0.5500080000000 1.0
C      1  0.4122960000000  0.5092330000000  0.4755290000000 1.0
C      1  0.4639050000000  0.5021970000000  0.4313760000000 1.0
C      1  0.5319420000000  0.5041300000000  0.4309330000000 1.0
C      1  0.6001990000000  0.5107020000000  0.4821640000000 1.0
C      1  0.4685270000000  0.5825650000000  0.4896580000000 1.0
C      1  0.4881670000000  0.5841710000000  0.4661970000000 1.0
C      1  0.5163800000000  0.5734200000000  0.4681080000000 1.0
C      1  0.5317620000000  0.5740890000000  0.4934730000000 1.0
C      1  0.5234020000000  0.5763260000000  0.5218080000000 1.0
C      1  0.4975840000000  0.5708330000000  0.5339380000000 1.0
C      1  0.4730930000000  0.5772460000000  0.5190400000000 1.0
C      1  0.5248490000000  0.4627060000000  0.5750770000000 1.0
C      1  0.4519120000000  0.4663470000000  0.5612190000000 1.0
C      1  0.4185170000000  0.4682590000000  0.5061800000000 1.0
C      1  0.4395600000000  0.4583180000000  0.4401380000000 1.0
C      1  0.5131780000000  0.4542680000000  0.4238600000000 1.0
C      1  0.5778910000000  0.4598150000000  0.4621360000000 1.0
C      1  0.5875590000000  0.4609980000000  0.5362150000000 1.0
C      1  0.4207580000000  0.4821470000000  0.4359110000000 1.0
C      1  0.5015210000000  0.4764540000000  0.4072830000000 1.0
C      1  0.5762850000000  0.4848000000000  0.4467740000000 1.0
C      1  0.5984440000000  0.4875660000000  0.5275140000000 1.0
C      1  0.5402670000000  0.4843080000000  0.5896620000000 1.0
C      1  0.4564590000000  0.4882460000000  0.5804120000000 1.0
C      1  0.3977900000000  0.4861340000000  0.5189220000000 1.0
C      1  0.5016120000000  0.5254840000000  0.4678840000000 1.0
C      1  0.5359380000000  0.5075860000000  0.4971770000000 1.0
C      1  0.5398400000000  0.5107470000000  0.5444860000000 1.0
C      1  0.5089570000000  0.5169080000000  0.5501170000000 1.0
C      1  0.4493690000000  0.5029340000000  0.5307420000000 1.0
C      1  0.4564810000000  0.5294500000000  0.4969280000000 1.0
C      1  0.4725640000000  0.5364760000000  0.4726140000000 1.0
C      1  0.5702010000000  0.5568450000000  0.4687030000000 1.0
C      1  0.5650190000000  0.5540830000000  0.5187030000000 1.0
C      1  0.5323440000000  0.5504980000000  0.5615480000000 1.0
C      1  0.4470010000000  0.5584450000000  0.5554000000000 1.0
C      1  0.4360860000000  0.5515940000000  0.5049770000000 1.0
C      1  0.4535450000000  0.5536000000000  0.4564550000000 1.0
C      1  0.4955030000000  0.5532920000000  0.4289000000000 1.0
C      1  0.5776390000000  0.4463650000000  0.5102000000000 1.0
C      1  0.5422970000000  0.4475560000000  0.5569720000000 1.0
C      1  0.4762860000000  0.4504870000000  0.5576760000000 1.0
C      1  0.4282100000000  0.4456440000000  0.5238080000000 1.0
C      1  0.4338850000000  0.4427460000000  0.4639420000000 1.0
C      1  0.4905920000000  0.4442630000000  0.4413980000000 1.0
C      1  0.5552080000000  0.4412460000000  0.4549520000000 1.0
C      1  0.4575220000000  0.4415490000000  0.5121230000000 1.0
C      1  0.4588210000000  0.4308320000000  0.4790110000000 1.0
C      1  0.4858760000000  0.4215280000000  0.4636480000000 1.0
C      1  0.5429600000000  0.4187510000000  0.4765710000000 1.0
C      1  0.5638490000000  0.4189120000000  0.5014920000000 1.0
C      1  0.5389530000000  0.4164310000000  0.5154220000000 1.0
C      1  0.4811600000000  0.4391980000000  0.5309030000000 1.0
C      1  0.5671340000000  0.4860310000000  0.5765400000000 1.0
C      1  0.4853620000000  0.4892220000000  0.5837380000000 1.0
C      1  0.4081330000000  0.4852760000000  0.5477010000000 1.0
C      1  0.4048680000000  0.4834540000000  0.4612920000000 1.0
C      1  0.4724160000000  0.4787120000000  0.4131430000000 1.0
C      1  0.5533440000000  0.4827080000000  0.4285290000000 1.0
C      1  0.6014890000000  0.4860390000000  0.4979600000000 1.0
C      1  0.5329640000000  0.4424270000000  0.5281990000000 1.0
C      1  0.5052660000000  0.4542430000000  0.5194610000000 1.0
C      1  0.4652950000000  0.4681590000000  0.5011140000000 1.0
C      1  0.4685530000000  0.4685860000000  0.4717820000000 1.0
C      1  0.4962740000000  0.4657300000000  0.4635200000000 1.0
C      1  0.5390100000000  0.4615130000000  0.4835800000000 1.0
C      1  0.5503310000000  0.4618690000000  0.5120660000000 1.0
C      1  0.5912500000000  0.4603600000000  0.4878520000000 1.0
C      1  0.5688750000000  0.4612070000000  0.5594280000000 1.0
C      1  0.4972720000000  0.4680410000000  0.5681420000000 1.0
C      1  0.4254370000000  0.4597670000000  0.5503800000000 1.0
C      1  0.4125480000000  0.4594160000000  0.4777970000000 1.0
C      1  0.4651770000000  0.4537960000000  0.4264180000000 1.0
C      1  0.5414620000000  0.4557400000000  0.4317530000000 1.0
C      1  0.5880210000000  0.5132600000000  0.5392380000000 1.0
C      1  0.5264940000000  0.5113160000000  0.5960510000000 1.0
C      1  0.4416590000000  0.5137660000000  0.5758500000000 1.0
C      1  0.3996780000000  0.5126280000000  0.5027800000000 1.0
C      1  0.4353620000000  0.5088970000000  0.4286850000000 1.0
C      1  0.5158580000000  0.5027100000000  0.4056830000000 1.0
C      1  0.5815950000000  0.5105340000000  0.4596510000000 1.0
C      1  0.4301110000000  0.5348610000000  0.4437570000000 1.0
C      1  0.4979150000000  0.5250080000000  0.4026050000000 1.0
C      1  0.5672590000000  0.5348730000000  0.4518360000000 1.0
C      1  0.5888430000000  0.5372580000000  0.5218260000000 1.0
C      1  0.5431700000000  0.5349340000000  0.5952680000000 1.0
C      1  0.4570090000000  0.5396920000000  0.5737560000000 1.0
C      1  0.4102400000000  0.5372880000000  0.5157820000000 1.0
C      1  0.4796030000000  0.5270970000000  0.4242130000000 1.0
C      1  0.5411950000000  0.5325560000000  0.4383610000000 1.0
C      1  0.6034020000000  0.5335930000000  0.4980680000000 1.0
C      1  0.5643930000000  0.5352200000000  0.5770830000000 1.0
C      1  0.4860580000000  0.5407250000000  0.5790890000000 1.0
C      1  0.4116570000000  0.5336140000000  0.5434160000000 1.0
C      1  0.4069400000000  0.5326730000000  0.4590910000000 1.0
C      1  0.5127460000000  0.4965860000000  0.4556970000000 1.0
C      1  0.5347230000000  0.4896450000000  0.4749840000000 1.0
C      1  0.5378240000000  0.4916060000000  0.5218510000000 1.0
C      1  0.5082610000000  0.4845360000000  0.5285360000000 1.0
C      1  0.4434180000000  0.4864730000000  0.5061440000000 1.0
C      1  0.4424680000000  0.5056750000000  0.4832010000000 1.0
C      1  0.4618290000000  0.4951390000000  0.4618170000000 1.0
C      1  0.5448320000000  0.5642870000000  0.5377540000000 1.0
C      1  0.5027620000000  0.5585100000000  0.5611360000000 1.0
C      1  0.4482120000000  0.5664440000000  0.5286080000000 1.0
C      1  0.4423230000000  0.5699550000000  0.4802670000000 1.0
C      1  0.4746310000000  0.5711970000000  0.4421330000000 1.0
C      1  0.5165890000000  0.5474940000000  0.4507410000000 1.0
C      1  0.5594060000000  0.5656950000000  0.4927670000000 1.0
C      1  0.5108870000000  0.4222020000000  0.4813600000000 1.0
C      1  0.5107900000000  0.4513100000000  0.4872290000000 1.0
C      1  0.4752570000000  0.5180840000000  0.5286760000000 1.0
C      1  0.4935470000000  0.5040630000000  0.5115710000000 1.0
C      1  0.5109470000000  0.5218110000000  0.4960980000000 1.0
END
