TITL C-3577087-600-593 -3.59999027463249e-06 125000 -670.202827678435 0 0 109 (C1) n - 1
REM
REM in /home/bkarasulu/work/CARBON/AIRSS/Generating-Clusters/EDIP-Nigel-Params/with-SteepDescent/Higher-Symm/SD-CG/HFTN-CG
REM
REM
REM
REM
REM
REM ./C.cell (12c818d87b63d06a65506943cc24bca4)
REM
REM compiler GCC version 9.2.1 20190827 (Red Hat 9.2.1-1)
REM options -cpp -mtune=generic -march=x86-64 -g -O0 -fpre-include=/usr/include/finclude/math-vector-fortran.h
REM seed 310310638 890659846 41934791 2046686586 1935604504 561541192 -782973303 -1865867874 175690617 -437328931 -2021466732 -1036301228 -831615041 -837648022 -2056712303 1927283501 77635197 -801193863 -191664339 -833361091 -731175247 1544918382 2144492751 -580008179 -476575999 -657604950 971560569 1678042779 -428771882 -476414527 1232679837 -1355393254 -439741319
REM
CELL 1.54180   50.00000   50.00000   50.00000   90.00000   90.00000   90.00000
LATT -1
SFAC C  
C      1  0.5207080000000  0.4398110000000  0.5172600000000 1.0
C      1  0.5240610000000  0.4387030000000  0.4701280000000 1.0
C      1  0.4786020000000  0.4413080000000  0.4927640000000 1.0
C      1  0.4429770000000  0.5282540000000  0.5597290000000 1.0
C      1  0.5848820000000  0.5208280000000  0.5210000000000 1.0
C      1  0.4706880000000  0.5272090000000  0.4183090000000 1.0
C      1  0.5567060000000  0.4158770000000  0.5132400000000 1.0
C      1  0.4834850000000  0.4202280000000  0.4458320000000 1.0
C      1  0.4822500000000  0.4338550000000  0.5432040000000 1.0
C      1  0.5196930000000  0.5119870000000  0.4920040000000 1.0
C      1  0.4787440000000  0.5331870000000  0.4805470000000 1.0
C      1  0.4946810000000  0.5302720000000  0.5266420000000 1.0
C      1  0.4437060000000  0.5338920000000  0.4315650000000 1.0
C      1  0.4638070000000  0.5364270000000  0.5798730000000 1.0
C      1  0.5918040000000  0.5267900000000  0.4919500000000 1.0
C      1  0.5412130000000  0.4351510000000  0.4443630000000 1.0
C      1  0.4473480000000  0.4382900000000  0.4904420000000 1.0
C      1  0.5046740000000  0.4387530000000  0.5649800000000 1.0
C      1  0.5368180000000  0.4271700000000  0.4959180000000 1.0
C      1  0.4947030000000  0.4305140000000  0.4690840000000 1.0
C      1  0.4928850000000  0.4302740000000  0.5170090000000 1.0
C      1  0.5045270000000  0.5240490000000  0.4721380000000 1.0
C      1  0.4766180000000  0.5235960000000  0.5069480000000 1.0
C      1  0.5201680000000  0.5314800000000  0.5152900000000 1.0
C      1  0.4931660000000  0.4810540000000  0.4065370000000 1.0
C      1  0.4277210000000  0.4788980000000  0.5468390000000 1.0
C      1  0.5731160000000  0.4747530000000  0.5429690000000 1.0
C      1  0.4996680000000  0.4253570000000  0.4250600000000 1.0
C      1  0.4542520000000  0.4321680000000  0.5389450000000 1.0
C      1  0.5444090000000  0.4181310000000  0.5388030000000 1.0
C      1  0.4396960000000  0.5658550000000  0.5290170000000 1.0
C      1  0.5514810000000  0.5701210000000  0.5403210000000 1.0
C      1  0.5056410000000  0.5670260000000  0.4398740000000 1.0
C      1  0.4480330000000  0.5568000000000  0.4518360000000 1.0
C      1  0.4809650000000  0.5622740000000  0.5698800000000 1.0
C      1  0.5712160000000  0.5520740000000  0.4812950000000 1.0
C      1  0.5324450000000  0.5252380000000  0.4362690000000 1.0
C      1  0.4283440000000  0.5241440000000  0.5035640000000 1.0
C      1  0.5360980000000  0.5296560000000  0.5636020000000 1.0
C      1  0.5004300000000  0.5098580000000  0.4018490000000 1.0
C      1  0.4158320000000  0.5060370000000  0.5453580000000 1.0
C      1  0.5787700000000  0.5020230000000  0.5535950000000 1.0
C      1  0.5220280000000  0.4683910000000  0.4717860000000 1.0
C      1  0.4820590000000  0.4709950000000  0.4967120000000 1.0
C      1  0.5261620000000  0.4699400000000  0.5165970000000 1.0
C      1  0.4109290000000  0.4761350000000  0.4774980000000 1.0
C      1  0.5145240000000  0.4833870000000  0.5852670000000 1.0
C      1  0.5653070000000  0.4796900000000  0.4289170000000 1.0
C      1  0.4995270000000  0.4578660000000  0.5874870000000 1.0
C      1  0.5648020000000  0.4542250000000  0.4457510000000 1.0
C      1  0.4338900000000  0.4578310000000  0.4709100000000 1.0
C      1  0.5327510000000  0.5591240000000  0.5581250000000 1.0
C      1  0.5311120000000  0.5544390000000  0.4439600000000 1.0
C      1  0.4305360000000  0.5538840000000  0.5047030000000 1.0
C      1  0.4891780000000  0.5730600000000  0.5174990000000 1.0
C      1  0.5223230000000  0.5608480000000  0.5020070000000 1.0
C      1  0.4824920000000  0.5647780000000  0.4860380000000 1.0
C      1  0.4546840000000  0.4813470000000  0.5580840000000 1.0
C      1  0.5643850000000  0.4769700000000  0.5141960000000 1.0
C      1  0.4737320000000  0.4802310000000  0.4294550000000 1.0
C      1  0.4315910000000  0.4699340000000  0.5182280000000 1.0
C      1  0.5464380000000  0.4675160000000  0.5563360000000 1.0
C      1  0.5184610000000  0.4701870000000  0.4202300000000 1.0
C      1  0.5905670000000  0.5006320000000  0.4765450000000 1.0
C      1  0.4300620000000  0.5043710000000  0.4364980000000 1.0
C      1  0.4726520000000  0.5093560000000  0.5957310000000 1.0
C      1  0.5449140000000  0.5764550000000  0.5143600000000 1.0
C      1  0.4899800000000  0.5798950000000  0.4605780000000 1.0
C      1  0.4629680000000  0.5827920000000  0.5293230000000 1.0
C      1  0.4062890000000  0.4803320000000  0.5065060000000 1.0
C      1  0.5437240000000  0.4834910000000  0.5809560000000 1.0
C      1  0.5420070000000  0.4854930000000  0.4096380000000 1.0
C      1  0.4302180000000  0.5219430000000  0.4720400000000 1.0
C      1  0.5066010000000  0.5264430000000  0.5729830000000 1.0
C      1  0.5562310000000  0.5191680000000  0.4555140000000 1.0
C      1  0.4445650000000  0.4778260000000  0.4281390000000 1.0
C      1  0.4588790000000  0.4828360000000  0.5874140000000 1.0
C      1  0.5839440000000  0.4746380000000  0.4901570000000 1.0
C      1  0.5483150000000  0.5110230000000  0.4842620000000 1.0
C      1  0.4590460000000  0.5108550000000  0.4683710000000 1.0
C      1  0.4936770000000  0.5119170000000  0.5491200000000 1.0
C      1  0.5699370000000  0.5698130000000  0.5040330000000 1.0
C      1  0.4677330000000  0.5757440000000  0.4422830000000 1.0
C      1  0.4616000000000  0.5803470000000  0.5579840000000 1.0
C      1  0.5301080000000  0.5137280000000  0.4076310000000 1.0
C      1  0.4057390000000  0.5090170000000  0.5174130000000 1.0
C      1  0.5581010000000  0.5093190000000  0.5743160000000 1.0
C      1  0.5230050000000  0.4401660000000  0.4213830000000 1.0
C      1  0.4367330000000  0.4404440000000  0.5180520000000 1.0
C      1  0.5348830000000  0.4384980000000  0.5581930000000 1.0
C      1  0.4367830000000  0.4554660000000  0.4430620000000 1.0
C      1  0.4730590000000  0.4604190000000  0.5967460000000 1.0
C      1  0.5783950000000  0.4554460000000  0.4705020000000 1.0
C      1  0.5228270000000  0.4868320000000  0.5420260000000 1.0
C      1  0.5142520000000  0.4813400000000  0.4478680000000 1.0
C      1  0.4560540000000  0.4852090000000  0.4974280000000 1.0
C      1  0.4538320000000  0.5098640000000  0.5150500000000 1.0
C      1  0.5369300000000  0.5146360000000  0.5353280000000 1.0
C      1  0.5074400000000  0.5103080000000  0.4475430000000 1.0
C      1  0.5047310000000  0.5649750000000  0.5516110000000 1.0
C      1  0.5424000000000  0.5579550000000  0.4714210000000 1.0
C      1  0.4443400000000  0.5626670000000  0.4808420000000 1.0
C      1  0.5775970000000  0.5032650000000  0.4424900000000 1.0
C      1  0.4096090000000  0.5015450000000  0.4614120000000 1.0
C      1  0.5029720000000  0.5080740000000  0.5960290000000 1.0
C      1  0.4613560000000  0.5077710000000  0.5462480000000 1.0
C      1  0.5592020000000  0.5065910000000  0.5139090000000 1.0
C      1  0.4777720000000  0.5073470000000  0.4402280000000 1.0
C      1  0.5105360000000  0.4816360000000  0.4949020000000 1.0
END
