TITL C-3578204-4308-373 -1.88870612487037e-06 125000 -748.606429139426 0 0 120 (C1) n - 1
REM
REM in /home/bkarasulu/work/CARBON/AIRSS/Generating-Clusters/EDIP-Nigel-Params/with-SteepDescent/Higher-Symm/SD-CG/HFTN-CG
REM
REM
REM
REM
REM
REM ./C.cell (12c818d87b63d06a65506943cc24bca4)
REM
REM compiler GCC version 9.2.1 20190827 (Red Hat 9.2.1-1)
REM options -cpp -mtune=generic -march=x86-64 -g -O0 -fpre-include=/usr/include/finclude/math-vector-fortran.h
REM seed -1375170215 -1083337869 -717400066 45549577 1608035957 1733137963 -807708956 1777448223 880196566 -1784570382 1945977230 1514538514 1036234121 20722631 187144936 661196003 1102970459 -110676556 -2018010823 -1091773957 -183528709 -1631000338 214254900 732614055 -282108523 1059758990 -1514529850 1060443736 -1076036574 -762787714 1672198578 -1879608734 -2142458208
REM
CELL 1.54180   50.00000   50.00000   50.00000   90.00000   90.00000   90.00000
LATT -1
SFAC C  
C      1  0.4501600000000  0.5426250000000  0.5641650000000 1.0
C      1  0.4431830000000  0.5810200000000  0.5356750000000 1.0
C      1  0.4565040000000  0.5762770000000  0.4850810000000 1.0
C      1  0.4607230000000  0.5428570000000  0.4482850000000 1.0
C      1  0.4479980000000  0.5043340000000  0.4198320000000 1.0
C      1  0.4440280000000  0.4562090000000  0.4285130000000 1.0
C      1  0.4431680000000  0.4218290000000  0.4654740000000 1.0
C      1  0.4532940000000  0.4226550000000  0.5176190000000 1.0
C      1  0.4573970000000  0.4561080000000  0.5579740000000 1.0
C      1  0.4426630000000  0.4989240000000  0.5826310000000 1.0
C      1  0.4692290000000  0.5303350000000  0.5430750000000 1.0
C      1  0.4650420000000  0.5416990000000  0.5161620000000 1.0
C      1  0.4833960000000  0.5341060000000  0.4942560000000 1.0
C      1  0.4737480000000  0.5086060000000  0.4870580000000 1.0
C      1  0.4646230000000  0.4966720000000  0.4641750000000 1.0
C      1  0.4715820000000  0.4678020000000  0.4609880000000 1.0
C      1  0.4686120000000  0.4550660000000  0.4873800000000 1.0
C      1  0.4752190000000  0.4643620000000  0.5133790000000 1.0
C      1  0.4876230000000  0.4899260000000  0.5231950000000 1.0
C      1  0.4696350000000  0.5010790000000  0.5427660000000 1.0
C      1  0.6124210000000  0.5329960000000  0.4828200000000 1.0
C      1  0.5974250000000  0.5254960000000  0.4602750000000 1.0
C      1  0.5945450000000  0.4973610000000  0.4530770000000 1.0
C      1  0.6018050000000  0.4769780000000  0.4709740000000 1.0
C      1  0.5984200000000  0.4619480000000  0.4942130000000 1.0
C      1  0.6132490000000  0.4694640000000  0.5166970000000 1.0
C      1  0.5941480000000  0.4764630000000  0.5359680000000 1.0
C      1  0.5913410000000  0.5038270000000  0.5448180000000 1.0
C      1  0.6006060000000  0.5234340000000  0.5277970000000 1.0
C      1  0.5940970000000  0.5346750000000  0.5037000000000 1.0
C      1  0.5220070000000  0.4214090000000  0.4435470000000 1.0
C      1  0.5152870000000  0.4134600000000  0.4918610000000 1.0
C      1  0.5004290000000  0.4363760000000  0.5372270000000 1.0
C      1  0.5162890000000  0.4895860000000  0.5789750000000 1.0
C      1  0.5169150000000  0.5343160000000  0.5875050000000 1.0
C      1  0.5202090000000  0.5775260000000  0.5560460000000 1.0
C      1  0.5113920000000  0.5731910000000  0.5074360000000 1.0
C      1  0.5007520000000  0.5670030000000  0.4600720000000 1.0
C      1  0.5160610000000  0.5188170000000  0.4101010000000 1.0
C      1  0.5194820000000  0.4691910000000  0.4190820000000 1.0
C      1  0.5311330000000  0.5413470000000  0.4237370000000 1.0
C      1  0.5335310000000  0.4942040000000  0.4042580000000 1.0
C      1  0.5350740000000  0.4400550000000  0.4235360000000 1.0
C      1  0.5375470000000  0.4154430000000  0.4698890000000 1.0
C      1  0.5190830000000  0.4185440000000  0.5217480000000 1.0
C      1  0.5267950000000  0.4670910000000  0.5643370000000 1.0
C      1  0.5339510000000  0.5090680000000  0.5905730000000 1.0
C      1  0.5319430000000  0.5604570000000  0.5781250000000 1.0
C      1  0.5329890000000  0.5743810000000  0.5269980000000 1.0
C      1  0.5169310000000  0.5811060000000  0.4798220000000 1.0
C      1  0.4627910000000  0.4262030000000  0.4882970000000 1.0
C      1  0.4708200000000  0.4429970000000  0.5330750000000 1.0
C      1  0.4651860000000  0.4852040000000  0.5673940000000 1.0
C      1  0.4549390000000  0.5259060000000  0.5894660000000 1.0
C      1  0.4583760000000  0.5723370000000  0.5608790000000 1.0
C      1  0.4622680000000  0.5712690000000  0.5142020000000 1.0
C      1  0.4752710000000  0.5557230000000  0.4712980000000 1.0
C      1  0.4674270000000  0.5147140000000  0.4406220000000 1.0
C      1  0.4599960000000  0.4772470000000  0.4155530000000 1.0
C      1  0.4590710000000  0.4355660000000  0.4436340000000 1.0
C      1  0.4085960000000  0.4982520000000  0.5431470000000 1.0
C      1  0.4149190000000  0.5252760000000  0.5334220000000 1.0
C      1  0.4073730000000  0.5486240000000  0.5167750000000 1.0
C      1  0.4122600000000  0.5508260000000  0.4879290000000 1.0
C      1  0.4180000000000  0.5295680000000  0.4682460000000 1.0
C      1  0.4094920000000  0.5050230000000  0.4542250000000 1.0
C      1  0.4109960000000  0.4763500000000  0.4611510000000 1.0
C      1  0.4100600000000  0.4556450000000  0.4821770000000 1.0
C      1  0.4128620000000  0.4537970000000  0.5113410000000 1.0
C      1  0.4181770000000  0.4728240000000  0.5324720000000 1.0
C      1  0.4172110000000  0.4312600000000  0.4704120000000 1.0
C      1  0.4257220000000  0.4299300000000  0.5198880000000 1.0
C      1  0.4295750000000  0.4566440000000  0.5526250000000 1.0
C      1  0.4170340000000  0.4986250000000  0.5702410000000 1.0
C      1  0.4219850000000  0.5392270000000  0.5573900000000 1.0
C      1  0.4165240000000  0.5717870000000  0.5308110000000 1.0
C      1  0.4285650000000  0.5730090000000  0.4808700000000 1.0
C      1  0.4327300000000  0.5449120000000  0.4492190000000 1.0
C      1  0.4206150000000  0.5051680000000  0.4280120000000 1.0
C      1  0.4178910000000  0.4632280000000  0.4370700000000 1.0
C      1  0.5557810000000  0.4691430000000  0.4495330000000 1.0
C      1  0.5770350000000  0.4422490000000  0.4981650000000 1.0
C      1  0.5691990000000  0.4358370000000  0.5254930000000 1.0
C      1  0.5750150000000  0.4565580000000  0.5449740000000 1.0
C      1  0.5658070000000  0.5102530000000  0.5563870000000 1.0
C      1  0.5501470000000  0.5343690000000  0.5473250000000 1.0
C      1  0.5701000000000  0.5505670000000  0.5011560000000 1.0
C      1  0.5649560000000  0.5601130000000  0.4741180000000 1.0
C      1  0.5744330000000  0.5422240000000  0.4524400000000 1.0
C      1  0.5686020000000  0.4936970000000  0.4403310000000 1.0
C      1  0.4884730000000  0.5813780000000  0.5225650000000 1.0
C      1  0.5174030000000  0.5455760000000  0.4492040000000 1.0
C      1  0.4968120000000  0.5072620000000  0.4315360000000 1.0
C      1  0.4894380000000  0.4781860000000  0.4219940000000 1.0
C      1  0.4957950000000  0.4321200000000  0.4550570000000 1.0
C      1  0.4885950000000  0.4138830000000  0.4786280000000 1.0
C      1  0.5119850000000  0.4642180000000  0.5385740000000 1.0
C      1  0.4883520000000  0.4927050000000  0.5857400000000 1.0
C      1  0.4833240000000  0.5199910000000  0.5952770000000 1.0
C      1  0.4905370000000  0.5714300000000  0.5511080000000 1.0
C      1  0.5545620000000  0.4628260000000  0.5631090000000 1.0
C      1  0.5610600000000  0.5057360000000  0.5836710000000 1.0
C      1  0.5570460000000  0.5550840000000  0.5670960000000 1.0
C      1  0.5454960000000  0.5476590000000  0.5191640000000 1.0
C      1  0.5434160000000  0.5776510000000  0.4716800000000 1.0
C      1  0.5598950000000  0.5353580000000  0.4273860000000 1.0
C      1  0.5608960000000  0.5011010000000  0.4128110000000 1.0
C      1  0.5613010000000  0.4468380000000  0.4321190000000 1.0
C      1  0.5580630000000  0.4352470000000  0.4774580000000 1.0
C      1  0.5459720000000  0.4208410000000  0.5292320000000 1.0
C      1  0.5204090000000  0.5221750000000  0.5507330000000 1.0
C      1  0.4954970000000  0.5411480000000  0.5501400000000 1.0
C      1  0.5170130000000  0.5295700000000  0.5018940000000 1.0
C      1  0.5270070000000  0.5199090000000  0.4755820000000 1.0
C      1  0.5145630000000  0.5018630000000  0.4561610000000 1.0
C      1  0.5256580000000  0.4749640000000  0.4496150000000 1.0
C      1  0.5082900000000  0.4583900000000  0.4682150000000 1.0
C      1  0.5261130000000  0.4507030000000  0.4922520000000 1.0
C      1  0.5289350000000  0.4710520000000  0.5145350000000 1.0
C      1  0.5166040000000  0.5052830000000  0.5228020000000 1.0
END
