TITL C-3577080-309-229 -1.00848495262271e-06 125000 -493.275785739783 0 0 81 (C1) n - 1
REM
REM in /home/bkarasulu/work/CARBON/AIRSS/Generating-Clusters/EDIP-Nigel-Params/with-SteepDescent/Higher-Symm/SD-CG/HFTN-CG
REM
REM
REM
REM
REM
REM ./C.cell (12c818d87b63d06a65506943cc24bca4)
REM
REM compiler GCC version 9.2.1 20190827 (Red Hat 9.2.1-1)
REM options -cpp -mtune=generic -march=x86-64 -g -O0 -fpre-include=/usr/include/finclude/math-vector-fortran.h
REM seed -448838901 491594178 -813677379 -944891320 32857048 -1044378318 -744795689 909864711 -741049418 1749689206 1109546795 -1160915730 814396705 -231646072 -1850062666 -119415766 1622310131 1220814363 -648267774 1480284406 -492096341 -1404225195 -1725232530 1688048635 -60612046 -576896605 -1464609556 -950601744 1313510006 89679853 1859419617 1295508078 -1006567313
REM
CELL 1.54180   50.00000   50.00000   50.00000   90.00000   90.00000   90.00000
LATT -1
SFAC C  
C      1  0.5377310000000  0.4814370000000  0.5560580000000 1.0
C      1  0.5249380000000  0.5228100000000  0.5511340000000 1.0
C      1  0.4811590000000  0.5271070000000  0.5489310000000 1.0
C      1  0.4660010000000  0.4913520000000  0.5515820000000 1.0
C      1  0.4987090000000  0.4620240000000  0.5536900000000 1.0
C      1  0.4660380000000  0.4605040000000  0.4324530000000 1.0
C      1  0.5206290000000  0.4656070000000  0.4438520000000 1.0
C      1  0.5453040000000  0.5184960000000  0.4337110000000 1.0
C      1  0.4925780000000  0.5575800000000  0.4221870000000 1.0
C      1  0.4422760000000  0.5190870000000  0.4227680000000 1.0
C      1  0.4695680000000  0.5113310000000  0.4209620000000 1.0
C      1  0.4790290000000  0.4850390000000  0.4292980000000 1.0
C      1  0.5074540000000  0.4858960000000  0.4295130000000 1.0
C      1  0.5173440000000  0.5129830000000  0.4279870000000 1.0
C      1  0.4933830000000  0.5290300000000  0.4217380000000 1.0
C      1  0.5625010000000  0.5349250000000  0.4481080000000 1.0
C      1  0.4781190000000  0.5721340000000  0.4411070000000 1.0
C      1  0.4218760000000  0.5196220000000  0.4418380000000 1.0
C      1  0.4717140000000  0.4372960000000  0.4462380000000 1.0
C      1  0.5448100000000  0.4715030000000  0.4576060000000 1.0
C      1  0.5212380000000  0.5738660000000  0.4721850000000 1.0
C      1  0.4249070000000  0.5422230000000  0.4886950000000 1.0
C      1  0.4533610000000  0.4540250000000  0.4831750000000 1.0
C      1  0.5248380000000  0.4381590000000  0.4881830000000 1.0
C      1  0.5717040000000  0.5047030000000  0.4832120000000 1.0
C      1  0.4558520000000  0.5191110000000  0.4623600000000 1.0
C      1  0.4757640000000  0.4706020000000  0.4709420000000 1.0
C      1  0.5081180000000  0.4621920000000  0.4795630000000 1.0
C      1  0.5463790000000  0.5004290000000  0.4677770000000 1.0
C      1  0.5091510000000  0.5513700000000  0.4567290000000 1.0
C      1  0.5439840000000  0.5075010000000  0.5703260000000 1.0
C      1  0.5039630000000  0.5384100000000  0.5652950000000 1.0
C      1  0.4588140000000  0.5167050000000  0.5679380000000 1.0
C      1  0.4725690000000  0.4673220000000  0.5685170000000 1.0
C      1  0.5232580000000  0.4588510000000  0.5715480000000 1.0
C      1  0.4418370000000  0.4536980000000  0.5393310000000 1.0
C      1  0.5267740000000  0.4261550000000  0.5416010000000 1.0
C      1  0.5784950000000  0.5000650000000  0.5431680000000 1.0
C      1  0.5218720000000  0.5675930000000  0.5369650000000 1.0
C      1  0.4356680000000  0.5454610000000  0.5405940000000 1.0
C      1  0.5510170000000  0.4493960000000  0.4762690000000 1.0
C      1  0.5764170000000  0.5325720000000  0.4726640000000 1.0
C      1  0.4846700000000  0.5821300000000  0.4672290000000 1.0
C      1  0.4279620000000  0.5179010000000  0.4706160000000 1.0
C      1  0.4634220000000  0.4281900000000  0.4718260000000 1.0
C      1  0.5330960000000  0.4329280000000  0.5682840000000 1.0
C      1  0.5715300000000  0.5116250000000  0.5680070000000 1.0
C      1  0.5096370000000  0.5655660000000  0.5623370000000 1.0
C      1  0.4345800000000  0.5300460000000  0.5638720000000 1.0
C      1  0.4512980000000  0.4494370000000  0.5656370000000 1.0
C      1  0.5485000000000  0.4319830000000  0.5250310000000 1.0
C      1  0.5799840000000  0.5201520000000  0.5239440000000 1.0
C      1  0.5031030000000  0.5756040000000  0.5181360000000 1.0
C      1  0.4328800000000  0.5293040000000  0.5146170000000 1.0
C      1  0.4536430000000  0.4346180000000  0.5227600000000 1.0
C      1  0.5038180000000  0.5266500000000  0.4734810000000 1.0
C      1  0.4772990000000  0.5186890000000  0.4811440000000 1.0
C      1  0.4802140000000  0.4926690000000  0.4929260000000 1.0
C      1  0.5087500000000  0.4894550000000  0.5032830000000 1.0
C      1  0.5237220000000  0.5096030000000  0.4862200000000 1.0
C      1  0.4281230000000  0.4656760000000  0.4783000000000 1.0
C      1  0.5119800000000  0.4141010000000  0.4808740000000 1.0
C      1  0.5878330000000  0.4816580000000  0.4865420000000 1.0
C      1  0.5468040000000  0.5708720000000  0.4823560000000 1.0
C      1  0.4401380000000  0.5646040000000  0.4822860000000 1.0
C      1  0.5634310000000  0.5422630000000  0.5187190000000 1.0
C      1  0.4764840000000  0.5687170000000  0.5141680000000 1.0
C      1  0.4289920000000  0.4992730000000  0.5146060000000 1.0
C      1  0.4799580000000  0.4259920000000  0.5179670000000 1.0
C      1  0.5665480000000  0.4533630000000  0.5218560000000 1.0
C      1  0.4852130000000  0.4181460000000  0.4899580000000 1.0
C      1  0.5740160000000  0.4575990000000  0.4937320000000 1.0
C      1  0.5666860000000  0.5533490000000  0.4916850000000 1.0
C      1  0.4656230000000  0.5742960000000  0.4881740000000 1.0
C      1  0.4222230000000  0.4919900000000  0.4867900000000 1.0
C      1  0.4648550000000  0.5459300000000  0.5302500000000 1.0
C      1  0.4463630000000  0.4817930000000  0.5310360000000 1.0
C      1  0.5013220000000  0.4390660000000  0.5338190000000 1.0
C      1  0.5601490000000  0.4780030000000  0.5366000000000 1.0
C      1  0.5364620000000  0.5427370000000  0.5308780000000 1.0
C      1  0.5063990000000  0.4940050000000  0.5373690000000 1.0
END
