TITL C-3577078-809-660 -2.45906981637219e-06 125000 -1268.43402317342 0 0 200 (C1) n - 1
REM
REM in /home/bkarasulu/work/CARBON/AIRSS/Generating-Clusters/EDIP-Nigel-Params/with-SteepDescent/Higher-Symm/SD-CG/HFTN-CG
REM
REM
REM
REM
REM
REM ./C.cell (12c818d87b63d06a65506943cc24bca4)
REM
REM compiler GCC version 9.2.1 20190827 (Red Hat 9.2.1-1)
REM options -cpp -mtune=generic -march=x86-64 -g -O0 -fpre-include=/usr/include/finclude/math-vector-fortran.h
REM seed 1880543643 -1175762740 -945699856 1417378315 940614777 -851845390 920143000 -63796224 -1802871787 -1840921362 -2036827027 -68866258 1004393177 80119461 894790242 708770186 2007142772 981091819 476603996 47147969 296219452 668536699 -1259751669 1580300134 1772824099 701286851 -168781057 -719960547 -64396898 -561121381 369540597 -1460580142 -948317835
REM
CELL 1.54180   50.00000   50.00000   50.00000   90.00000   90.00000   90.00000
LATT -1
SFAC C  
C      1  0.5670040000000  0.5818280000000  0.4859210000000 1.0
C      1  0.5453850000000  0.5816220000000  0.4404810000000 1.0
C      1  0.4956550000000  0.5803370000000  0.4305000000000 1.0
C      1  0.4464440000000  0.5829440000000  0.4435020000000 1.0
C      1  0.4208850000000  0.5851780000000  0.4868180000000 1.0
C      1  0.4352070000000  0.5890960000000  0.5380680000000 1.0
C      1  0.4795050000000  0.5930640000000  0.5690850000000 1.0
C      1  0.5354830000000  0.5842430000000  0.5729780000000 1.0
C      1  0.5707690000000  0.5823280000000  0.5365160000000 1.0
C      1  0.5980950000000  0.4300810000000  0.5324450000000 1.0
C      1  0.5908160000000  0.4253610000000  0.4728350000000 1.0
C      1  0.5551990000000  0.4281400000000  0.4071170000000 1.0
C      1  0.4908260000000  0.4222300000000  0.4142370000000 1.0
C      1  0.4176660000000  0.4291340000000  0.4187850000000 1.0
C      1  0.4079030000000  0.4200960000000  0.4874050000000 1.0
C      1  0.4226060000000  0.4253500000000  0.5591880000000 1.0
C      1  0.4843200000000  0.4281380000000  0.5917200000000 1.0
C      1  0.5571460000000  0.4270750000000  0.5849300000000 1.0
C      1  0.5362980000000  0.5734780000000  0.5214100000000 1.0
C      1  0.5390190000000  0.5880930000000  0.4935950000000 1.0
C      1  0.5231290000000  0.5737960000000  0.4711280000000 1.0
C      1  0.4980030000000  0.5886790000000  0.4589090000000 1.0
C      1  0.4733880000000  0.5760000000000  0.4704540000000 1.0
C      1  0.4710410000000  0.5854590000000  0.4984630000000 1.0
C      1  0.4633310000000  0.5687220000000  0.5213430000000 1.0
C      1  0.4873390000000  0.5672900000000  0.5409660000000 1.0
C      1  0.5152650000000  0.5840710000000  0.5403760000000 1.0
C      1  0.5085000000000  0.5780070000000  0.5827610000000 1.0
C      1  0.5579270000000  0.5703420000000  0.5598850000000 1.0
C      1  0.5790250000000  0.5707110000000  0.5106970000000 1.0
C      1  0.5652010000000  0.5701900000000  0.4584110000000 1.0
C      1  0.5230160000000  0.5689720000000  0.4270970000000 1.0
C      1  0.4673110000000  0.5699700000000  0.4271930000000 1.0
C      1  0.4251730000000  0.5736520000000  0.4610260000000 1.0
C      1  0.4208430000000  0.5779200000000  0.5144260000000 1.0
C      1  0.4511870000000  0.5800780000000  0.5617480000000 1.0
C      1  0.4690840000000  0.4729470000000  0.5828890000000 1.0
C      1  0.5269220000000  0.4660100000000  0.5936790000000 1.0
C      1  0.5778560000000  0.4672830000000  0.5512520000000 1.0
C      1  0.6029000000000  0.4758710000000  0.4692810000000 1.0
C      1  0.5668100000000  0.4646300000000  0.4344640000000 1.0
C      1  0.4987560000000  0.4730750000000  0.4098960000000 1.0
C      1  0.4472730000000  0.4661820000000  0.4253180000000 1.0
C      1  0.4202840000000  0.4624160000000  0.4723320000000 1.0
C      1  0.4059900000000  0.4604600000000  0.5266850000000 1.0
C      1  0.4965170000000  0.4832890000000  0.5965950000000 1.0
C      1  0.5456120000000  0.4863240000000  0.6075040000000 1.0
C      1  0.5877560000000  0.4777150000000  0.5245570000000 1.0
C      1  0.5802610000000  0.4854900000000  0.4500180000000 1.0
C      1  0.5408450000000  0.4721480000000  0.4235070000000 1.0
C      1  0.4690420000000  0.4837030000000  0.4106960000000 1.0
C      1  0.4230290000000  0.4821470000000  0.4463450000000 1.0
C      1  0.4096400000000  0.4778870000000  0.5001460000000 1.0
C      1  0.4049290000000  0.4705210000000  0.5538740000000 1.0
C      1  0.5063750000000  0.4443810000000  0.4020550000000 1.0
C      1  0.4412370000000  0.4408190000000  0.4107290000000 1.0
C      1  0.4041030000000  0.4382830000000  0.4671300000000 1.0
C      1  0.4137460000000  0.4324890000000  0.5328570000000 1.0
C      1  0.4617410000000  0.4443390000000  0.5873070000000 1.0
C      1  0.5324160000000  0.4356700000000  0.5950710000000 1.0
C      1  0.5924430000000  0.4421910000000  0.5564630000000 1.0
C      1  0.6008730000000  0.4495960000000  0.4846710000000 1.0
C      1  0.5748040000000  0.4378810000000  0.4256540000000 1.0
C      1  0.4753800000000  0.5037200000000  0.4315280000000 1.0
C      1  0.4398900000000  0.5032060000000  0.4582060000000 1.0
C      1  0.4306320000000  0.4996330000000  0.5055360000000 1.0
C      1  0.4523610000000  0.5017170000000  0.5538250000000 1.0
C      1  0.4985810000000  0.5047850000000  0.5754900000000 1.0
C      1  0.5431910000000  0.5004980000000  0.5629640000000 1.0
C      1  0.5658400000000  0.4967180000000  0.5170400000000 1.0
C      1  0.5571360000000  0.4960400000000  0.4667170000000 1.0
C      1  0.5255020000000  0.4964320000000  0.4355740000000 1.0
C      1  0.6054540000000  0.5366650000000  0.5344210000000 1.0
C      1  0.6012670000000  0.5360280000000  0.4622550000000 1.0
C      1  0.5534030000000  0.5356400000000  0.4046230000000 1.0
C      1  0.4819380000000  0.5391220000000  0.3908690000000 1.0
C      1  0.4102280000000  0.5316970000000  0.4299570000000 1.0
C      1  0.3882050000000  0.5413930000000  0.5006230000000 1.0
C      1  0.4191040000000  0.5405600000000  0.5691660000000 1.0
C      1  0.4830500000000  0.5478600000000  0.6102410000000 1.0
C      1  0.5614700000000  0.5328240000000  0.5941500000000 1.0
C      1  0.6170160000000  0.5093730000000  0.5332480000000 1.0
C      1  0.6162040000000  0.5154680000000  0.4487050000000 1.0
C      1  0.5493940000000  0.5093130000000  0.3910060000000 1.0
C      1  0.4780460000000  0.5147580000000  0.3735310000000 1.0
C      1  0.3997630000000  0.5026960000000  0.4394250000000 1.0
C      1  0.3785500000000  0.5148790000000  0.5125160000000 1.0
C      1  0.4178510000000  0.5119870000000  0.5791640000000 1.0
C      1  0.4789200000000  0.5214620000000  0.6261820000000 1.0
C      1  0.5626170000000  0.5014330000000  0.5867610000000 1.0
C      1  0.5731000000000  0.5484710000000  0.5723850000000 1.0
C      1  0.5965810000000  0.5477840000000  0.5093610000000 1.0
C      1  0.5815080000000  0.5497990000000  0.4460340000000 1.0
C      1  0.5275320000000  0.5492060000000  0.4067160000000 1.0
C      1  0.4586490000000  0.5516470000000  0.4061160000000 1.0
C      1  0.4079400000000  0.5506060000000  0.4536570000000 1.0
C      1  0.4041600000000  0.5555870000000  0.5210510000000 1.0
C      1  0.4430160000000  0.5559170000000  0.5768040000000 1.0
C      1  0.5101020000000  0.5559290000000  0.6021870000000 1.0
C      1  0.5952020000000  0.4514130000000  0.5130120000000 1.0
C      1  0.5823670000000  0.4198950000000  0.4463840000000 1.0
C      1  0.5335040000000  0.4458740000000  0.4120570000000 1.0
C      1  0.4635830000000  0.4244440000000  0.4077790000000 1.0
C      1  0.4033520000000  0.4291570000000  0.4412140000000 1.0
C      1  0.4228840000000  0.4166180000000  0.5106840000000 1.0
C      1  0.4449690000000  0.4421650000000  0.5628640000000 1.0
C      1  0.5102080000000  0.4199850000000  0.5835420000000 1.0
C      1  0.5763410000000  0.4221650000000  0.5658130000000 1.0
C      1  0.4982250000000  0.4252430000000  0.4443490000000 1.0
C      1  0.4781490000000  0.4115970000000  0.4634010000000 1.0
C      1  0.4581790000000  0.4250610000000  0.4799810000000 1.0
C      1  0.4530790000000  0.4159940000000  0.5081370000000 1.0
C      1  0.4924870000000  0.4371960000000  0.5440770000000 1.0
C      1  0.5128100000000  0.4169270000000  0.5529770000000 1.0
C      1  0.5401290000000  0.4266180000000  0.5412420000000 1.0
C      1  0.5451610000000  0.4181800000000  0.5126050000000 1.0
C      1  0.5264960000000  0.4162550000000  0.4561200000000 1.0
C      1  0.4957230000000  0.4650050000000  0.5561540000000 1.0
C      1  0.5268300000000  0.4721330000000  0.5636280000000 1.0
C      1  0.5450160000000  0.4572430000000  0.5445710000000 1.0
C      1  0.5598550000000  0.4357540000000  0.4930050000000 1.0
C      1  0.5498600000000  0.4345780000000  0.4612400000000 1.0
C      1  0.4935770000000  0.4567270000000  0.4430920000000 1.0
C      1  0.4641500000000  0.4588000000000  0.4482300000000 1.0
C      1  0.4511950000000  0.4539970000000  0.4743650000000 1.0
C      1  0.4428190000000  0.4698330000000  0.5482750000000 1.0
C      1  0.4140930000000  0.5352250000000  0.5398410000000 1.0
C      1  0.4631770000000  0.5371330000000  0.5882660000000 1.0
C      1  0.5304530000000  0.5322830000000  0.5983330000000 1.0
C      1  0.5830770000000  0.5276970000000  0.5532050000000 1.0
C      1  0.5922810000000  0.5265030000000  0.4892410000000 1.0
C      1  0.5658790000000  0.5288210000000  0.4314870000000 1.0
C      1  0.5064840000000  0.5287500000000  0.4060360000000 1.0
C      1  0.4379770000000  0.5305730000000  0.4161360000000 1.0
C      1  0.4027300000000  0.5315900000000  0.4760620000000 1.0
C      1  0.4675530000000  0.6136150000000  0.5018210000000 1.0
C      1  0.4689410000000  0.6227480000000  0.5283210000000 1.0
C      1  0.4853440000000  0.6171280000000  0.5506010000000 1.0
C      1  0.5122480000000  0.6134780000000  0.5401650000000 1.0
C      1  0.5207580000000  0.6266100000000  0.5172330000000 1.0
C      1  0.5334240000000  0.6175170000000  0.4943570000000 1.0
C      1  0.5236500000000  0.6277090000000  0.4704100000000 1.0
C      1  0.4983650000000  0.6185190000000  0.4633980000000 1.0
C      1  0.4781320000000  0.6278300000000  0.4803740000000 1.0
C      1  0.5030290000000  0.5021050000000  0.3676820000000 1.0
C      1  0.4355660000000  0.5112760000000  0.3948430000000 1.0
C      1  0.3832890000000  0.4926970000000  0.4917300000000 1.0
C      1  0.3987520000000  0.4970440000000  0.5611380000000 1.0
C      1  0.4517840000000  0.5135860000000  0.6159100000000 1.0
C      1  0.5280810000000  0.5088670000000  0.6189710000000 1.0
C      1  0.6097470000000  0.5019990000000  0.5617080000000 1.0
C      1  0.6251440000000  0.4969240000000  0.4695960000000 1.0
C      1  0.5722140000000  0.4953040000000  0.4024910000000 1.0
C      1  0.5861440000000  0.4879580000000  0.5719330000000 1.0
C      1  0.6102040000000  0.5029340000000  0.4964160000000 1.0
C      1  0.5857450000000  0.5057470000000  0.4272510000000 1.0
C      1  0.5175820000000  0.5026430000000  0.3925620000000 1.0
C      1  0.4579240000000  0.4971250000000  0.3861830000000 1.0
C      1  0.3851870000000  0.5095010000000  0.4654120000000 1.0
C      1  0.3948950000000  0.5137400000000  0.5376120000000 1.0
C      1  0.4424740000000  0.4991480000000  0.5918710000000 1.0
C      1  0.4996620000000  0.4992800000000  0.6224700000000 1.0
C      1  0.5584150000000  0.5154530000000  0.5391260000000 1.0
C      1  0.5634790000000  0.5128060000000  0.4918850000000 1.0
C      1  0.5434700000000  0.5169830000000  0.4496610000000 1.0
C      1  0.5014210000000  0.5159310000000  0.4340940000000 1.0
C      1  0.4549060000000  0.5210510000000  0.4408290000000 1.0
C      1  0.4307440000000  0.5174500000000  0.4817600000000 1.0
C      1  0.4384940000000  0.5188350000000  0.5291970000000 1.0
C      1  0.4760150000000  0.5204990000000  0.5654450000000 1.0
C      1  0.5229160000000  0.5193390000000  0.5711630000000 1.0
C      1  0.5378500000000  0.4679460000000  0.4675750000000 1.0
C      1  0.5077760000000  0.4696270000000  0.4658430000000 1.0
C      1  0.4927100000000  0.4754840000000  0.4894900000000 1.0
C      1  0.4637780000000  0.4725050000000  0.4939820000000 1.0
C      1  0.4619630000000  0.4652710000000  0.5235520000000 1.0
C      1  0.4858830000000  0.4810670000000  0.5341860000000 1.0
C      1  0.5068390000000  0.4817360000000  0.5136430000000 1.0
C      1  0.5325520000000  0.4676430000000  0.5183680000000 1.0
C      1  0.5482540000000  0.4628580000000  0.4949260000000 1.0
C      1  0.4621720000000  0.3883770000000  0.5139820000000 1.0
C      1  0.4785350000000  0.3856000000000  0.5362100000000 1.0
C      1  0.5052750000000  0.3893710000000  0.5424350000000 1.0
C      1  0.5218560000000  0.3787210000000  0.5225930000000 1.0
C      1  0.5323840000000  0.3947720000000  0.5024670000000 1.0
C      1  0.5255870000000  0.3925500000000  0.4737260000000 1.0
C      1  0.5075430000000  0.3726590000000  0.4651380000000 1.0
C      1  0.4823010000000  0.3835810000000  0.4697690000000 1.0
C      1  0.4679590000000  0.3736700000000  0.4913270000000 1.0
C      1  0.5383710000000  0.5300100000000  0.4960530000000 1.0
C      1  0.5253480000000  0.5413310000000  0.4706240000000 1.0
C      1  0.4988010000000  0.5312110000000  0.4606570000000 1.0
C      1  0.4710030000000  0.5442030000000  0.4630420000000 1.0
C      1  0.4527440000000  0.5359390000000  0.4855220000000 1.0
C      1  0.4585410000000  0.5384980000000  0.5134940000000 1.0
C      1  0.4914150000000  0.5376720000000  0.5433220000000 1.0
C      1  0.5193210000000  0.5350030000000  0.5466550000000 1.0
C      1  0.5387190000000  0.5417320000000  0.5240230000000 1.0
C      1  0.4688650000000  0.4360740000000  0.5260240000000 1.0
C      1  0.4844130000000  0.5268020000000  0.5176310000000 1.0
END
