TITL C-3578197-9521-510 3.88193374431824e-07 125000 -681.770159595546 0 0 108 (C1) n - 1
REM
REM in /home/bkarasulu/work/CARBON/AIRSS/Generating-Clusters/EDIP-Nigel-Params/with-SteepDescent/Higher-Symm/SD-CG/HFTN-CG
REM
REM
REM
REM
REM
REM ./C.cell (12c818d87b63d06a65506943cc24bca4)
REM
REM compiler GCC version 9.2.1 20190827 (Red Hat 9.2.1-1)
REM options -cpp -mtune=generic -march=x86-64 -g -O0 -fpre-include=/usr/include/finclude/math-vector-fortran.h
REM seed 785061532 323696336 1794866765 871467142 -1487967409 1741756969 -206432179 574302845 1441245231 1059827761 769611004 -1320823864 -1943587656 281799873 1307261196 -1529454490 -1614690257 1178260360 -567270599 -1113390222 -1024234506 604296057 1983272898 -1474516739 -1722866498 -1750064569 -23219536 -748600541 995138972 -117250561 -758505319 -1254786512 -1219539223
REM
CELL 1.54180   50.00000   50.00000   50.00000   90.00000   90.00000   90.00000
LATT -1
SFAC C  
C      1  0.4190700000000  0.5295020000000  0.4586640000000 1.0
C      1  0.4403120000000  0.5279610000000  0.5555120000000 1.0
C      1  0.5403370000000  0.5305640000000  0.5775780000000 1.0
C      1  0.5830320000000  0.5290870000000  0.4903580000000 1.0
C      1  0.5120900000000  0.5335640000000  0.4250210000000 1.0
C      1  0.4446480000000  0.4565600000000  0.5340990000000 1.0
C      1  0.5184850000000  0.4591860000000  0.5810020000000 1.0
C      1  0.5723400000000  0.4542130000000  0.5091270000000 1.0
C      1  0.5314660000000  0.4576810000000  0.4319310000000 1.0
C      1  0.4376920000000  0.4571740000000  0.4463700000000 1.0
C      1  0.5823800000000  0.4753550000000  0.5248500000000 1.0
C      1  0.5486900000000  0.4794750000000  0.4282420000000 1.0
C      1  0.4443940000000  0.4775900000000  0.4287890000000 1.0
C      1  0.4325230000000  0.4833440000000  0.5312170000000 1.0
C      1  0.5039100000000  0.4806370000000  0.5914350000000 1.0
C      1  0.5275340000000  0.4227230000000  0.4820670000000 1.0
C      1  0.4997030000000  0.4135230000000  0.4494970000000 1.0
C      1  0.4726990000000  0.4187490000000  0.4896070000000 1.0
C      1  0.4840310000000  0.4252400000000  0.5353740000000 1.0
C      1  0.5144320000000  0.4194520000000  0.5317130000000 1.0
C      1  0.5489440000000  0.5632350000000  0.4786570000000 1.0
C      1  0.4805380000000  0.5588530000000  0.4551050000000 1.0
C      1  0.4545150000000  0.5766420000000  0.5018820000000 1.0
C      1  0.4910510000000  0.5807370000000  0.5481300000000 1.0
C      1  0.5415710000000  0.5716230000000  0.5214820000000 1.0
C      1  0.5679120000000  0.5679440000000  0.5117330000000 1.0
C      1  0.5294110000000  0.5722460000000  0.4551960000000 1.0
C      1  0.4505750000000  0.5648190000000  0.4538090000000 1.0
C      1  0.4464950000000  0.5683190000000  0.5286500000000 1.0
C      1  0.5155420000000  0.5649840000000  0.5565160000000 1.0
C      1  0.5132740000000  0.5437840000000  0.5772610000000 1.0
C      1  0.5788640000000  0.5418420000000  0.5164200000000 1.0
C      1  0.5333390000000  0.5456980000000  0.4404610000000 1.0
C      1  0.4395690000000  0.5403510000000  0.4406500000000 1.0
C      1  0.4311820000000  0.5427150000000  0.5308690000000 1.0
C      1  0.5350060000000  0.5041800000000  0.5703720000000 1.0
C      1  0.5747900000000  0.5020370000000  0.4910100000000 1.0
C      1  0.5128020000000  0.5048780000000  0.4251360000000 1.0
C      1  0.4134960000000  0.5022870000000  0.4609290000000 1.0
C      1  0.4451810000000  0.4993870000000  0.5517640000000 1.0
C      1  0.5690720000000  0.4566230000000  0.4798800000000 1.0
C      1  0.5022860000000  0.4577700000000  0.4260240000000 1.0
C      1  0.4308680000000  0.4608300000000  0.4744950000000 1.0
C      1  0.4619370000000  0.4567900000000  0.5581890000000 1.0
C      1  0.5420710000000  0.4607130000000  0.5644450000000 1.0
C      1  0.4706040000000  0.5274180000000  0.4992960000000 1.0
C      1  0.4933170000000  0.5172640000000  0.5403550000000 1.0
C      1  0.5364620000000  0.5189480000000  0.5349080000000 1.0
C      1  0.5405710000000  0.5176950000000  0.4825760000000 1.0
C      1  0.4893020000000  0.5109370000000  0.4550340000000 1.0
C      1  0.5240650000000  0.5908680000000  0.5087230000000 1.0
C      1  0.4999600000000  0.5794830000000  0.4670330000000 1.0
C      1  0.4848300000000  0.6038130000000  0.4743010000000 1.0
C      1  0.4735790000000  0.5988550000000  0.5001450000000 1.0
C      1  0.4960330000000  0.5969420000000  0.5219400000000 1.0
C      1  0.5504390000000  0.4355080000000  0.5530030000000 1.0
C      1  0.5602020000000  0.4332400000000  0.4649450000000 1.0
C      1  0.4870510000000  0.4410010000000  0.4467780000000 1.0
C      1  0.4303610000000  0.4347770000000  0.4882850000000 1.0
C      1  0.4782880000000  0.4323210000000  0.5639810000000 1.0
C      1  0.4761650000000  0.4481600000000  0.4947220000000 1.0
C      1  0.4870470000000  0.4528900000000  0.5220870000000 1.0
C      1  0.5181020000000  0.4559450000000  0.5171560000000 1.0
C      1  0.5197160000000  0.4506360000000  0.4871290000000 1.0
C      1  0.4939110000000  0.4584410000000  0.4741220000000 1.0
C      1  0.4489570000000  0.4180420000000  0.4704620000000 1.0
C      1  0.4631140000000  0.4117760000000  0.5180330000000 1.0
C      1  0.5263070000000  0.4186200000000  0.5589340000000 1.0
C      1  0.5362600000000  0.4162760000000  0.5101410000000 1.0
C      1  0.5256820000000  0.4112830000000  0.4399630000000 1.0
C      1  0.4610440000000  0.4836930000000  0.5703260000000 1.0
C      1  0.5555370000000  0.4857950000000  0.5636360000000 1.0
C      1  0.5741710000000  0.4837110000000  0.4692360000000 1.0
C      1  0.4926840000000  0.4850450000000  0.4202120000000 1.0
C      1  0.4170380000000  0.4848660000000  0.4823270000000 1.0
C      1  0.5234970000000  0.4896170000000  0.5177700000000 1.0
C      1  0.5233270000000  0.4947180000000  0.4883760000000 1.0
C      1  0.4955760000000  0.4901990000000  0.4773820000000 1.0
C      1  0.4786000000000  0.4982570000000  0.5004330000000 1.0
C      1  0.4935010000000  0.4907100000000  0.5252760000000 1.0
C      1  0.5236930000000  0.5436140000000  0.4881870000000 1.0
C      1  0.4880630000000  0.5355300000000  0.4734790000000 1.0
C      1  0.4370290000000  0.5689100000000  0.4797170000000 1.0
C      1  0.4710560000000  0.5593390000000  0.5427600000000 1.0
C      1  0.5233230000000  0.5483740000000  0.5309840000000 1.0
C      1  0.4217400000000  0.5438490000000  0.4840970000000 1.0
C      1  0.4640020000000  0.5422070000000  0.5670460000000 1.0
C      1  0.5638540000000  0.5401530000000  0.5642230000000 1.0
C      1  0.5717830000000  0.5444070000000  0.4674430000000 1.0
C      1  0.4858430000000  0.5456140000000  0.4279880000000 1.0
C      1  0.5062760000000  0.4328570000000  0.5773910000000 1.0
C      1  0.5558890000000  0.4344100000000  0.5234420000000 1.0
C      1  0.5430220000000  0.4328750000000  0.4418510000000 1.0
C      1  0.4559830000000  0.4343340000000  0.4457020000000 1.0
C      1  0.4394300000000  0.4316880000000  0.5177140000000 1.0
C      1  0.4359590000000  0.5276770000000  0.5051960000000 1.0
C      1  0.4887830000000  0.5242900000000  0.5694540000000 1.0
C      1  0.5664500000000  0.5243750000000  0.5393610000000 1.0
C      1  0.5524720000000  0.5247210000000  0.4535560000000 1.0
C      1  0.4631080000000  0.5248410000000  0.4289100000000 1.0
C      1  0.5752800000000  0.4949650000000  0.5439930000000 1.0
C      1  0.5633890000000  0.4965660000000  0.4448500000000 1.0
C      1  0.4652180000000  0.4949270000000  0.4231500000000 1.0
C      1  0.4259770000000  0.4984440000000  0.5068370000000 1.0
C      1  0.4830590000000  0.4976680000000  0.5840080000000 1.0
C      1  0.4862030000000  0.5406900000000  0.5232390000000 1.0
C      1  0.4992770000000  0.4073580000000  0.4778340000000 1.0
C      1  0.5054330000000  0.5690580000000  0.4960070000000 1.0
END
