TITL C-3578199-7832-394 -9.66025512319817e-07 125000 -874.397521126632 0 0 140 (C1) n - 1
REM
REM in /home/bkarasulu/work/CARBON/AIRSS/Generating-Clusters/EDIP-Nigel-Params/with-SteepDescent/Higher-Symm/SD-CG/HFTN-CG
REM
REM
REM
REM
REM
REM ./C.cell (12c818d87b63d06a65506943cc24bca4)
REM
REM compiler GCC version 9.2.1 20190827 (Red Hat 9.2.1-1)
REM options -cpp -mtune=generic -march=x86-64 -g -O0 -fpre-include=/usr/include/finclude/math-vector-fortran.h
REM seed -1758675259 2061809458 -2090225866 -1947348999 -39387700 -943391430 1741055845 -813051094 -456942882 -661240789 1590356928 1837377200 -327978038 1654173590 -2129790712 -674311347 -541402649 -1597879106 1238858580 -1445440245 1768480532 -4368498 -589980027 1157846626 1715181106 291580614 -89867119 -1322730868 -311046285 733996658 -1951798809 -1501657055 -502751959
REM
CELL 1.54180   50.00000   50.00000   50.00000   90.00000   90.00000   90.00000
LATT -1
SFAC C  
C      1  0.4317670000000  0.4752580000000  0.5588630000000 1.0
C      1  0.4249170000000  0.4745880000000  0.4546840000000 1.0
C      1  0.5268490000000  0.4764550000000  0.4052070000000 1.0
C      1  0.5928330000000  0.4738510000000  0.4927660000000 1.0
C      1  0.5328880000000  0.4762440000000  0.5816570000000 1.0
C      1  0.5044610000000  0.4803600000000  0.5875300000000 1.0
C      1  0.4182540000000  0.4807960000000  0.5335480000000 1.0
C      1  0.4455950000000  0.4785810000000  0.4338190000000 1.0
C      1  0.5517070000000  0.4815010000000  0.4199370000000 1.0
C      1  0.5851110000000  0.4796420000000  0.5210090000000 1.0
C      1  0.5445970000000  0.5632420000000  0.5562130000000 1.0
C      1  0.4476400000000  0.5701600000000  0.5760120000000 1.0
C      1  0.4292110000000  0.5623910000000  0.4814900000000 1.0
C      1  0.4995260000000  0.5695260000000  0.4222120000000 1.0
C      1  0.5746460000000  0.5625500000000  0.4736800000000 1.0
C      1  0.4104590000000  0.5082740000000  0.5281320000000 1.0
C      1  0.4495530000000  0.5053450000000  0.4245680000000 1.0
C      1  0.5602230000000  0.5088180000000  0.4237820000000 1.0
C      1  0.5816840000000  0.5067980000000  0.5293590000000 1.0
C      1  0.4960560000000  0.5075940000000  0.5934880000000 1.0
C      1  0.3909780000000  0.4929580000000  0.4834620000000 1.0
C      1  0.4835880000000  0.4908650000000  0.3882870000000 1.0
C      1  0.6034490000000  0.4914490000000  0.4472350000000 1.0
C      1  0.5754510000000  0.4935990000000  0.5778320000000 1.0
C      1  0.4480740000000  0.4910500000000  0.5999000000000 1.0
C      1  0.5494800000000  0.4996830000000  0.5915770000000 1.0
C      1  0.4274300000000  0.4974380000000  0.5787680000000 1.0
C      1  0.4058560000000  0.4981460000000  0.4577640000000 1.0
C      1  0.5135590000000  0.5000220000000  0.3911120000000 1.0
C      1  0.6074310000000  0.4969310000000  0.4776600000000 1.0
C      1  0.5266980000000  0.4266560000000  0.4973380000000 1.0
C      1  0.5079770000000  0.4232350000000  0.5244670000000 1.0
C      1  0.4765760000000  0.4205040000000  0.5172460000000 1.0
C      1  0.4737560000000  0.4183690000000  0.4858370000000 1.0
C      1  0.5085560000000  0.4303390000000  0.4720980000000 1.0
C      1  0.5186780000000  0.4283550000000  0.5695780000000 1.0
C      1  0.4370430000000  0.4275430000000  0.5419280000000 1.0
C      1  0.4410160000000  0.4285210000000  0.4545750000000 1.0
C      1  0.5256030000000  0.4338420000000  0.4298250000000 1.0
C      1  0.5720320000000  0.4309950000000  0.5024300000000 1.0
C      1  0.4687090000000  0.5117260000000  0.5987090000000 1.0
C      1  0.3988830000000  0.5133110000000  0.5029850000000 1.0
C      1  0.4671060000000  0.5102970000000  0.4028380000000 1.0
C      1  0.5861880000000  0.5121780000000  0.4351690000000 1.0
C      1  0.5788000000000  0.5132260000000  0.5564910000000 1.0
C      1  0.5824280000000  0.5273400000000  0.5098610000000 1.0
C      1  0.5109950000000  0.5299120000000  0.5825780000000 1.0
C      1  0.4251510000000  0.5299450000000  0.5406970000000 1.0
C      1  0.4433860000000  0.5259950000000  0.4436730000000 1.0
C      1  0.5386010000000  0.5284830000000  0.4268600000000 1.0
C      1  0.5351070000000  0.5834610000000  0.5146930000000 1.0
C      1  0.5116690000000  0.5871860000000  0.5324350000000 1.0
C      1  0.4679270000000  0.5767990000000  0.5082670000000 1.0
C      1  0.4747340000000  0.5779150000000  0.4769350000000 1.0
C      1  0.5292460000000  0.5830920000000  0.4856490000000 1.0
C      1  0.5937980000000  0.5440520000000  0.4648760000000 1.0
C      1  0.5552810000000  0.5471920000000  0.5768080000000 1.0
C      1  0.4412960000000  0.5440420000000  0.5861230000000 1.0
C      1  0.4085770000000  0.5455590000000  0.4723270000000 1.0
C      1  0.4960960000000  0.5450050000000  0.4073900000000 1.0
C      1  0.4571880000000  0.4562910000000  0.4184850000000 1.0
C      1  0.5671640000000  0.4590600000000  0.4306460000000 1.0
C      1  0.5781770000000  0.4588630000000  0.5403000000000 1.0
C      1  0.4858420000000  0.4578150000000  0.5900110000000 1.0
C      1  0.4088660000000  0.4587060000000  0.5168680000000 1.0
C      1  0.5388010000000  0.5234110000000  0.5755000000000 1.0
C      1  0.4394830000000  0.5222390000000  0.5658900000000 1.0
C      1  0.4238540000000  0.5212700000000  0.4656140000000 1.0
C      1  0.5119000000000  0.5211500000000  0.4140740000000 1.0
C      1  0.5880470000000  0.5205420000000  0.4811380000000 1.0
C      1  0.4917380000000  0.5517770000000  0.5156010000000 1.0
C      1  0.4787500000000  0.5367200000000  0.4925560000000 1.0
C      1  0.4971750000000  0.5317020000000  0.4693530000000 1.0
C      1  0.5266560000000  0.5341720000000  0.4824040000000 1.0
C      1  0.5221660000000  0.5409560000000  0.5127780000000 1.0
C      1  0.5180550000000  0.5749040000000  0.5596390000000 1.0
C      1  0.4304440000000  0.5756580000000  0.5549870000000 1.0
C      1  0.4498160000000  0.5709010000000  0.4626430000000 1.0
C      1  0.5260110000000  0.5754420000000  0.4267890000000 1.0
C      1  0.5819030000000  0.5738340000000  0.4981030000000 1.0
C      1  0.4589730000000  0.4306600000000  0.4327820000000 1.0
C      1  0.5522310000000  0.4353520000000  0.4386000000000 1.0
C      1  0.5708000000000  0.4325270000000  0.5303290000000 1.0
C      1  0.4921810000000  0.4316040000000  0.5782860000000 1.0
C      1  0.4206070000000  0.4319030000000  0.5193870000000 1.0
C      1  0.5406310000000  0.4538270000000  0.5058680000000 1.0
C      1  0.5053380000000  0.4503510000000  0.5404780000000 1.0
C      1  0.4614530000000  0.4484660000000  0.5201930000000 1.0
C      1  0.4693940000000  0.4487910000000  0.4716360000000 1.0
C      1  0.5201150000000  0.4571340000000  0.4604340000000 1.0
C      1  0.5446670000000  0.5592100000000  0.4687250000000 1.0
C      1  0.5467530000000  0.5587960000000  0.5264450000000 1.0
C      1  0.4726700000000  0.5586180000000  0.5682030000000 1.0
C      1  0.4379920000000  0.5683760000000  0.5086210000000 1.0
C      1  0.4856030000000  0.5522630000000  0.4440120000000 1.0
C      1  0.4927830000000  0.4700420000000  0.4606970000000 1.0
C      1  0.5395370000000  0.4714020000000  0.4810580000000 1.0
C      1  0.5265600000000  0.4665760000000  0.5295780000000 1.0
C      1  0.4784130000000  0.4643410000000  0.5372790000000 1.0
C      1  0.4577020000000  0.4628110000000  0.4938640000000 1.0
C      1  0.4602570000000  0.4106120000000  0.5421180000000 1.0
C      1  0.4453030000000  0.4120690000000  0.4774450000000 1.0
C      1  0.5081570000000  0.4171070000000  0.4448520000000 1.0
C      1  0.5535880000000  0.4155910000000  0.4874450000000 1.0
C      1  0.5256140000000  0.4119030000000  0.5472460000000 1.0
C      1  0.5929740000000  0.4642280000000  0.4422590000000 1.0
C      1  0.5739240000000  0.4661430000000  0.5676330000000 1.0
C      1  0.4584450000000  0.4641030000000  0.5948060000000 1.0
C      1  0.3967310000000  0.4655270000000  0.4920380000000 1.0
C      1  0.4815720000000  0.4626930000000  0.4025130000000 1.0
C      1  0.4650360000000  0.5138870000000  0.5042290000000 1.0
C      1  0.4929750000000  0.5029670000000  0.4603530000000 1.0
C      1  0.5389610000000  0.5070310000000  0.4813810000000 1.0
C      1  0.5160540000000  0.5172440000000  0.5294590000000 1.0
C      1  0.4831280000000  0.5172100000000  0.5318730000000 1.0
C      1  0.4685260000000  0.5091570000000  0.5598170000000 1.0
C      1  0.4359930000000  0.5074320000000  0.4929340000000 1.0
C      1  0.4930760000000  0.5009490000000  0.4303990000000 1.0
C      1  0.5649440000000  0.5050690000000  0.4671330000000 1.0
C      1  0.5413110000000  0.5105290000000  0.5466980000000 1.0
C      1  0.4999770000000  0.6133630000000  0.5243890000000 1.0
C      1  0.4748390000000  0.6080480000000  0.5093670000000 1.0
C      1  0.4841280000000  0.6063010000000  0.4795130000000 1.0
C      1  0.5141490000000  0.6093180000000  0.4815450000000 1.0
C      1  0.5173130000000  0.6258360000000  0.5049970000000 1.0
C      1  0.4237760000000  0.5590390000000  0.5332460000000 1.0
C      1  0.4557440000000  0.5520820000000  0.4412120000000 1.0
C      1  0.5418340000000  0.5558900000000  0.4384780000000 1.0
C      1  0.5748460000000  0.5544940000000  0.5171440000000 1.0
C      1  0.5002600000000  0.5564230000000  0.5748050000000 1.0
C      1  0.4736280000000  0.4140940000000  0.5665140000000 1.0
C      1  0.4258910000000  0.4156130000000  0.4972330000000 1.0
C      1  0.4827640000000  0.4158260000000  0.4334230000000 1.0
C      1  0.5586290000000  0.4186630000000  0.4601140000000 1.0
C      1  0.5530290000000  0.4146340000000  0.5425710000000 1.0
C      1  0.4329670000000  0.4774010000000  0.4861880000000 1.0
C      1  0.5026510000000  0.4705810000000  0.4228370000000 1.0
C      1  0.5700180000000  0.4746490000000  0.4712080000000 1.0
C      1  0.5420200000000  0.4801490000000  0.5511530000000 1.0
C      1  0.4633480000000  0.4784870000000  0.5593410000000 1.0
END
