TITL C-3577088-510-19 -1.66495341991864e-07 125000 -186.362616798188 0 0 32 (C1) n - 1
REM
REM in /home/bkarasulu/work/CARBON/AIRSS/Generating-Clusters/EDIP-Nigel-Params/with-SteepDescent/Higher-Symm/SD-CG/HFTN-CG
REM
REM
REM
REM
REM
REM ./C.cell (12c818d87b63d06a65506943cc24bca4)
REM
REM compiler GCC version 9.2.1 20190827 (Red Hat 9.2.1-1)
REM options -cpp -mtune=generic -march=x86-64 -g -O0 -fpre-include=/usr/include/finclude/math-vector-fortran.h
REM seed 1606618618 1751616259 -1101404819 -466901179 -1779110126 1315101917 118734779 1239783549 -122137110 -1800454400 -2073794901 959526349 -731490563 1868200005 -294518012 -1771097885 -976593027 294160402 -801919563 1222397277 -1665202208 1569553137 -419136548 -2060915730 -1833953933 1494060586 -530131643 -1730767541 -920684962 -214270213 179945004 -833684409 237667897
REM
CELL 1.54180   50.00000   50.00000   50.00000   90.00000   90.00000   90.00000
LATT -1
SFAC C  
C      1  0.4632660000000  0.5428160000000  0.5067770000000 1.0
C      1  0.4629770000000  0.5189260000000  0.4906600000000 1.0
C      1  0.4409670000000  0.5093480000000  0.4763300000000 1.0
C      1  0.5222820000000  0.5362300000000  0.4971230000000 1.0
C      1  0.4931180000000  0.5715800000000  0.4808070000000 1.0
C      1  0.5672250000000  0.5030860000000  0.4741590000000 1.0
C      1  0.5147300000000  0.5555680000000  0.4738010000000 1.0
C      1  0.5137270000000  0.4884460000000  0.5490970000000 1.0
C      1  0.4418890000000  0.4819930000000  0.4784590000000 1.0
C      1  0.4456630000000  0.4614960000000  0.4975650000000 1.0
C      1  0.5056120000000  0.5457660000000  0.5200850000000 1.0
C      1  0.4922720000000  0.5062790000000  0.5522560000000 1.0
C      1  0.4381810000000  0.4697650000000  0.5237990000000 1.0
C      1  0.5699040000000  0.5255320000000  0.4883000000000 1.0
C      1  0.5203920000000  0.4916340000000  0.4708910000000 1.0
C      1  0.4935480000000  0.4784990000000  0.4742180000000 1.0
C      1  0.5164550000000  0.4763650000000  0.5242200000000 1.0
C      1  0.5480030000000  0.4840290000000  0.4688630000000 1.0
C      1  0.5063960000000  0.4969990000000  0.5058080000000 1.0
C      1  0.5050480000000  0.4502660000000  0.5189640000000 1.0
C      1  0.5134710000000  0.4363670000000  0.4936690000000 1.0
C      1  0.5524440000000  0.5445120000000  0.4980210000000 1.0
C      1  0.5546820000000  0.4572980000000  0.4698980000000 1.0
C      1  0.5424190000000  0.5643120000000  0.4786760000000 1.0
C      1  0.4851460000000  0.5624620000000  0.5064150000000 1.0
C      1  0.4584980000000  0.4884720000000  0.5298910000000 1.0
C      1  0.4908130000000  0.4489110000000  0.4774700000000 1.0
C      1  0.4742660000000  0.4948270000000  0.5036090000000 1.0
C      1  0.4880730000000  0.5260440000000  0.5315870000000 1.0
C      1  0.4715360000000  0.4489570000000  0.4992350000000 1.0
C      1  0.5390070000000  0.4404030000000  0.4832530000000 1.0
C      1  0.4679890000000  0.4928130000000  0.5560950000000 1.0
END
