TITL C-3577078-809-125 1.7891894988212e-06 125000 -753.644661428313 0 0 121 (C1) n - 1
REM
REM in /home/bkarasulu/work/CARBON/AIRSS/Generating-Clusters/EDIP-Nigel-Params/with-SteepDescent/Higher-Symm/SD-CG/HFTN-CG
REM
REM
REM
REM
REM
REM ./C.cell (12c818d87b63d06a65506943cc24bca4)
REM
REM compiler GCC version 9.2.1 20190827 (Red Hat 9.2.1-1)
REM options -cpp -mtune=generic -march=x86-64 -g -O0 -fpre-include=/usr/include/finclude/math-vector-fortran.h
REM seed -1393184968 -1461624557 -79079494 1859299317 1419246633 -1154755828 -1907776546 1066560943 -1692250283 -527289469 -1789995582 -1181597095 -991987659 -965454741 1802231937 -1966630839 -1311584162 -2011875624 879149979 -186859782 1197337085 369438733 2041975393 -1333861691 369074354 1683068974 -2082391932 -889757796 530504982 2020268154 -1055431626 1623165445 31612588
REM
CELL 1.54180   50.00000   50.00000   50.00000   90.00000   90.00000   90.00000
LATT -1
SFAC C  
C      1  0.4404270000000  0.4320210000000  0.5265130000000 1.0
C      1  0.5050420000000  0.4322630000000  0.4339140000000 1.0
C      1  0.5515770000000  0.4342930000000  0.5365650000000 1.0
C      1  0.4373070000000  0.5243140000000  0.5089140000000 1.0
C      1  0.5138380000000  0.5201520000000  0.4444830000000 1.0
C      1  0.5389040000000  0.5249020000000  0.5416280000000 1.0
C      1  0.4446710000000  0.4870720000000  0.5018790000000 1.0
C      1  0.5214500000000  0.4879060000000  0.4513920000000 1.0
C      1  0.5259370000000  0.4910090000000  0.5411900000000 1.0
C      1  0.4822450000000  0.5001690000000  0.4788470000000 1.0
C      1  0.5323040000000  0.5062390000000  0.4962260000000 1.0
C      1  0.4830620000000  0.5052110000000  0.5177030000000 1.0
C      1  0.5783550000000  0.4853130000000  0.4468260000000 1.0
C      1  0.5046500000000  0.4872270000000  0.5939220000000 1.0
C      1  0.4129370000000  0.4839200000000  0.4571500000000 1.0
C      1  0.4985630000000  0.5712320000000  0.4576050000000 1.0
C      1  0.5558810000000  0.5922330000000  0.5247890000000 1.0
C      1  0.4613330000000  0.5921440000000  0.5339020000000 1.0
C      1  0.5163940000000  0.5820690000000  0.4757320000000 1.0
C      1  0.5296830000000  0.6013290000000  0.5303070000000 1.0
C      1  0.4664910000000  0.5832210000000  0.5082690000000 1.0
C      1  0.4521440000000  0.5501640000000  0.4503070000000 1.0
C      1  0.5728770000000  0.5576980000000  0.4893500000000 1.0
C      1  0.4763390000000  0.5581690000000  0.5649720000000 1.0
C      1  0.3991630000000  0.5106730000000  0.5257860000000 1.0
C      1  0.5264930000000  0.5123600000000  0.4029250000000 1.0
C      1  0.5699940000000  0.5133630000000  0.5707060000000 1.0
C      1  0.5290660000000  0.4178570000000  0.5437580000000 1.0
C      1  0.4447610000000  0.4143280000000  0.5034200000000 1.0
C      1  0.5226690000000  0.4154010000000  0.4497700000000 1.0
C      1  0.5203110000000  0.4259060000000  0.5066320000000 1.0
C      1  0.4811670000000  0.4205590000000  0.5142110000000 1.0
C      1  0.4948760000000  0.4223060000000  0.4755210000000 1.0
C      1  0.5415530000000  0.5306980000000  0.5099980000000 1.0
C      1  0.4657600000000  0.5315910000000  0.5199360000000 1.0
C      1  0.4881260000000  0.5245010000000  0.4618200000000 1.0
C      1  0.5287880000000  0.5613250000000  0.4957400000000 1.0
C      1  0.5115940000000  0.5789260000000  0.5399490000000 1.0
C      1  0.4807230000000  0.5566170000000  0.5052700000000 1.0
C      1  0.5666200000000  0.5410150000000  0.5773120000000 1.0
C      1  0.3939650000000  0.5381890000000  0.5201810000000 1.0
C      1  0.5318470000000  0.5403550000000  0.4041440000000 1.0
C      1  0.5542250000000  0.5224130000000  0.4502720000000 1.0
C      1  0.5152360000000  0.5238760000000  0.5681770000000 1.0
C      1  0.4291620000000  0.5196810000000  0.4780340000000 1.0
C      1  0.5998610000000  0.4878520000000  0.4919030000000 1.0
C      1  0.4564090000000  0.4905950000000  0.5855810000000 1.0
C      1  0.4426570000000  0.4870860000000  0.4163240000000 1.0
C      1  0.5124980000000  0.4572950000000  0.4211050000000 1.0
C      1  0.5603880000000  0.4584130000000  0.5505110000000 1.0
C      1  0.4222470000000  0.4550450000000  0.5277730000000 1.0
C      1  0.5778750000000  0.4769460000000  0.5357200000000 1.0
C      1  0.4274010000000  0.4750540000000  0.5491420000000 1.0
C      1  0.4915410000000  0.4755080000000  0.4135440000000 1.0
C      1  0.5157540000000  0.4625090000000  0.5809320000000 1.0
C      1  0.4214640000000  0.4604210000000  0.4735530000000 1.0
C      1  0.5578450000000  0.4643890000000  0.4478870000000 1.0
C      1  0.5457300000000  0.4203900000000  0.4663950000000 1.0
C      1  0.5040120000000  0.4207910000000  0.5573240000000 1.0
C      1  0.4469420000000  0.4187700000000  0.4747080000000 1.0
C      1  0.4655420000000  0.4462520000000  0.5679510000000 1.0
C      1  0.4561440000000  0.4450520000000  0.4354140000000 1.0
C      1  0.5745760000000  0.4465860000000  0.4940150000000 1.0
C      1  0.4980680000000  0.4778390000000  0.4684550000000 1.0
C      1  0.5298400000000  0.4826680000000  0.5126180000000 1.0
C      1  0.4689880000000  0.4782320000000  0.5172180000000 1.0
C      1  0.4560470000000  0.4246350000000  0.5505240000000 1.0
C      1  0.4765760000000  0.4234580000000  0.4354010000000 1.0
C      1  0.5644070000000  0.4250400000000  0.5117020000000 1.0
C      1  0.3969270000000  0.4916710000000  0.5027250000000 1.0
C      1  0.5484890000000  0.4938030000000  0.4095190000000 1.0
C      1  0.5509650000000  0.4949030000000  0.5833530000000 1.0
C      1  0.5240230000000  0.5468900000000  0.4305310000000 1.0
C      1  0.5490770000000  0.5498100000000  0.5568960000000 1.0
C      1  0.4183850000000  0.5478350000000  0.5106470000000 1.0
C      1  0.4986950000000  0.5032700000000  0.4072130000000 1.0
C      1  0.5783330000000  0.5052810000000  0.5439080000000 1.0
C      1  0.4211240000000  0.5035750000000  0.5442770000000 1.0
C      1  0.4826760000000  0.4962820000000  0.5762820000000 1.0
C      1  0.4360440000000  0.4950780000000  0.4424930000000 1.0
C      1  0.5823480000000  0.4967520000000  0.4724930000000 1.0
C      1  0.4020540000000  0.5048180000000  0.4761020000000 1.0
C      1  0.5690350000000  0.5065900000000  0.4275200000000 1.0
C      1  0.5259450000000  0.5083930000000  0.5923090000000 1.0
C      1  0.5428370000000  0.5621960000000  0.4461920000000 1.0
C      1  0.5254390000000  0.5667200000000  0.5639300000000 1.0
C      1  0.4194130000000  0.5631370000000  0.4867560000000 1.0
C      1  0.5038090000000  0.5502520000000  0.5756380000000 1.0
C      1  0.4285790000000  0.5465240000000  0.4659480000000 1.0
C      1  0.5656540000000  0.5510280000000  0.4601160000000 1.0
C      1  0.4480910000000  0.4697010000000  0.5690530000000 1.0
C      1  0.4636610000000  0.4689160000000  0.4198980000000 1.0
C      1  0.5850170000000  0.4703490000000  0.5079800000000 1.0
C      1  0.4541700000000  0.4903480000000  0.4725650000000 1.0
C      1  0.5436450000000  0.5001450000000  0.4697720000000 1.0
C      1  0.4960190000000  0.4982590000000  0.5459070000000 1.0
C      1  0.4854630000000  0.4532810000000  0.5082150000000 1.0
C      1  0.4842730000000  0.4521510000000  0.4780490000000 1.0
C      1  0.5225610000000  0.4572660000000  0.4976510000000 1.0
C      1  0.5043850000000  0.6064320000000  0.4876600000000 1.0
C      1  0.5184330000000  0.6161410000000  0.5097380000000 1.0
C      1  0.4766950000000  0.6029560000000  0.4912230000000 1.0
C      1  0.4832510000000  0.5526420000000  0.4733390000000 1.0
C      1  0.5531060000000  0.5781230000000  0.5004280000000 1.0
C      1  0.4825940000000  0.5834070000000  0.5497610000000 1.0
C      1  0.4358990000000  0.5238320000000  0.5578040000000 1.0
C      1  0.4819080000000  0.5235290000000  0.4174890000000 1.0
C      1  0.5878950000000  0.5252480000000  0.5264480000000 1.0
C      1  0.4478600000000  0.4472930000000  0.4651650000000 1.0
C      1  0.5516350000000  0.4488800000000  0.4735080000000 1.0
C      1  0.4953630000000  0.4461620000000  0.5675990000000 1.0
C      1  0.5441440000000  0.4102180000000  0.4944380000000 1.0
C      1  0.4808120000000  0.4099340000000  0.5427070000000 1.0
C      1  0.4715550000000  0.4080200000000  0.4614170000000 1.0
C      1  0.4604220000000  0.5362100000000  0.5495350000000 1.0
C      1  0.4670590000000  0.5265280000000  0.4414670000000 1.0
C      1  0.5708490000000  0.5322960000000  0.5048830000000 1.0
C      1  0.5402140000000  0.4683740000000  0.4237090000000 1.0
C      1  0.5391160000000  0.4744200000000  0.5645410000000 1.0
C      1  0.4191310000000  0.4707220000000  0.5022650000000 1.0
C      1  0.5085620000000  0.5591860000000  0.5174360000000 1.0
END
