TITL C-3577086-586-471 -7.12330701536568e-07 125000 -952.043646904532 0 0 153 (C1) n - 1
REM
REM in /home/bkarasulu/work/CARBON/AIRSS/Generating-Clusters/EDIP-Nigel-Params/with-SteepDescent/Higher-Symm/SD-CG/HFTN-CG
REM
REM
REM
REM
REM
REM ./C.cell (12c818d87b63d06a65506943cc24bca4)
REM
REM compiler GCC version 9.2.1 20190827 (Red Hat 9.2.1-1)
REM options -cpp -mtune=generic -march=x86-64 -g -O0 -fpre-include=/usr/include/finclude/math-vector-fortran.h
REM seed 623910623 290622208 -1040748594 1357677501 930278826 1055718269 1196571587 -1039362235 -1620847763 489268947 -2145684104 -1314049748 -1026695760 -119971277 -2130583864 1237358964 764550712 -420475438 331180785 392195441 2036506023 -1696458912 -1342781695 361539132 -1502998410 1634498996 -1809223684 -723102809 2140670711 -823720924 1880479175 668340746 1435638274
REM
CELL 1.54180   50.00000   50.00000   50.00000   90.00000   90.00000   90.00000
LATT -1
SFAC C  
C      1  0.4914590000000  0.5825840000000  0.4377900000000 1.0
C      1  0.5101380000000  0.4163800000000  0.5611210000000 1.0
C      1  0.3995110000000  0.4884700000000  0.5302440000000 1.0
C      1  0.5988220000000  0.5149310000000  0.4720990000000 1.0
C      1  0.5838870000000  0.5006270000000  0.5435590000000 1.0
C      1  0.4129210000000  0.4953330000000  0.4573650000000 1.0
C      1  0.5070320000000  0.3961900000000  0.5175460000000 1.0
C      1  0.4926020000000  0.6039540000000  0.4815740000000 1.0
C      1  0.5703190000000  0.5671500000000  0.4678770000000 1.0
C      1  0.4302630000000  0.4341230000000  0.5338470000000 1.0
C      1  0.6096250000000  0.4991090000000  0.4925560000000 1.0
C      1  0.3860280000000  0.5007280000000  0.5087030000000 1.0
C      1  0.4738490000000  0.5585520000000  0.4443420000000 1.0
C      1  0.5271990000000  0.4409440000000  0.5537040000000 1.0
C      1  0.5550150000000  0.4049160000000  0.5172630000000 1.0
C      1  0.4450090000000  0.5950230000000  0.4803660000000 1.0
C      1  0.4856010000000  0.4612880000000  0.4193440000000 1.0
C      1  0.5172050000000  0.5378180000000  0.5836540000000 1.0
C      1  0.5490760000000  0.4655810000000  0.5220440000000 1.0
C      1  0.4443070000000  0.5315570000000  0.4695580000000 1.0
C      1  0.4870900000000  0.4685700000000  0.5486160000000 1.0
C      1  0.5137390000000  0.5327880000000  0.4513810000000 1.0
C      1  0.5137970000000  0.4577440000000  0.4146950000000 1.0
C      1  0.4890720000000  0.5393720000000  0.5869520000000 1.0
C      1  0.5345430000000  0.4952250000000  0.6026090000000 1.0
C      1  0.4683630000000  0.5019840000000  0.3977670000000 1.0
C      1  0.5173150000000  0.5675870000000  0.4406200000000 1.0
C      1  0.4841790000000  0.4318140000000  0.5601090000000 1.0
C      1  0.4453140000000  0.5273150000000  0.4309210000000 1.0
C      1  0.5549840000000  0.4743440000000  0.5633210000000 1.0
C      1  0.5809640000000  0.4976660000000  0.4267030000000 1.0
C      1  0.4214060000000  0.5030060000000  0.5752130000000 1.0
C      1  0.5189800000000  0.6075130000000  0.4953750000000 1.0
C      1  0.4799400000000  0.3924000000000  0.5051710000000 1.0
C      1  0.4824970000000  0.4447400000000  0.5118110000000 1.0
C      1  0.5164930000000  0.5557930000000  0.4890090000000 1.0
C      1  0.5385960000000  0.5298840000000  0.4058920000000 1.0
C      1  0.4630260000000  0.4686790000000  0.5960980000000 1.0
C      1  0.4428090000000  0.5813130000000  0.5225680000000 1.0
C      1  0.5534290000000  0.4173190000000  0.4726230000000 1.0
C      1  0.5270570000000  0.5575830000000  0.5650750000000 1.0
C      1  0.4735280000000  0.4409300000000  0.4356800000000 1.0
C      1  0.4630650000000  0.5149590000000  0.4901720000000 1.0
C      1  0.5408260000000  0.4847970000000  0.5012660000000 1.0
C      1  0.4830620000000  0.5517610000000  0.5179150000000 1.0
C      1  0.5145950000000  0.4483660000000  0.4811800000000 1.0
C      1  0.4920470000000  0.6052630000000  0.4537390000000 1.0
C      1  0.5088980000000  0.3937240000000  0.5451780000000 1.0
C      1  0.4223780000000  0.4959810000000  0.4290430000000 1.0
C      1  0.5788050000000  0.5031500000000  0.5734620000000 1.0
C      1  0.5332660000000  0.5480160000000  0.5107610000000 1.0
C      1  0.4657840000000  0.4521620000000  0.4902470000000 1.0
C      1  0.5562510000000  0.5344390000000  0.4292930000000 1.0
C      1  0.4447660000000  0.4654240000000  0.5726080000000 1.0
C      1  0.4457200000000  0.5566650000000  0.4334320000000 1.0
C      1  0.5563120000000  0.4445620000000  0.5609680000000 1.0
C      1  0.4043710000000  0.5201240000000  0.4995730000000 1.0
C      1  0.6003690000000  0.4746600000000  0.5028910000000 1.0
C      1  0.5875960000000  0.4943880000000  0.4539700000000 1.0
C      1  0.4077490000000  0.5089930000000  0.5506690000000 1.0
C      1  0.4359710000000  0.5568980000000  0.5054200000000 1.0
C      1  0.5652060000000  0.4409680000000  0.4890060000000 1.0
C      1  0.4729370000000  0.4035380000000  0.4783450000000 1.0
C      1  0.5246510000000  0.5959380000000  0.5224740000000 1.0
C      1  0.5244260000000  0.4240370000000  0.4657750000000 1.0
C      1  0.4708630000000  0.5757710000000  0.5334040000000 1.0
C      1  0.4509230000000  0.4245790000000  0.4856020000000 1.0
C      1  0.5482000000000  0.5754000000000  0.5161430000000 1.0
C      1  0.4285110000000  0.5715400000000  0.4776410000000 1.0
C      1  0.5715660000000  0.4282250000000  0.5158320000000 1.0
C      1  0.4744920000000  0.5545130000000  0.4744390000000 1.0
C      1  0.5251760000000  0.4469220000000  0.5242600000000 1.0
C      1  0.5218760000000  0.4949870000000  0.5551470000000 1.0
C      1  0.4803330000000  0.5044220000000  0.4447920000000 1.0
C      1  0.5518300000000  0.5301940000000  0.4818480000000 1.0
C      1  0.4480710000000  0.4716340000000  0.5189770000000 1.0
C      1  0.4703190000000  0.5178900000000  0.5924640000000 1.0
C      1  0.5325210000000  0.4800530000000  0.4110590000000 1.0
C      1  0.4811450000000  0.4913340000000  0.5980040000000 1.0
C      1  0.5213200000000  0.5063940000000  0.4043820000000 1.0
C      1  0.4598310000000  0.5659780000000  0.5601970000000 1.0
C      1  0.5438960000000  0.4566420000000  0.4457690000000 1.0
C      1  0.4583270000000  0.4780950000000  0.5474170000000 1.0
C      1  0.5422840000000  0.5219310000000  0.4539220000000 1.0
C      1  0.5615270000000  0.5636220000000  0.4354850000000 1.0
C      1  0.4396920000000  0.4364070000000  0.5662670000000 1.0
C      1  0.4125050000000  0.5426900000000  0.5162130000000 1.0
C      1  0.5911040000000  0.4549960000000  0.4827910000000 1.0
C      1  0.4135770000000  0.4565600000000  0.4887790000000 1.0
C      1  0.5863000000000  0.5422000000000  0.5141460000000 1.0
C      1  0.4454610000000  0.4489670000000  0.4430650000000 1.0
C      1  0.5551500000000  0.5505180000000  0.5583420000000 1.0
C      1  0.4930830000000  0.4914070000000  0.4691310000000 1.0
C      1  0.5068770000000  0.5089150000000  0.5308150000000 1.0
C      1  0.5863760000000  0.4740170000000  0.5294460000000 1.0
C      1  0.4148790000000  0.5210260000000  0.4720020000000 1.0
C      1  0.5404730000000  0.4637090000000  0.4784760000000 1.0
C      1  0.4593250000000  0.5359890000000  0.5108670000000 1.0
C      1  0.5815840000000  0.5393810000000  0.4830350000000 1.0
C      1  0.4194220000000  0.4610270000000  0.5193610000000 1.0
C      1  0.5692310000000  0.5607500000000  0.5335190000000 1.0
C      1  0.4301950000000  0.4379090000000  0.4675010000000 1.0
C      1  0.4363330000000  0.4131310000000  0.5109610000000 1.0
C      1  0.5632140000000  0.5875760000000  0.4913500000000 1.0
C      1  0.4430580000000  0.5225340000000  0.5815860000000 1.0
C      1  0.5631410000000  0.4752050000000  0.4169320000000 1.0
C      1  0.4645090000000  0.4252360000000  0.5809010000000 1.0
C      1  0.5370820000000  0.5737530000000  0.4196890000000 1.0
C      1  0.4433830000000  0.5167260000000  0.4036620000000 1.0
C      1  0.5598950000000  0.4813640000000  0.5925000000000 1.0
C      1  0.4995620000000  0.4663150000000  0.5206680000000 1.0
C      1  0.4994200000000  0.5341640000000  0.4792060000000 1.0
C      1  0.5775340000000  0.4450910000000  0.5396400000000 1.0
C      1  0.4257150000000  0.5653830000000  0.4504800000000 1.0
C      1  0.4403930000000  0.5433490000000  0.5614660000000 1.0
C      1  0.5726270000000  0.4521500000000  0.4371390000000 1.0
C      1  0.5022680000000  0.5949360000000  0.5414070000000 1.0
C      1  0.4936550000000  0.4020800000000  0.4582850000000 1.0
C      1  0.5541860000000  0.3946490000000  0.4901520000000 1.0
C      1  0.4434690000000  0.6049490000000  0.5069290000000 1.0
C      1  0.4764510000000  0.4437420000000  0.6019870000000 1.0
C      1  0.5253850000000  0.5544640000000  0.3989120000000 1.0
C      1  0.5090030000000  0.5389030000000  0.5292570000000 1.0
C      1  0.4893570000000  0.4615060000000  0.4713820000000 1.0
C      1  0.5807810000000  0.5239130000000  0.4188730000000 1.0
C      1  0.4199170000000  0.4764340000000  0.5826810000000 1.0
C      1  0.4933970000000  0.4192420000000  0.4352470000000 1.0
C      1  0.5066900000000  0.5790730000000  0.5654650000000 1.0
C      1  0.5542070000000  0.5101090000000  0.5031360000000 1.0
C      1  0.4461840000000  0.4906950000000  0.4958470000000 1.0
C      1  0.5678760000000  0.5218180000000  0.5279660000000 1.0
C      1  0.4306890000000  0.4766000000000  0.4735370000000 1.0
C      1  0.5076210000000  0.4808450000000  0.6075540000000 1.0
C      1  0.4952830000000  0.5163370000000  0.3931320000000 1.0
C      1  0.5401140000000  0.5988490000000  0.4763910000000 1.0
C      1  0.4598170000000  0.4014800000000  0.5249900000000 1.0
C      1  0.5204750000000  0.4315930000000  0.4274410000000 1.0
C      1  0.4823780000000  0.5662500000000  0.5781960000000 1.0
C      1  0.4689840000000  0.4300280000000  0.5338240000000 1.0
C      1  0.5314400000000  0.5703020000000  0.4674750000000 1.0
C      1  0.4437880000000  0.4760690000000  0.4315120000000 1.0
C      1  0.5581710000000  0.5242490000000  0.5709490000000 1.0
C      1  0.5121610000000  0.4653880000000  0.5667420000000 1.0
C      1  0.4890180000000  0.5324180000000  0.4334030000000 1.0
C      1  0.4169800000000  0.5357690000000  0.5441280000000 1.0
C      1  0.5918220000000  0.4656100000000  0.4558410000000 1.0
C      1  0.5270660000000  0.4162830000000  0.5079600000000 1.0
C      1  0.4725170000000  0.5839570000000  0.4907980000000 1.0
C      1  0.4704880000000  0.4860920000000  0.4229730000000 1.0
C      1  0.5317670000000  0.5132180000000  0.5786710000000 1.0
C      1  0.5049970000000  0.4522290000000  0.6013860000000 1.0
C      1  0.4971590000000  0.5451010000000  0.3988480000000 1.0
C      1  0.4991260000000  0.4994630000000  0.5005590000000 1.0
END
