TITL C-3578208-4450-518 -1.64348151306443e-06 125000 -613.952763397393 0 0 98 (C1) n - 1
REM
REM in /home/bkarasulu/work/CARBON/AIRSS/Generating-Clusters/EDIP-Nigel-Params/with-SteepDescent/Higher-Symm/SD-CG/HFTN-CG
REM
REM
REM
REM
REM
REM ./C.cell (12c818d87b63d06a65506943cc24bca4)
REM
REM compiler GCC version 9.2.1 20190827 (Red Hat 9.2.1-1)
REM options -cpp -mtune=generic -march=x86-64 -g -O0 -fpre-include=/usr/include/finclude/math-vector-fortran.h
REM seed 684839076 1850329761 -1317289333 -1906947463 321830016 -1835824340 2030045936 -1593888455 597280496 -1378640785 848590082 -1117328945 1825933174 398563702 1639721029 1358623577 247654615 -1426936533 670719930 -1343554765 1194732055 -83793399 63050715 -621016108 -223950686 -737748481 -1284105344 -1846121582 -1577755636 -1496664114 1984192244 -2113235501 -102712813
REM
CELL 1.54180   50.00000   50.00000   50.00000   90.00000   90.00000   90.00000
LATT -1
SFAC C  
C      1  0.5319230000000  0.5871450000000  0.5113050000000 1.0
C      1  0.4678560000000  0.4119890000000  0.5113540000000 1.0
C      1  0.5494570000000  0.5577780000000  0.5400700000000 1.0
C      1  0.4497170000000  0.4420120000000  0.5406210000000 1.0
C      1  0.4781360000000  0.5568460000000  0.5672170000000 1.0
C      1  0.5219200000000  0.4429880000000  0.5675310000000 1.0
C      1  0.5778230000000  0.5080390000000  0.4323020000000 1.0
C      1  0.4220430000000  0.4923350000000  0.4327000000000 1.0
C      1  0.4063980000000  0.4658480000000  0.4850590000000 1.0
C      1  0.5934970000000  0.5345310000000  0.4849880000000 1.0
C      1  0.5048720000000  0.5489120000000  0.5691540000000 1.0
C      1  0.4951400000000  0.4509370000000  0.5689160000000 1.0
C      1  0.4702630000000  0.5771730000000  0.5184760000000 1.0
C      1  0.5299950000000  0.4221050000000  0.5191820000000 1.0
C      1  0.5675450000000  0.5594210000000  0.5185790000000 1.0
C      1  0.4317350000000  0.4404290000000  0.5188590000000 1.0
C      1  0.5094980000000  0.5816920000000  0.4639770000000 1.0
C      1  0.4906640000000  0.4185570000000  0.4640200000000 1.0
C      1  0.5122920000000  0.4402970000000  0.5030360000000 1.0
C      1  0.4876680000000  0.5587230000000  0.5022540000000 1.0
C      1  0.5351530000000  0.4883090000000  0.4379200000000 1.0
C      1  0.4647080000000  0.5135680000000  0.4412430000000 1.0
C      1  0.5237280000000  0.4858220000000  0.5848470000000 1.0
C      1  0.4761210000000  0.5139770000000  0.5845700000000 1.0
C      1  0.5259930000000  0.4480590000000  0.4757290000000 1.0
C      1  0.4741360000000  0.5507100000000  0.4746760000000 1.0
C      1  0.4202100000000  0.4652050000000  0.5097200000000 1.0
C      1  0.5800540000000  0.5350780000000  0.5098960000000 1.0
C      1  0.5581420000000  0.5796430000000  0.5011180000000 1.0
C      1  0.4415660000000  0.4199940000000  0.5015580000000 1.0
C      1  0.4728980000000  0.5201480000000  0.4731880000000 1.0
C      1  0.5287130000000  0.4785010000000  0.4750090000000 1.0
C      1  0.5368230000000  0.5498350000000  0.4888700000000 1.0
C      1  0.4630540000000  0.4497280000000  0.4896200000000 1.0
C      1  0.4486690000000  0.4543980000000  0.4629520000000 1.0
C      1  0.5513210000000  0.5462780000000  0.4619450000000 1.0
C      1  0.5623450000000  0.4643460000000  0.4500670000000 1.0
C      1  0.4360490000000  0.5369860000000  0.4491160000000 1.0
C      1  0.4741130000000  0.5144910000000  0.5266280000000 1.0
C      1  0.5259480000000  0.4848810000000  0.5271150000000 1.0
C      1  0.4543530000000  0.4690180000000  0.5498820000000 1.0
C      1  0.5455780000000  0.5309470000000  0.5501550000000 1.0
C      1  0.5687300000000  0.4389160000000  0.4938920000000 1.0
C      1  0.4315470000000  0.5612900000000  0.4935190000000 1.0
C      1  0.5811460000000  0.5098360000000  0.5245910000000 1.0
C      1  0.4189420000000  0.4903430000000  0.5244600000000 1.0
C      1  0.5801600000000  0.5417000000000  0.4611270000000 1.0
C      1  0.4197780000000  0.4584420000000  0.4613800000000 1.0
C      1  0.4456420000000  0.5576830000000  0.4677710000000 1.0
C      1  0.5544160000000  0.4425930000000  0.4682280000000 1.0
C      1  0.4964170000000  0.5333520000000  0.5168950000000 1.0
C      1  0.5036930000000  0.4659290000000  0.5172730000000 1.0
C      1  0.5487400000000  0.5120910000000  0.4265650000000 1.0
C      1  0.4514260000000  0.4890650000000  0.4290940000000 1.0
C      1  0.5717550000000  0.5029280000000  0.4808570000000 1.0
C      1  0.4280640000000  0.4974220000000  0.4805420000000 1.0
C      1  0.5392270000000  0.4660190000000  0.5729340000000 1.0
C      1  0.4608160000000  0.5338360000000  0.5725350000000 1.0
C      1  0.5230700000000  0.5279170000000  0.5662050000000 1.0
C      1  0.4768950000000  0.4718900000000  0.5659510000000 1.0
C      1  0.5300170000000  0.5783830000000  0.5384590000000 1.0
C      1  0.4691950000000  0.4213410000000  0.5384000000000 1.0
C      1  0.4936290000000  0.5606510000000  0.4534540000000 1.0
C      1  0.5066040000000  0.4396070000000  0.4540390000000 1.0
C      1  0.5148590000000  0.5003080000000  0.5608830000000 1.0
C      1  0.4851480000000  0.4994750000000  0.5606640000000 1.0
C      1  0.4488860000000  0.5223750000000  0.5474020000000 1.0
C      1  0.5512770000000  0.4774980000000  0.5478160000000 1.0
C      1  0.5384120000000  0.4973950000000  0.4993590000000 1.0
C      1  0.4617040000000  0.5020410000000  0.4984290000000 1.0
C      1  0.5077840000000  0.5387710000000  0.4387050000000 1.0
C      1  0.4922840000000  0.4634660000000  0.4412280000000 1.0
C      1  0.4627270000000  0.4633630000000  0.4391420000000 1.0
C      1  0.5373890000000  0.5379910000000  0.4373490000000 1.0
C      1  0.5553800000000  0.4184230000000  0.5079390000000 1.0
C      1  0.4449460000000  0.5817980000000  0.5074430000000 1.0
C      1  0.5778890000000  0.4883420000000  0.4553030000000 1.0
C      1  0.4213830000000  0.5123310000000  0.4551590000000 1.0
C      1  0.5713620000000  0.4581020000000  0.5383750000000 1.0
C      1  0.4289550000000  0.5419760000000  0.5379910000000 1.0
C      1  0.4372790000000  0.4932340000000  0.5470610000000 1.0
C      1  0.5626840000000  0.5067930000000  0.5471310000000 1.0
C      1  0.4856690000000  0.4273660000000  0.4914220000000 1.0
C      1  0.5142560000000  0.5720050000000  0.4911750000000 1.0
C      1  0.5294120000000  0.4264670000000  0.5464660000000 1.0
C      1  0.4709690000000  0.5730710000000  0.5458100000000 1.0
C      1  0.4812550000000  0.4754570000000  0.4967920000000 1.0
C      1  0.5188270000000  0.5233590000000  0.4964920000000 1.0
C      1  0.4928500000000  0.5142570000000  0.4302360000000 1.0
C      1  0.5068820000000  0.4874630000000  0.4293990000000 1.0
C      1  0.5812980000000  0.4883030000000  0.5043330000000 1.0
C      1  0.4190210000000  0.5118810000000  0.5042010000000 1.0
C      1  0.5707850000000  0.4624400000000  0.5109700000000 1.0
C      1  0.4295680000000  0.5377430000000  0.5105930000000 1.0
C      1  0.4994560000000  0.4841770000000  0.4729520000000 1.0
C      1  0.5011560000000  0.5131980000000  0.4739440000000 1.0
C      1  0.4089160000000  0.4675600000000  0.4372120000000 1.0
C      1  0.5913040000000  0.5326600000000  0.4370330000000 1.0
END
