TITL C-3578194-7807-188 1.47911256016639e-06 125000 -218.302518578726 0 0 37 (C1) n - 1
REM
REM in /home/bkarasulu/work/CARBON/AIRSS/Generating-Clusters/EDIP-Nigel-Params/with-SteepDescent/Higher-Symm/SD-CG/HFTN-CG
REM
REM
REM
REM
REM
REM ./C.cell (12c818d87b63d06a65506943cc24bca4)
REM
REM compiler GCC version 9.2.1 20190827 (Red Hat 9.2.1-1)
REM options -cpp -mtune=generic -march=x86-64 -g -O0 -fpre-include=/usr/include/finclude/math-vector-fortran.h
REM seed -769123176 2109032105 1625780255 415590269 -1015986933 1645266247 1410094895 -1031916441 150478164 929885867 1837775510 -931312506 408168156 -1965528173 1984138863 160099748 2090535274 1496025550 -1490656158 -454306281 1846977989 -529548938 -1383274669 -1478326727 -582223290 -473683450 846474198 -1738617919 -960908168 693117594 620871391 -1087449413 -299115604
REM
CELL 1.54180   50.00000   50.00000   50.00000   90.00000   90.00000   90.00000
LATT -1
SFAC C  
C      1  0.4714450000000  0.4817430000000  0.5297320000000 1.0
C      1  0.5232960000000  0.5235160000000  0.5346740000000 1.0
C      1  0.4682810000000  0.5215090000000  0.5293650000000 1.0
C      1  0.5221330000000  0.4794380000000  0.5337140000000 1.0
C      1  0.5247070000000  0.4677670000000  0.4815780000000 1.0
C      1  0.4723750000000  0.5336840000000  0.4778980000000 1.0
C      1  0.5242400000000  0.5340290000000  0.4815460000000 1.0
C      1  0.4730160000000  0.4679950000000  0.4782320000000 1.0
C      1  0.5306550000000  0.4814280000000  0.4332050000000 1.0
C      1  0.4728950000000  0.5199840000000  0.4291960000000 1.0
C      1  0.5304110000000  0.5202040000000  0.4332350000000 1.0
C      1  0.4731750000000  0.4812090000000  0.4293060000000 1.0
C      1  0.5480310000000  0.5202500000000  0.4904550000000 1.0
C      1  0.4485780000000  0.4820650000000  0.4846330000000 1.0
C      1  0.5481440000000  0.4822060000000  0.4904300000000 1.0
C      1  0.4476260000000  0.5200030000000  0.4840650000000 1.0
C      1  0.4438640000000  0.5159760000000  0.5129520000000 1.0
C      1  0.5484420000000  0.4864440000000  0.5191970000000 1.0
C      1  0.4455140000000  0.4868940000000  0.5134170000000 1.0
C      1  0.5488360000000  0.5159700000000  0.5193070000000 1.0
C      1  0.4790300000000  0.5490760000000  0.5263390000000 1.0
C      1  0.5115000000000  0.4511910000000  0.5293530000000 1.0
C      1  0.4800460000000  0.4526000000000  0.5269590000000 1.0
C      1  0.5104770000000  0.5505320000000  0.5291060000000 1.0
C      1  0.4859080000000  0.4688200000000  0.4518950000000 1.0
C      1  0.5147200000000  0.5326910000000  0.4538160000000 1.0
C      1  0.4855110000000  0.5325910000000  0.4517210000000 1.0
C      1  0.5151430000000  0.4687440000000  0.4538190000000 1.0
C      1  0.4824330000000  0.4467360000000  0.4965420000000 1.0
C      1  0.5123960000000  0.5554640000000  0.4982840000000 1.0
C      1  0.4817280000000  0.5550450000000  0.4960370000000 1.0
C      1  0.5130830000000  0.4463020000000  0.4985470000000 1.0
C      1  0.4531570000000  0.5004550000000  0.4304520000000 1.0
C      1  0.5500720000000  0.5009360000000  0.4371030000000 1.0
C      1  0.5365000000000  0.5016980000000  0.5786250000000 1.0
C      1  0.4976440000000  0.4982420000000  0.5208060000000 1.0
C      1  0.5192470000000  0.5023810000000  0.5585190000000 1.0
END
