TITL C-3577082-504-626 3.49887213575346e-06 125000 -695.153672784337 0 0 113 (C1) n - 1
REM
REM in /home/bkarasulu/work/CARBON/AIRSS/Generating-Clusters/EDIP-Nigel-Params/with-SteepDescent/Higher-Symm/SD-CG/HFTN-CG
REM
REM
REM
REM
REM
REM ./C.cell (12c818d87b63d06a65506943cc24bca4)
REM
REM compiler GCC version 9.2.1 20190827 (Red Hat 9.2.1-1)
REM options -cpp -mtune=generic -march=x86-64 -g -O0 -fpre-include=/usr/include/finclude/math-vector-fortran.h
REM seed -267521404 -1179005756 -793711221 -1622276410 18568785 717936650 1985250386 2129161294 1943381580 1357527142 -1270465437 -1321237902 -1273827812 -96013208 245171958 -385726278 2099186416 774889948 1411002520 616791083 446827471 -1685851517 -1947798027 -1006608614 -1958827046 744493563 -1653353502 173641881 -1180943200 -918067900 -176165147 794687500 -10393162
REM
CELL 1.54180   50.00000   50.00000   50.00000   90.00000   90.00000   90.00000
LATT -1
SFAC C  
C      1  0.5298760000000  0.5411120000000  0.4174810000000 1.0
C      1  0.5301910000000  0.4597640000000  0.5840470000000 1.0
C      1  0.4812260000000  0.4604940000000  0.4235220000000 1.0
C      1  0.4692090000000  0.5410270000000  0.5822350000000 1.0
C      1  0.5352570000000  0.5236880000000  0.5153540000000 1.0
C      1  0.5295060000000  0.4808600000000  0.4800390000000 1.0
C      1  0.4657480000000  0.4741660000000  0.5171470000000 1.0
C      1  0.4681270000000  0.5277480000000  0.4731050000000 1.0
C      1  0.4530370000000  0.5746000000000  0.4480980000000 1.0
C      1  0.4563970000000  0.4294450000000  0.5533840000000 1.0
C      1  0.5440840000000  0.4230330000000  0.4609130000000 1.0
C      1  0.5461530000000  0.5696200000000  0.5528440000000 1.0
C      1  0.5761930000000  0.5464340000000  0.4683830000000 1.0
C      1  0.5741950000000  0.4561770000000  0.5297430000000 1.0
C      1  0.4257920000000  0.4493070000000  0.4661220000000 1.0
C      1  0.4250430000000  0.5487780000000  0.5315530000000 1.0
C      1  0.4235530000000  0.5013210000000  0.4670220000000 1.0
C      1  0.4226900000000  0.4995730000000  0.5303730000000 1.0
C      1  0.5775030000000  0.5020330000000  0.4698890000000 1.0
C      1  0.5829410000000  0.4998430000000  0.5307670000000 1.0
C      1  0.5655000000000  0.4220960000000  0.4997830000000 1.0
C      1  0.5638210000000  0.5715800000000  0.5049440000000 1.0
C      1  0.4340630000000  0.5816810000000  0.5014680000000 1.0
C      1  0.4342900000000  0.4166080000000  0.4973830000000 1.0
C      1  0.4515050000000  0.4105750000000  0.4752860000000 1.0
C      1  0.4499660000000  0.5874660000000  0.5243870000000 1.0
C      1  0.5494430000000  0.5802620000000  0.4806230000000 1.0
C      1  0.5493570000000  0.4174580000000  0.5225040000000 1.0
C      1  0.4673140000000  0.5331890000000  0.4412910000000 1.0
C      1  0.4867450000000  0.4716580000000  0.5549520000000 1.0
C      1  0.5066630000000  0.4711740000000  0.4365710000000 1.0
C      1  0.5223130000000  0.5322260000000  0.5629660000000 1.0
C      1  0.5081250000000  0.4517070000000  0.5088140000000 1.0
C      1  0.5039900000000  0.5452630000000  0.4927830000000 1.0
C      1  0.4899630000000  0.5472930000000  0.5191830000000 1.0
C      1  0.4907420000000  0.4490480000000  0.4832630000000 1.0
C      1  0.4957510000000  0.5761640000000  0.5280990000000 1.0
C      1  0.4973210000000  0.4208040000000  0.4740180000000 1.0
C      1  0.5021470000000  0.4261250000000  0.5245680000000 1.0
C      1  0.5015200000000  0.5715410000000  0.4776730000000 1.0
C      1  0.4770370000000  0.4042640000000  0.4883700000000 1.0
C      1  0.4761690000000  0.5932850000000  0.5134640000000 1.0
C      1  0.5226830000000  0.5891080000000  0.4891760000000 1.0
C      1  0.5233270000000  0.4083120000000  0.5138670000000 1.0
C      1  0.4686300000000  0.5625830000000  0.5643700000000 1.0
C      1  0.4726880000000  0.4352050000000  0.4367350000000 1.0
C      1  0.5295510000000  0.4439570000000  0.5606030000000 1.0
C      1  0.5295650000000  0.5577620000000  0.4397600000000 1.0
C      1  0.4746970000000  0.4187380000000  0.5147420000000 1.0
C      1  0.4749010000000  0.5809610000000  0.4859060000000 1.0
C      1  0.5224990000000  0.5830950000000  0.5179830000000 1.0
C      1  0.5248550000000  0.4162140000000  0.4839970000000 1.0
C      1  0.5953590000000  0.4814450000000  0.4755260000000 1.0
C      1  0.6004670000000  0.5214790000000  0.5312750000000 1.0
C      1  0.4061240000000  0.5205430000000  0.4771470000000 1.0
C      1  0.4059930000000  0.4809310000000  0.5182530000000 1.0
C      1  0.4391520000000  0.5406660000000  0.4345420000000 1.0
C      1  0.4539330000000  0.4686010000000  0.5540440000000 1.0
C      1  0.5314450000000  0.4551830000000  0.4308740000000 1.0
C      1  0.5513520000000  0.5286650000000  0.5657710000000 1.0
C      1  0.4701030000000  0.5181210000000  0.5660960000000 1.0
C      1  0.4636700000000  0.4838810000000  0.4300680000000 1.0
C      1  0.5349290000000  0.4857480000000  0.5743720000000 1.0
C      1  0.5288390000000  0.5134510000000  0.4192020000000 1.0
C      1  0.5408130000000  0.4865430000000  0.5469040000000 1.0
C      1  0.5491070000000  0.5019870000000  0.4337350000000 1.0
C      1  0.4645420000000  0.5186600000000  0.5384080000000 1.0
C      1  0.4627250000000  0.4825300000000  0.4584480000000 1.0
C      1  0.5126490000000  0.5300320000000  0.5336630000000 1.0
C      1  0.5044010000000  0.4710980000000  0.4663300000000 1.0
C      1  0.4967960000000  0.4775160000000  0.5223720000000 1.0
C      1  0.4972290000000  0.5200950000000  0.4804860000000 1.0
C      1  0.4803970000000  0.4369440000000  0.5673450000000 1.0
C      1  0.4778390000000  0.5618900000000  0.4359570000000 1.0
C      1  0.5200040000000  0.5629710000000  0.5697220000000 1.0
C      1  0.5265380000000  0.4267280000000  0.4366150000000 1.0
C      1  0.4136110000000  0.5242780000000  0.5390900000000 1.0
C      1  0.4163770000000  0.4752570000000  0.4604640000000 1.0
C      1  0.5905720000000  0.4754670000000  0.5421240000000 1.0
C      1  0.5873230000000  0.5241850000000  0.4556320000000 1.0
C      1  0.4973210000000  0.4191600000000  0.4443300000000 1.0
C      1  0.4946390000000  0.5758980000000  0.5583680000000 1.0
C      1  0.5038970000000  0.5687700000000  0.4482390000000 1.0
C      1  0.5047920000000  0.4311600000000  0.5536100000000 1.0
C      1  0.4179810000000  0.4395260000000  0.4931610000000 1.0
C      1  0.4185210000000  0.5587970000000  0.5045680000000 1.0
C      1  0.5834300000000  0.5526320000000  0.4958720000000 1.0
C      1  0.5819920000000  0.4444620000000  0.5036260000000 1.0
C      1  0.4222500000000  0.5436390000000  0.4799450000000 1.0
C      1  0.4214170000000  0.4575570000000  0.5160820000000 1.0
C      1  0.5793850000000  0.4585150000000  0.4782110000000 1.0
C      1  0.5846020000000  0.5442350000000  0.5327740000000 1.0
C      1  0.4606270000000  0.5541470000000  0.4947770000000 1.0
C      1  0.4606710000000  0.4449990000000  0.5011160000000 1.0
C      1  0.5392640000000  0.4507980000000  0.4949260000000 1.0
C      1  0.5420510000000  0.5612530000000  0.5232380000000 1.0
C      1  0.4778580000000  0.5096980000000  0.4237630000000 1.0
C      1  0.4881540000000  0.4963210000000  0.5734840000000 1.0
C      1  0.5051700000000  0.5002390000000  0.4284420000000 1.0
C      1  0.5147560000000  0.5068780000000  0.5801310000000 1.0
C      1  0.4522610000000  0.4357160000000  0.4594600000000 1.0
C      1  0.4486290000000  0.5641670000000  0.5421970000000 1.0
C      1  0.5513320000000  0.5597030000000  0.4597670000000 1.0
C      1  0.5522030000000  0.4395480000000  0.5417790000000 1.0
C      1  0.5515680000000  0.4929460000000  0.4602610000000 1.0
C      1  0.5538990000000  0.5038890000000  0.5294460000000 1.0
C      1  0.4514300000000  0.5026300000000  0.4742260000000 1.0
C      1  0.4504870000000  0.4998780000000  0.5231690000000 1.0
C      1  0.5682270000000  0.5496550000000  0.5568160000000 1.0
C      1  0.5578000000000  0.4493820000000  0.4583100000000 1.0
C      1  0.4379500000000  0.4476360000000  0.5391350000000 1.0
C      1  0.4287320000000  0.5583670000000  0.4547210000000 1.0
C      1  0.5150270000000  0.5026350000000  0.4988720000000 1.0
END
