TITL C-3577091-527-644 -2.69746479938326e-07 125000 -162.314965275083 0 0 27 (C1) n - 1
REM
REM in /home/bkarasulu/work/CARBON/AIRSS/Generating-Clusters/EDIP-Nigel-Params/with-SteepDescent/Higher-Symm/SD-CG/HFTN-CG
REM
REM
REM
REM
REM
REM ./C.cell (12c818d87b63d06a65506943cc24bca4)
REM
REM compiler GCC version 9.2.1 20190827 (Red Hat 9.2.1-1)
REM options -cpp -mtune=generic -march=x86-64 -g -O0 -fpre-include=/usr/include/finclude/math-vector-fortran.h
REM seed 2018802394 -852267411 1072834575 773479723 1989740051 -739133401 -1289658925 1684004753 514255172 208668261 1816844876 -1772250977 1106923470 752472437 457016730 11056562 1121028029 1556649424 1358158742 87816030 -2098248738 -1370415004 1528201602 824525156 -480144300 -118037704 911193795 -1195694593 1400158554 -1293360158 1321554957 -2054856459 672799135
REM
CELL 1.54180   50.00000   50.00000   50.00000   90.00000   90.00000   90.00000
LATT -1
SFAC C  
C      1  0.4893920000000  0.5484950000000  0.5271240000000 1.0
C      1  0.4829320000000  0.4525950000000  0.5311620000000 1.0
C      1  0.4872480000000  0.5049320000000  0.4470930000000 1.0
C      1  0.5188140000000  0.5496640000000  0.5242060000000 1.0
C      1  0.5123080000000  0.4542520000000  0.5269510000000 1.0
C      1  0.5127310000000  0.4924390000000  0.4439340000000 1.0
C      1  0.4864540000000  0.5515670000000  0.4789510000000 1.0
C      1  0.4878970000000  0.4545510000000  0.4733970000000 1.0
C      1  0.4892200000000  0.4932350000000  0.5561110000000 1.0
C      1  0.5120580000000  0.5443330000000  0.4684280000000 1.0
C      1  0.5171850000000  0.4516850000000  0.4691730000000 1.0
C      1  0.5153170000000  0.5041520000000  0.5520330000000 1.0
C      1  0.4711610000000  0.4994750000000  0.5325840000000 1.0
C      1  0.4775080000000  0.4777860000000  0.4871780000000 1.0
C      1  0.4708500000000  0.5270280000000  0.4881600000000 1.0
C      1  0.5293190000000  0.5014570000000  0.5275740000000 1.0
C      1  0.5323700000000  0.4731800000000  0.4846640000000 1.0
C      1  0.5259530000000  0.5236670000000  0.4818970000000 1.0
C      1  0.4729750000000  0.5024730000000  0.4715180000000 1.0
C      1  0.4684680000000  0.4745620000000  0.5155940000000 1.0
C      1  0.4783470000000  0.5232380000000  0.5164000000000 1.0
C      1  0.5304020000000  0.4980280000000  0.4677770000000 1.0
C      1  0.5235600000000  0.4768270000000  0.5127600000000 1.0
C      1  0.5311040000000  0.5262100000000  0.5112090000000 1.0
C      1  0.5105300000000  0.4634570000000  0.4430750000000 1.0
C      1  0.4899810000000  0.4641740000000  0.5572070000000 1.0
C      1  0.4902920000000  0.5665380000000  0.5038400000000 1.0
END
