TITL C-3578206-1180-446 -8.51947239339351e-07 125000 -343.836547599212 0 0 57 (C1) n - 1
REM
REM in /home/bkarasulu/work/CARBON/AIRSS/Generating-Clusters/EDIP-Nigel-Params/with-SteepDescent/Higher-Symm/SD-CG/HFTN-CG
REM
REM
REM
REM
REM
REM ./C.cell (12c818d87b63d06a65506943cc24bca4)
REM
REM compiler GCC version 9.2.1 20190827 (Red Hat 9.2.1-1)
REM options -cpp -mtune=generic -march=x86-64 -g -O0 -fpre-include=/usr/include/finclude/math-vector-fortran.h
REM seed 591540118 -911132853 1269661055 825250587 -1572441518 24531444 -1003233979 -2025539475 -1820932049 -226340966 2139804110 1264412899 541218615 -1735799960 -498366796 -1953496683 -608228244 1176015611 951847820 -1042256233 -1109714432 88252060 1086665926 2052820482 -180755970 433724675 -1758194599 -397156808 1335953344 -14860349 128157343 1479277916 875064858
REM
CELL 1.54180   50.00000   50.00000   50.00000   90.00000   90.00000   90.00000
LATT -1
SFAC C  
C      1  0.4481600000000  0.4851420000000  0.4525200000000 1.0
C      1  0.4486850000000  0.5127940000000  0.5436600000000 1.0
C      1  0.5401270000000  0.5461340000000  0.4781660000000 1.0
C      1  0.5413690000000  0.4538140000000  0.5219510000000 1.0
C      1  0.5229400000000  0.5422720000000  0.4548890000000 1.0
C      1  0.5262780000000  0.4571320000000  0.5467030000000 1.0
C      1  0.4828710000000  0.4759040000000  0.5153820000000 1.0
C      1  0.4819150000000  0.5181490000000  0.4851070000000 1.0
C      1  0.5236900000000  0.4616360000000  0.4366980000000 1.0
C      1  0.5233500000000  0.5373070000000  0.5626060000000 1.0
C      1  0.4376010000000  0.5550160000000  0.5255590000000 1.0
C      1  0.4353090000000  0.4456970000000  0.4686000000000 1.0
C      1  0.4792870000000  0.4431840000000  0.4504780000000 1.0
C      1  0.4793770000000  0.5541040000000  0.5447190000000 1.0
C      1  0.5534330000000  0.5223800000000  0.4887610000000 1.0
C      1  0.5545040000000  0.4773270000000  0.5110990000000 1.0
C      1  0.5043840000000  0.4806610000000  0.4248430000000 1.0
C      1  0.5041270000000  0.5181510000000  0.5735000000000 1.0
C      1  0.5036630000000  0.4863640000000  0.5755200000000 1.0
C      1  0.5021430000000  0.5131260000000  0.4248330000000 1.0
C      1  0.5283590000000  0.5197150000000  0.4370300000000 1.0
C      1  0.5304420000000  0.4803060000000  0.5639490000000 1.0
C      1  0.4580130000000  0.4844120000000  0.5425410000000 1.0
C      1  0.4571340000000  0.5127780000000  0.4565600000000 1.0
C      1  0.4789620000000  0.5275920000000  0.4423960000000 1.0
C      1  0.4804810000000  0.4705880000000  0.5583690000000 1.0
C      1  0.4746600000000  0.5804630000000  0.5016100000000 1.0
C      1  0.4761450000000  0.4262910000000  0.5047630000000 1.0
C      1  0.4811320000000  0.4537130000000  0.4936230000000 1.0
C      1  0.4850790000000  0.5436150000000  0.5018640000000 1.0
C      1  0.4262790000000  0.4707180000000  0.4624740000000 1.0
C      1  0.4292350000000  0.5296310000000  0.5320560000000 1.0
C      1  0.5667880000000  0.5237640000000  0.5134250000000 1.0
C      1  0.5664010000000  0.4761220000000  0.4856920000000 1.0
C      1  0.4998430000000  0.5765630000000  0.4850980000000 1.0
C      1  0.5005280000000  0.4262310000000  0.5214440000000 1.0
C      1  0.5580890000000  0.5010790000000  0.5274010000000 1.0
C      1  0.5564410000000  0.4986410000000  0.4723480000000 1.0
C      1  0.5241720000000  0.4365980000000  0.5044510000000 1.0
C      1  0.5246150000000  0.5626990000000  0.4970950000000 1.0
C      1  0.5122110000000  0.5433550000000  0.5166990000000 1.0
C      1  0.5098960000000  0.4530040000000  0.4823330000000 1.0
C      1  0.4947910000000  0.4893050000000  0.4544500000000 1.0
C      1  0.4949170000000  0.5084880000000  0.5446990000000 1.0
C      1  0.5163400000000  0.5130110000000  0.5217510000000 1.0
C      1  0.5157570000000  0.4829800000000  0.4782160000000 1.0
C      1  0.5099590000000  0.5562170000000  0.5438700000000 1.0
C      1  0.5096160000000  0.4417420000000  0.4541580000000 1.0
C      1  0.4615860000000  0.5707550000000  0.5269680000000 1.0
C      1  0.4599190000000  0.4312020000000  0.4699950000000 1.0
C      1  0.4980450000000  0.4508930000000  0.5408190000000 1.0
C      1  0.4941170000000  0.5465540000000  0.4609200000000 1.0
C      1  0.4729710000000  0.5260790000000  0.5400510000000 1.0
C      1  0.4725680000000  0.4712130000000  0.4544780000000 1.0
C      1  0.5405260000000  0.5052420000000  0.5510560000000 1.0
C      1  0.5388750000000  0.4944340000000  0.4491010000000 1.0
C      1  0.4998770000000  0.4976020000000  0.5002190000000 1.0
END
