TITL C-3578196-9646-348 -6.86976923965406e-07 125000 -112.843182801731 0 0 20 (C1) n - 1
REM
REM in /home/bkarasulu/work/CARBON/AIRSS/Generating-Clusters/EDIP-Nigel-Params/with-SteepDescent/Higher-Symm/SD-CG/HFTN-CG
REM
REM
REM
REM
REM
REM ./C.cell (12c818d87b63d06a65506943cc24bca4)
REM
REM compiler GCC version 9.2.1 20190827 (Red Hat 9.2.1-1)
REM options -cpp -mtune=generic -march=x86-64 -g -O0 -fpre-include=/usr/include/finclude/math-vector-fortran.h
REM seed 1451995953 651124618 -2004056487 1983653692 157040038 1261232137 1187557255 -1023652863 -934503880 1435136841 973063115 -753256399 694192452 -1349515713 957297802 1118732426 -1079120557 -586934969 -504927640 1269516912 -489850595 -1587896687 1533409281 438969932 -1830810076 -389073708 -637160874 -291572087 -1963711760 -1232740023 1117490612 537265738 -729600331
REM
CELL 1.54180   50.00000   50.00000   50.00000   90.00000   90.00000   90.00000
LATT -1
SFAC C  
C      1  0.4977910000000  0.5139970000000  0.4890970000000 1.0
C      1  0.5167110000000  0.5448770000000  0.5190760000000 1.0
C      1  0.5246480000000  0.4984680000000  0.5301320000000 1.0
C      1  0.5357860000000  0.5166220000000  0.4579740000000 1.0
C      1  0.4716220000000  0.5255210000000  0.4829390000000 1.0
C      1  0.5158520000000  0.4936100000000  0.5587400000000 1.0
C      1  0.5288990000000  0.5481120000000  0.4948050000000 1.0
C      1  0.5290000000000  0.4921330000000  0.4492970000000 1.0
C      1  0.4801810000000  0.5153810000000  0.5347540000000 1.0
C      1  0.4944500000000  0.4735800000000  0.5505050000000 1.0
C      1  0.4672280000000  0.4797550000000  0.4880770000000 1.0
C      1  0.5072070000000  0.4766370000000  0.4564280000000 1.0
C      1  0.4624840000000  0.4754630000000  0.5153960000000 1.0
C      1  0.4553490000000  0.5038690000000  0.4795680000000 1.0
C      1  0.5148800000000  0.4700260000000  0.5281030000000 1.0
C      1  0.4959850000000  0.4842920000000  0.4820100000000 1.0
C      1  0.4714110000000  0.4883810000000  0.5388510000000 1.0
C      1  0.5193830000000  0.5297520000000  0.4760220000000 1.0
C      1  0.5064350000000  0.4512230000000  0.4491630000000 1.0
C      1  0.5046970000000  0.5183020000000  0.5190620000000 1.0
END
