TITL C-3578204-4308-196 1.5107249884893e-07 125000 -16.2501302961071 0 0 4 (D(inf)h) n - 1
REM
REM in /home/bkarasulu/work/CARBON/AIRSS/Generating-Clusters/EDIP-Nigel-Params/with-SteepDescent/Higher-Symm/SD-CG/HFTN-CG
REM
REM
REM
REM
REM
REM ./C.cell (12c818d87b63d06a65506943cc24bca4)
REM
REM compiler GCC version 9.2.1 20190827 (Red Hat 9.2.1-1)
REM options -cpp -mtune=generic -march=x86-64 -g -O0 -fpre-include=/usr/include/finclude/math-vector-fortran.h
REM seed 1226768789 1941825148 1627700171 -1689400882 2126723288 -1031141570 640988253 730044153 713275942 751708079 1982462900 1141862034 1644354580 -1489740190 1826558540 -713391578 1935254056 1321029650 244888344 1502679788 467468693 567584887 -1766314819 -1856956074 -1123668170 -1856135583 -1521245566 143084488 -1407880419 687407380 176960342 723466187 747576000
REM
CELL 1.54180   50.00000   50.00000   50.00000   90.00000   90.00000   90.00000
LATT -1
SFAC C  
C      1  0.4982790000000  0.5016810000000  0.5387630000000 1.0
C      1  0.4982790000000  0.5016810000000  0.4612370000000 1.0
C      1  0.4982790000000  0.5016810000000  0.5131930000000 1.0
C      1  0.4982790000000  0.5016810000000  0.4868070000000 1.0
END
