TITL C-3578207-9274-143 1.32261087458197e-06 125000 -1077.97834140342 0 0 171 (C1) n - 1
REM
REM in /home/bkarasulu/work/CARBON/AIRSS/Generating-Clusters/EDIP-Nigel-Params/with-SteepDescent/Higher-Symm/SD-CG/HFTN-CG
REM
REM
REM
REM
REM
REM ./C.cell (12c818d87b63d06a65506943cc24bca4)
REM
REM compiler GCC version 9.2.1 20190827 (Red Hat 9.2.1-1)
REM options -cpp -mtune=generic -march=x86-64 -g -O0 -fpre-include=/usr/include/finclude/math-vector-fortran.h
REM seed -423489952 553443043 1576678331 1433302281 1982822772 -1676069090 1342373198 -397652858 1960679728 -1495530438 876765535 -1804846732 -60476339 -1311225067 613707868 2107515017 -1585466890 -1676234821 468992582 1188502357 -1447035654 1129990343 1388510775 -411969245 1397224419 -1585491683 -248026922 1120200017 311841809 1495670776 -1083062432 -1889227836 -1800635573
REM
CELL 1.54180   50.00000   50.00000   50.00000   90.00000   90.00000   90.00000
LATT -1
SFAC C  
C      1  0.4120510000000  0.4380730000000  0.5107780000000 1.0
C      1  0.5940200000000  0.4570760000000  0.5096140000000 1.0
C      1  0.4897340000000  0.6024310000000  0.5106350000000 1.0
C      1  0.4964520000000  0.5955210000000  0.4613880000000 1.0
C      1  0.4145370000000  0.4508700000000  0.4624980000000 1.0
C      1  0.5846260000000  0.4515300000000  0.4618990000000 1.0
C      1  0.5008580000000  0.5946710000000  0.5359930000000 1.0
C      1  0.4120780000000  0.4519420000000  0.5359570000000 1.0
C      1  0.5824750000000  0.4501580000000  0.5345760000000 1.0
C      1  0.5140740000000  0.3888110000000  0.5446660000000 1.0
C      1  0.5916200000000  0.5697250000000  0.5429710000000 1.0
C      1  0.3917760000000  0.5428070000000  0.5462320000000 1.0
C      1  0.5669350000000  0.4791510000000  0.5731010000000 1.0
C      1  0.4823990000000  0.5705180000000  0.5746930000000 1.0
C      1  0.4437220000000  0.4500110000000  0.5758500000000 1.0
C      1  0.5100040000000  0.4909080000000  0.5627100000000 1.0
C      1  0.5137560000000  0.5196590000000  0.5612880000000 1.0
C      1  0.4810880000000  0.4896440000000  0.5630460000000 1.0
C      1  0.4789710000000  0.5865820000000  0.5515860000000 1.0
C      1  0.4348470000000  0.4422590000000  0.5494640000000 1.0
C      1  0.5808970000000  0.4747250000000  0.5484190000000 1.0
C      1  0.4455590000000  0.5458910000000  0.4408750000000 1.0
C      1  0.4822600000000  0.4323280000000  0.4379030000000 1.0
C      1  0.5743160000000  0.5204840000000  0.4367500000000 1.0
C      1  0.4904690000000  0.4670080000000  0.4685170000000 1.0
C      1  0.5363290000000  0.5019320000000  0.4653330000000 1.0
C      1  0.4838420000000  0.5294080000000  0.4652970000000 1.0
C      1  0.4945640000000  0.4706410000000  0.6010640000000 1.0
C      1  0.5276620000000  0.5126660000000  0.6026180000000 1.0
C      1  0.4765210000000  0.5183730000000  0.5967720000000 1.0
C      1  0.5472430000000  0.4228220000000  0.4594230000000 1.0
C      1  0.5414290000000  0.5758930000000  0.4462220000000 1.0
C      1  0.4105660000000  0.4987220000000  0.4584040000000 1.0
C      1  0.5773150000000  0.5736050000000  0.4310650000000 1.0
C      1  0.4052350000000  0.5176990000000  0.4381850000000 1.0
C      1  0.5310250000000  0.4081700000000  0.4401810000000 1.0
C      1  0.4038820000000  0.4549770000000  0.4890330000000 1.0
C      1  0.5873500000000  0.4396000000000  0.4880190000000 1.0
C      1  0.5070230000000  0.5959800000000  0.4886740000000 1.0
C      1  0.5041690000000  0.4007510000000  0.5196670000000 1.0
C      1  0.5871070000000  0.5552020000000  0.5176000000000 1.0
C      1  0.4083570000000  0.5451130000000  0.5218630000000 1.0
C      1  0.4260000000000  0.5250320000000  0.5825830000000 1.0
C      1  0.5129490000000  0.4245170000000  0.5827740000000 1.0
C      1  0.5575500000000  0.5515180000000  0.5795240000000 1.0
C      1  0.5735270000000  0.5064420000000  0.5804350000000 1.0
C      1  0.4558420000000  0.5616730000000  0.5817740000000 1.0
C      1  0.4659620000000  0.4321010000000  0.5822260000000 1.0
C      1  0.5670810000000  0.4373030000000  0.4440590000000 1.0
C      1  0.5126320000000  0.5833000000000  0.4390770000000 1.0
C      1  0.4126740000000  0.4734770000000  0.4455320000000 1.0
C      1  0.5342700000000  0.4744130000000  0.4521380000000 1.0
C      1  0.5086250000000  0.5422750000000  0.4547960000000 1.0
C      1  0.4637680000000  0.4901280000000  0.4691190000000 1.0
C      1  0.5359530000000  0.5971020000000  0.4943120000000 1.0
C      1  0.3879670000000  0.4783450000000  0.4953040000000 1.0
C      1  0.5731250000000  0.4151260000000  0.4945640000000 1.0
C      1  0.4839870000000  0.5389430000000  0.5283380000000 1.0
C      1  0.4699320000000  0.4676180000000  0.5228320000000 1.0
C      1  0.5422300000000  0.4947730000000  0.5253320000000 1.0
C      1  0.3961560000000  0.5242980000000  0.5060740000000 1.0
C      1  0.5285800000000  0.4003770000000  0.5042050000000 1.0
C      1  0.5764810000000  0.5766680000000  0.5015150000000 1.0
C      1  0.5911920000000  0.5203360000000  0.5609960000000 1.0
C      1  0.4335740000000  0.5700410000000  0.5642000000000 1.0
C      1  0.4701920000000  0.4096420000000  0.5634970000000 1.0
C      1  0.5058860000000  0.3959640000000  0.4473300000000 1.0
C      1  0.5984090000000  0.5573280000000  0.4422940000000 1.0
C      1  0.4016520000000  0.5455020000000  0.4460450000000 1.0
C      1  0.5522210000000  0.5611880000000  0.4221720000000 1.0
C      1  0.4328180000000  0.4956920000000  0.4215250000000 1.0
C      1  0.5357610000000  0.4413160000000  0.4224260000000 1.0
C      1  0.6036020000000  0.4847070000000  0.5077970000000 1.0
C      1  0.4603490000000  0.5970100000000  0.5094730000000 1.0
C      1  0.4321520000000  0.4162440000000  0.5090850000000 1.0
C      1  0.5280060000000  0.5220630000000  0.4449880000000 1.0
C      1  0.4723610000000  0.5093110000000  0.4463860000000 1.0
C      1  0.5062840000000  0.4719330000000  0.4442180000000 1.0
C      1  0.4365470000000  0.5040850000000  0.5416540000000 1.0
C      1  0.5255880000000  0.4448660000000  0.5401820000000 1.0
C      1  0.5356520000000  0.5550190000000  0.5328230000000 1.0
C      1  0.4913850000000  0.4433940000000  0.5900320000000 1.0
C      1  0.5535880000000  0.5243910000000  0.5919950000000 1.0
C      1  0.4533970000000  0.5341620000000  0.5886010000000 1.0
C      1  0.4993180000000  0.4023010000000  0.5666600000000 1.0
C      1  0.5815120000000  0.5488560000000  0.5616550000000 1.0
C      1  0.4136660000000  0.5475140000000  0.5661190000000 1.0
C      1  0.5135250000000  0.5334240000000  0.5348040000000 1.0
C      1  0.4652040000000  0.4931940000000  0.5378840000000 1.0
C      1  0.5213690000000  0.4759740000000  0.5385110000000 1.0
C      1  0.5929300000000  0.5494000000000  0.4713950000000 1.0
C      1  0.4113730000000  0.5501520000000  0.4749930000000 1.0
C      1  0.4972270000000  0.4042260000000  0.4747710000000 1.0
C      1  0.4205510000000  0.5796440000000  0.4823240000000 1.0
C      1  0.4682860000000  0.3922850000000  0.4806220000000 1.0
C      1  0.6113050000000  0.5255180000000  0.4800570000000 1.0
C      1  0.5080110000000  0.5597040000000  0.5851700000000 1.0
C      1  0.4429110000000  0.4782560000000  0.5869380000000 1.0
C      1  0.5439700000000  0.4639120000000  0.5844680000000 1.0
C      1  0.5358990000000  0.4383390000000  0.5694750000000 1.0
C      1  0.5335370000000  0.5675320000000  0.5707370000000 1.0
C      1  0.4253140000000  0.4977030000000  0.5708630000000 1.0
C      1  0.5967290000000  0.4983250000000  0.4816280000000 1.0
C      1  0.4513730000000  0.5817170000000  0.4846290000000 1.0
C      1  0.4473220000000  0.4154390000000  0.4822470000000 1.0
C      1  0.4946590000000  0.5411810000000  0.4051600000000 1.0
C      1  0.4718300000000  0.4768550000000  0.3993170000000 1.0
C      1  0.5380880000000  0.4890600000000  0.4024650000000 1.0
C      1  0.4852670000000  0.4042730000000  0.4298930000000 1.0
C      1  0.5983690000000  0.5337260000000  0.4266910000000 1.0
C      1  0.4210350000000  0.5580640000000  0.4297680000000 1.0
C      1  0.5461670000000  0.3864100000000  0.5232180000000 1.0
C      1  0.5746860000000  0.5976010000000  0.5225550000000 1.0
C      1  0.3752480000000  0.5153300000000  0.5244760000000 1.0
C      1  0.4891540000000  0.4349310000000  0.4696790000000 1.0
C      1  0.5673180000000  0.5336870000000  0.4671740000000 1.0
C      1  0.4387840000000  0.5372670000000  0.4724100000000 1.0
C      1  0.4968970000000  0.4625710000000  0.3986550000000 1.0
C      1  0.5398310000000  0.5180990000000  0.3997360000000 1.0
C      1  0.4703090000000  0.5249450000000  0.4018920000000 1.0
C      1  0.5915470000000  0.4988720000000  0.5334960000000 1.0
C      1  0.4544490000000  0.5804470000000  0.5352820000000 1.0
C      1  0.4506030000000  0.4217820000000  0.5344830000000 1.0
C      1  0.3800120000000  0.4865120000000  0.5225230000000 1.0
C      1  0.5691060000000  0.4044870000000  0.5218370000000 1.0
C      1  0.5461810000000  0.6048850000000  0.5221580000000 1.0
C      1  0.5518080000000  0.4743320000000  0.4258430000000 1.0
C      1  0.4959530000000  0.5586320000000  0.4313540000000 1.0
C      1  0.4507990000000  0.4695850000000  0.4186280000000 1.0
C      1  0.5922000000000  0.4794210000000  0.4572310000000 1.0
C      1  0.4677960000000  0.5876840000000  0.4589960000000 1.0
C      1  0.4364360000000  0.4327220000000  0.4568270000000 1.0
C      1  0.5685550000000  0.5083460000000  0.4861050000000 1.0
C      1  0.4571600000000  0.5533450000000  0.4910510000000 1.0
C      1  0.4667150000000  0.4357030000000  0.4890160000000 1.0
C      1  0.4817800000000  0.3861780000000  0.5057980000000 1.0
C      1  0.6105730000000  0.5408090000000  0.5050310000000 1.0
C      1  0.4077820000000  0.5716350000000  0.5074800000000 1.0
C      1  0.5425800000000  0.5552190000000  0.4693440000000 1.0
C      1  0.4331110000000  0.5059100000000  0.4772420000000 1.0
C      1  0.5321110000000  0.4434700000000  0.4759220000000 1.0
C      1  0.5006850000000  0.4293970000000  0.5254250000000 1.0
C      1  0.5622990000000  0.5401480000000  0.5226440000000 1.0
C      1  0.4347060000000  0.5334610000000  0.5295170000000 1.0
C      1  0.5487270000000  0.5710130000000  0.4937390000000 1.0
C      1  0.4166320000000  0.5021690000000  0.5040140000000 1.0
C      1  0.5383290000000  0.4289990000000  0.5024670000000 1.0
C      1  0.4995440000000  0.4730540000000  0.5178290000000 1.0
C      1  0.5228030000000  0.5130800000000  0.5138990000000 1.0
C      1  0.4783780000000  0.5122710000000  0.5177810000000 1.0
C      1  0.4062260000000  0.4805310000000  0.5353080000000 1.0
C      1  0.5611150000000  0.4303910000000  0.5344580000000 1.0
C      1  0.5294630000000  0.5868890000000  0.5404090000000 1.0
C      1  0.5487120000000  0.5309310000000  0.4248050000000 1.0
C      1  0.4539260000000  0.5195420000000  0.4263790000000 1.0
C      1  0.5047700000000  0.4504890000000  0.4244720000000 1.0
C      1  0.5668300000000  0.5108560000000  0.5172660000000 1.0
C      1  0.4575030000000  0.5514060000000  0.5213090000000 1.0
C      1  0.4722200000000  0.4380530000000  0.5182960000000 1.0
C      1  0.4675840000000  0.5664030000000  0.4389000000000 1.0
C      1  0.4543910000000  0.4439360000000  0.4352830000000 1.0
C      1  0.5767050000000  0.4904850000000  0.4351090000000 1.0
C      1  0.5207520000000  0.4831800000000  0.5909920000000 1.0
C      1  0.5051570000000  0.5295710000000  0.5892310000000 1.0
C      1  0.4719910000000  0.4890690000000  0.5906980000000 1.0
C      1  0.4865810000000  0.5101200000000  0.4881210000000 1.0
C      1  0.5102750000000  0.4722830000000  0.4901260000000 1.0
C      1  0.5153180000000  0.5014000000000  0.4874200000000 1.0
C      1  0.4714440000000  0.5017690000000  0.3862320000000 1.0
C      1  0.5186050000000  0.4759000000000  0.3872150000000 1.0
C      1  0.5170500000000  0.5318500000000  0.3909090000000 1.0
END
