TITL C-3578209-2550-331 1.07045032445452e-06 125000 -559.711298715012 0 0 91 (C1) n - 1
REM
REM in /home/bkarasulu/work/CARBON/AIRSS/Generating-Clusters/EDIP-Nigel-Params/with-SteepDescent/Higher-Symm/SD-CG/HFTN-CG
REM
REM
REM
REM
REM
REM ./C.cell (12c818d87b63d06a65506943cc24bca4)
REM
REM compiler GCC version 9.2.1 20190827 (Red Hat 9.2.1-1)
REM options -cpp -mtune=generic -march=x86-64 -g -O0 -fpre-include=/usr/include/finclude/math-vector-fortran.h
REM seed -662240574 853380610 1364327495 -1480032645 444623247 -2102322914 -1565607404 -227814881 -895648725 -1096222858 1279880371 1160715519 -1781318509 275901671 645344445 1119638596 1758503046 70925673 -2025354204 -1431936488 225337371 -1141605401 -136039277 622926977 1038933010 -1847536657 1137760758 852810701 1906315250 1928045914 1520305601 -2093801942 -1692602419
REM
CELL 1.54180   50.00000   50.00000   50.00000   90.00000   90.00000   90.00000
LATT -1
SFAC C  
C      1  0.5584860000000  0.4922810000000  0.5460480000000 1.0
C      1  0.5459970000000  0.5212470000000  0.5435640000000 1.0
C      1  0.5525000000000  0.5411610000000  0.5212040000000 1.0
C      1  0.5470940000000  0.5418020000000  0.4824100000000 1.0
C      1  0.5423940000000  0.5210880000000  0.4603970000000 1.0
C      1  0.5529580000000  0.4926440000000  0.4571660000000 1.0
C      1  0.5431990000000  0.4716650000000  0.4767450000000 1.0
C      1  0.5571210000000  0.4593020000000  0.5027570000000 1.0
C      1  0.5460110000000  0.4681510000000  0.5301190000000 1.0
C      1  0.5113030000000  0.5545840000000  0.5587230000000 1.0
C      1  0.5055480000000  0.5831450000000  0.5145910000000 1.0
C      1  0.5116100000000  0.5621500000000  0.4509270000000 1.0
C      1  0.5047070000000  0.5197400000000  0.4199780000000 1.0
C      1  0.5086910000000  0.4616980000000  0.4312600000000 1.0
C      1  0.5020490000000  0.4264860000000  0.4677870000000 1.0
C      1  0.5065160000000  0.4132240000000  0.5153580000000 1.0
C      1  0.5149440000000  0.4563360000000  0.5674060000000 1.0
C      1  0.5121740000000  0.4986890000000  0.5928220000000 1.0
C      1  0.4963470000000  0.4969760000000  0.4653070000000 1.0
C      1  0.4956210000000  0.4702990000000  0.4726390000000 1.0
C      1  0.4987780000000  0.4657290000000  0.4995120000000 1.0
C      1  0.4888940000000  0.4721080000000  0.5241660000000 1.0
C      1  0.4969810000000  0.4960700000000  0.5341350000000 1.0
C      1  0.4868070000000  0.5211460000000  0.5319880000000 1.0
C      1  0.4913150000000  0.5331260000000  0.5080420000000 1.0
C      1  0.4792550000000  0.5379310000000  0.4841820000000 1.0
C      1  0.4803530000000  0.5195180000000  0.4634300000000 1.0
C      1  0.4555770000000  0.4789710000000  0.4237430000000 1.0
C      1  0.4703790000000  0.4583180000000  0.4645040000000 1.0
C      1  0.4533270000000  0.4391930000000  0.4994180000000 1.0
C      1  0.4643640000000  0.4603650000000  0.5356470000000 1.0
C      1  0.4446050000000  0.4820060000000  0.5609460000000 1.0
C      1  0.4639030000000  0.5294280000000  0.5491140000000 1.0
C      1  0.4579310000000  0.5680180000000  0.5287560000000 1.0
C      1  0.4587660000000  0.5584420000000  0.4777660000000 1.0
C      1  0.4626120000000  0.5299400000000  0.4413020000000 1.0
C      1  0.5318990000000  0.5350440000000  0.5661120000000 1.0
C      1  0.5462330000000  0.5675520000000  0.5306300000000 1.0
C      1  0.5314790000000  0.5671860000000  0.4726960000000 1.0
C      1  0.5458080000000  0.5345800000000  0.4354900000000 1.0
C      1  0.5404590000000  0.4831220000000  0.4304200000000 1.0
C      1  0.5437160000000  0.4444500000000  0.4639470000000 1.0
C      1  0.5449290000000  0.4269110000000  0.4878880000000 1.0
C      1  0.5324190000000  0.4469650000000  0.5460900000000 1.0
C      1  0.5546240000000  0.4843920000000  0.5739710000000 1.0
C      1  0.4649440000000  0.4302980000000  0.4383780000000 1.0
C      1  0.4586350000000  0.4148080000000  0.4849190000000 1.0
C      1  0.4683810000000  0.4311090000000  0.5426450000000 1.0
C      1  0.4689420000000  0.4760690000000  0.5762940000000 1.0
C      1  0.4712590000000  0.5255210000000  0.5792570000000 1.0
C      1  0.4649630000000  0.5697600000000  0.5563400000000 1.0
C      1  0.4694510000000  0.5852770000000  0.4827100000000 1.0
C      1  0.4611660000000  0.5605900000000  0.4467620000000 1.0
C      1  0.4639120000000  0.4984620000000  0.4055650000000 1.0
C      1  0.5974950000000  0.4720420000000  0.5243440000000 1.0
C      1  0.5876560000000  0.4941730000000  0.5379480000000 1.0
C      1  0.5944710000000  0.5178530000000  0.5252070000000 1.0
C      1  0.5813220000000  0.5396120000000  0.5139230000000 1.0
C      1  0.5778780000000  0.5410940000000  0.4848690000000 1.0
C      1  0.5900980000000  0.5202570000000  0.4703380000000 1.0
C      1  0.5832020000000  0.4948020000000  0.4609540000000 1.0
C      1  0.5940030000000  0.4745220000000  0.4767150000000 1.0
C      1  0.5865310000000  0.4625480000000  0.5006980000000 1.0
C      1  0.4381250000000  0.4958560000000  0.5361310000000 1.0
C      1  0.4287360000000  0.5237530000000  0.5345530000000 1.0
C      1  0.4377300000000  0.5471420000000  0.5182450000000 1.0
C      1  0.4326160000000  0.5484290000000  0.4886550000000 1.0
C      1  0.4346520000000  0.5178120000000  0.4472630000000 1.0
C      1  0.4376550000000  0.4880840000000  0.4460420000000 1.0
C      1  0.4480040000000  0.4763480000000  0.4711550000000 1.0
C      1  0.4366670000000  0.4622510000000  0.4936630000000 1.0
C      1  0.4305190000000  0.4779190000000  0.5159590000000 1.0
C      1  0.4840900000000  0.4506140000000  0.5679590000000 1.0
C      1  0.4854720000000  0.4998540000000  0.5810540000000 1.0
C      1  0.4841830000000  0.5548290000000  0.5724560000000 1.0
C      1  0.4761760000000  0.5839960000000  0.5107540000000 1.0
C      1  0.4865770000000  0.5772410000000  0.4488140000000 1.0
C      1  0.4756620000000  0.5217650000000  0.4153010000000 1.0
C      1  0.4755650000000  0.4582760000000  0.4336340000000 1.0
C      1  0.4758310000000  0.4150420000000  0.4609620000000 1.0
C      1  0.4769050000000  0.4148170000000  0.5186050000000 1.0
C      1  0.5269690000000  0.5220570000000  0.5904450000000 1.0
C      1  0.5199180000000  0.5731650000000  0.5378850000000 1.0
C      1  0.5219320000000  0.5853240000000  0.4918940000000 1.0
C      1  0.5199070000000  0.5433040000000  0.4295960000000 1.0
C      1  0.5189530000000  0.4946340000000  0.4147180000000 1.0
C      1  0.5195220000000  0.4383350000000  0.4474750000000 1.0
C      1  0.5182410000000  0.4154310000000  0.4890400000000 1.0
C      1  0.5233980000000  0.4233920000000  0.5346850000000 1.0
C      1  0.5286320000000  0.4769270000000  0.5829870000000 1.0
C      1  0.4234370000000  0.5276080000000  0.4717240000000 1.0
END
