TITL C-3577091-527-414 -1.5145386891249e-06 125000 -547.606302239886 0 0 89 (C1) n - 1
REM
REM in /home/bkarasulu/work/CARBON/AIRSS/Generating-Clusters/EDIP-Nigel-Params/with-SteepDescent/Higher-Symm/SD-CG/HFTN-CG
REM
REM
REM
REM
REM
REM ./C.cell (12c818d87b63d06a65506943cc24bca4)
REM
REM compiler GCC version 9.2.1 20190827 (Red Hat 9.2.1-1)
REM options -cpp -mtune=generic -march=x86-64 -g -O0 -fpre-include=/usr/include/finclude/math-vector-fortran.h
REM seed -1573485337 1095671606 -198664111 258145538 -1468646760 44863110 711560249 -1294829076 1789912898 1237523710 448912987 1676305984 1359969655 -1676203470 -936649123 -1655393853 -539648753 177927085 -1277636175 1632438259 679521961 1672112131 -918261904 1954422518 -463977883 92096897 -370172055 -289305557 -1123370471 886420690 -20015538 2144969852 1462014271
REM
CELL 1.54180   50.00000   50.00000   50.00000   90.00000   90.00000   90.00000
LATT -1
SFAC C  
C      1  0.5286560000000  0.4795030000000  0.5774640000000 1.0
C      1  0.5329490000000  0.4165400000000  0.5069780000000 1.0
C      1  0.5338300000000  0.4670960000000  0.4233560000000 1.0
C      1  0.5240630000000  0.5593760000000  0.4519880000000 1.0
C      1  0.5320930000000  0.5674120000000  0.5429700000000 1.0
C      1  0.5804510000000  0.4936650000000  0.5248010000000 1.0
C      1  0.5771730000000  0.4753750000000  0.5019250000000 1.0
C      1  0.5755530000000  0.4903010000000  0.4766510000000 1.0
C      1  0.5772140000000  0.5190200000000  0.4834820000000 1.0
C      1  0.5802690000000  0.5209350000000  0.5129160000000 1.0
C      1  0.4389130000000  0.4881420000000  0.4792610000000 1.0
C      1  0.4378050000000  0.5189990000000  0.4844890000000 1.0
C      1  0.4168770000000  0.5328000000000  0.5266630000000 1.0
C      1  0.4222000000000  0.4944430000000  0.5251180000000 1.0
C      1  0.4290740000000  0.4743090000000  0.5032950000000 1.0
C      1  0.5063720000000  0.5620150000000  0.5566920000000 1.0
C      1  0.5038100000000  0.4658900000000  0.5796080000000 1.0
C      1  0.5072070000000  0.4190750000000  0.4926910000000 1.0
C      1  0.5083190000000  0.4778170000000  0.4166670000000 1.0
C      1  0.5034800000000  0.5789860000000  0.4547450000000 1.0
C      1  0.4731400000000  0.4609910000000  0.4832910000000 1.0
C      1  0.4701140000000  0.5089710000000  0.4557940000000 1.0
C      1  0.4675600000000  0.5354860000000  0.5034140000000 1.0
C      1  0.4738640000000  0.5147340000000  0.5279740000000 1.0
C      1  0.4776020000000  0.4679240000000  0.5143560000000 1.0
C      1  0.5128440000000  0.5372520000000  0.5273210000000 1.0
C      1  0.5199880000000  0.4874180000000  0.5356540000000 1.0
C      1  0.5187030000000  0.4553830000000  0.4980130000000 1.0
C      1  0.5137030000000  0.4857670000000  0.4572940000000 1.0
C      1  0.5135600000000  0.5269010000000  0.4797840000000 1.0
C      1  0.4582760000000  0.4338970000000  0.4897730000000 1.0
C      1  0.4599980000000  0.4895220000000  0.4356520000000 1.0
C      1  0.4547600000000  0.5637140000000  0.4722170000000 1.0
C      1  0.4558480000000  0.5473840000000  0.5513460000000 1.0
C      1  0.4581630000000  0.4706410000000  0.5530360000000 1.0
C      1  0.4393270000000  0.4469310000000  0.5104390000000 1.0
C      1  0.4432130000000  0.4735460000000  0.4537560000000 1.0
C      1  0.4392000000000  0.5399740000000  0.4624480000000 1.0
C      1  0.4365540000000  0.5532790000000  0.5300980000000 1.0
C      1  0.4415280000000  0.4938810000000  0.5477760000000 1.0
C      1  0.5054810000000  0.4613950000000  0.5244780000000 1.0
C      1  0.5018720000000  0.4605450000000  0.4725270000000 1.0
C      1  0.4991570000000  0.5141870000000  0.4541170000000 1.0
C      1  0.4980170000000  0.5437220000000  0.5007220000000 1.0
C      1  0.5022220000000  0.5134620000000  0.5424480000000 1.0
C      1  0.5276370000000  0.5793420000000  0.5149810000000 1.0
C      1  0.5273070000000  0.5093540000000  0.5784890000000 1.0
C      1  0.5300150000000  0.4266220000000  0.5359760000000 1.0
C      1  0.5303340000000  0.4437650000000  0.4433630000000 1.0
C      1  0.5250790000000  0.5396470000000  0.4296510000000 1.0
C      1  0.5577800000000  0.4918420000000  0.5450310000000 1.0
C      1  0.5564740000000  0.4562330000000  0.5057800000000 1.0
C      1  0.5523150000000  0.4837050000000  0.4606470000000 1.0
C      1  0.5518160000000  0.5306130000000  0.4762140000000 1.0
C      1  0.5529160000000  0.5281770000000  0.5205740000000 1.0
C      1  0.5517740000000  0.5435730000000  0.5460090000000 1.0
C      1  0.5504990000000  0.4682440000000  0.5609290000000 1.0
C      1  0.5545510000000  0.4313440000000  0.4907140000000 1.0
C      1  0.5503830000000  0.4902010000000  0.4331920000000 1.0
C      1  0.5448320000000  0.5574630000000  0.4719170000000 1.0
C      1  0.4799190000000  0.5633130000000  0.4554980000000 1.0
C      1  0.4805850000000  0.5622240000000  0.5442330000000 1.0
C      1  0.4796690000000  0.4782490000000  0.5716950000000 1.0
C      1  0.4805700000000  0.4189210000000  0.5042100000000 1.0
C      1  0.4833080000000  0.4718530000000  0.4281500000000 1.0
C      1  0.4536210000000  0.4450890000000  0.4534370000000 1.0
C      1  0.4539650000000  0.5280470000000  0.4393170000000 1.0
C      1  0.4540240000000  0.5634720000000  0.5063860000000 1.0
C      1  0.4543240000000  0.5178640000000  0.5617070000000 1.0
C      1  0.4547450000000  0.4452310000000  0.5366850000000 1.0
C      1  0.5454140000000  0.5741150000000  0.4943110000000 1.0
C      1  0.5471500000000  0.5267830000000  0.5683630000000 1.0
C      1  0.5491240000000  0.4426000000000  0.5490990000000 1.0
C      1  0.5491560000000  0.4349160000000  0.4628630000000 1.0
C      1  0.5422980000000  0.5170550000000  0.4279560000000 1.0
C      1  0.4769600000000  0.5065520000000  0.5778860000000 1.0
C      1  0.4787840000000  0.4271020000000  0.5322100000000 1.0
C      1  0.4791760000000  0.4451200000000  0.4376380000000 1.0
C      1  0.4760090000000  0.5463660000000  0.4322460000000 1.0
C      1  0.4769480000000  0.5777250000000  0.5198270000000 1.0
C      1  0.5012710000000  0.5213060000000  0.5801740000000 1.0
C      1  0.5034380000000  0.4299610000000  0.5466710000000 1.0
C      1  0.5036140000000  0.4323710000000  0.4464300000000 1.0
C      1  0.4990260000000  0.5334560000000  0.4206100000000 1.0
C      1  0.5008850000000  0.5817540000000  0.5045410000000 1.0
C      1  0.4842500000000  0.4955000000000  0.5071490000000 1.0
C      1  0.4138710000000  0.5228570000000  0.5008820000000 1.0
C      1  0.5121320000000  0.4989120000000  0.4934790000000 1.0
C      1  0.5382350000000  0.4941980000000  0.5113290000000 1.0
END
