TITL C-3578208-4450-164 -1.49177896434582e-06 125000 -979.458924015646 0 0 157 (C1) n - 1
REM
REM in /home/bkarasulu/work/CARBON/AIRSS/Generating-Clusters/EDIP-Nigel-Params/with-SteepDescent/Higher-Symm/SD-CG/HFTN-CG
REM
REM
REM
REM
REM
REM ./C.cell (12c818d87b63d06a65506943cc24bca4)
REM
REM compiler GCC version 9.2.1 20190827 (Red Hat 9.2.1-1)
REM options -cpp -mtune=generic -march=x86-64 -g -O0 -fpre-include=/usr/include/finclude/math-vector-fortran.h
REM seed -2082136672 -1490609331 1110494603 474585111 1958539299 -682704626 -68677302 615483398 -474619498 141504380 -1664825938 1908218008 1252994178 -1683170771 300427052 -1971046575 -55440965 -554173512 1274009292 1349483854 208761324 533701305 -1605411954 1169881533 -732670504 637401635 -248632009 450423071 517071638 1266396258 1402118901 1552180991 -1326892948
REM
CELL 1.54180   50.00000   50.00000   50.00000   90.00000   90.00000   90.00000
LATT -1
SFAC C  
C      1  0.4653640000000  0.5347080000000  0.4943710000000 1.0
C      1  0.4658450000000  0.4650210000000  0.5053310000000 1.0
C      1  0.4636770000000  0.3987680000000  0.5036810000000 1.0
C      1  0.4640620000000  0.6005900000000  0.4961330000000 1.0
C      1  0.4413840000000  0.5727610000000  0.4634060000000 1.0
C      1  0.4417190000000  0.4286580000000  0.5360230000000 1.0
C      1  0.5466340000000  0.5024930000000  0.4095860000000 1.0
C      1  0.5461740000000  0.4978810000000  0.5904150000000 1.0
C      1  0.4797660000000  0.5600000000000  0.5023790000000 1.0
C      1  0.4792930000000  0.4393120000000  0.4973660000000 1.0
C      1  0.4182530000000  0.4524950000000  0.5095150000000 1.0
C      1  0.4196900000000  0.5461820000000  0.4890460000000 1.0
C      1  0.4406860000000  0.4484170000000  0.4697510000000 1.0
C      1  0.4414290000000  0.5507000000000  0.5297070000000 1.0
C      1  0.4817280000000  0.5668510000000  0.4252750000000 1.0
C      1  0.4811030000000  0.4299900000000  0.5740670000000 1.0
C      1  0.5590580000000  0.5665120000000  0.5589840000000 1.0
C      1  0.5611700000000  0.4331700000000  0.4383140000000 1.0
C      1  0.5083340000000  0.3973630000000  0.5241150000000 1.0
C      1  0.5079380000000  0.6028640000000  0.4748890000000 1.0
C      1  0.5315800000000  0.5284000000000  0.5831980000000 1.0
C      1  0.5315390000000  0.4725780000000  0.4160750000000 1.0
C      1  0.4878610000000  0.5310560000000  0.4569620000000 1.0
C      1  0.4872190000000  0.4688130000000  0.5437640000000 1.0
C      1  0.4241880000000  0.4554770000000  0.5391560000000 1.0
C      1  0.4260010000000  0.5448610000000  0.4579510000000 1.0
C      1  0.5121160000000  0.5798290000000  0.5503510000000 1.0
C      1  0.5105900000000  0.4197620000000  0.4487070000000 1.0
C      1  0.6028600000000  0.5303650000000  0.4950970000000 1.0
C      1  0.5954970000000  0.4621310000000  0.5052530000000 1.0
C      1  0.6016520000000  0.5176800000000  0.4705160000000 1.0
C      1  0.5989930000000  0.4789600000000  0.5280960000000 1.0
C      1  0.4717620000000  0.5561690000000  0.5328290000000 1.0
C      1  0.4707170000000  0.4432590000000  0.4667570000000 1.0
C      1  0.5483330000000  0.4945440000000  0.5283930000000 1.0
C      1  0.5487360000000  0.5050600000000  0.4707500000000 1.0
C      1  0.5912970000000  0.4884450000000  0.4219530000000 1.0
C      1  0.5904070000000  0.5117860000000  0.5769260000000 1.0
C      1  0.5136310000000  0.5216390000000  0.5031510000000 1.0
C      1  0.5133560000000  0.4781610000000  0.4965670000000 1.0
C      1  0.4122340000000  0.5174590000000  0.4461490000000 1.0
C      1  0.4154100000000  0.4813070000000  0.5524850000000 1.0
C      1  0.6003330000000  0.4646820000000  0.5520490000000 1.0
C      1  0.6008180000000  0.5349940000000  0.4486610000000 1.0
C      1  0.5291340000000  0.4006420000000  0.4655260000000 1.0
C      1  0.5282220000000  0.6010690000000  0.5344220000000 1.0
C      1  0.5290170000000  0.5064470000000  0.5507850000000 1.0
C      1  0.5284400000000  0.4935880000000  0.4488300000000 1.0
C      1  0.4716210000000  0.4560020000000  0.5832600000000 1.0
C      1  0.4720990000000  0.5393910000000  0.4168440000000 1.0
C      1  0.5170090000000  0.5761550000000  0.5798190000000 1.0
C      1  0.5166200000000  0.4247490000000  0.4195820000000 1.0
C      1  0.3991880000000  0.5034390000000  0.5381910000000 1.0
C      1  0.3960360000000  0.4950820000000  0.4598430000000 1.0
C      1  0.4677590000000  0.4922450000000  0.4706140000000 1.0
C      1  0.4694530000000  0.5082230000000  0.5293810000000 1.0
C      1  0.5806540000000  0.4954230000000  0.4694220000000 1.0
C      1  0.5791430000000  0.5029610000000  0.5288610000000 1.0
C      1  0.4208520000000  0.5721490000000  0.5237180000000 1.0
C      1  0.4202240000000  0.4267230000000  0.4756090000000 1.0
C      1  0.5507100000000  0.4236020000000  0.5432670000000 1.0
C      1  0.5497380000000  0.5770880000000  0.4578530000000 1.0
C      1  0.5647390000000  0.5421160000000  0.5457150000000 1.0
C      1  0.5641390000000  0.4582570000000  0.4513870000000 1.0
C      1  0.5411210000000  0.4414390000000  0.4173370000000 1.0
C      1  0.5409580000000  0.5591080000000  0.5815690000000 1.0
C      1  0.4415210000000  0.4935180000000  0.5790450000000 1.0
C      1  0.4398990000000  0.5050400000000  0.4217620000000 1.0
C      1  0.5742910000000  0.4310470000000  0.4946260000000 1.0
C      1  0.5660170000000  0.5751030000000  0.5094480000000 1.0
C      1  0.4788210000000  0.6029100000000  0.4700160000000 1.0
C      1  0.4791230000000  0.3971720000000  0.5295470000000 1.0
C      1  0.4415950000000  0.5807040000000  0.4932890000000 1.0
C      1  0.4410540000000  0.4187320000000  0.5064270000000 1.0
C      1  0.5117570000000  0.5980210000000  0.5065760000000 1.0
C      1  0.5111760000000  0.4023600000000  0.4923400000000 1.0
C      1  0.3936490000000  0.5374970000000  0.5014820000000 1.0
C      1  0.3931090000000  0.4624140000000  0.4963750000000 1.0
C      1  0.4936050000000  0.4405940000000  0.4094940000000 1.0
C      1  0.4938400000000  0.5606740000000  0.5901740000000 1.0
C      1  0.5454120000000  0.4656800000000  0.5300310000000 1.0
C      1  0.5467490000000  0.5342280000000  0.4704010000000 1.0
C      1  0.5553410000000  0.5882170000000  0.5352230000000 1.0
C      1  0.5543610000000  0.4174170000000  0.4647990000000 1.0
C      1  0.4009950000000  0.4662800000000  0.4495430000000 1.0
C      1  0.4023910000000  0.5319710000000  0.5488930000000 1.0
C      1  0.4798990000000  0.4163300000000  0.4540220000000 1.0
C      1  0.4813960000000  0.5827470000000  0.5449520000000 1.0
C      1  0.5769540000000  0.4647710000000  0.5673610000000 1.0
C      1  0.5775920000000  0.5354570000000  0.4332290000000 1.0
C      1  0.5249360000000  0.5556950000000  0.5326390000000 1.0
C      1  0.5186360000000  0.4435320000000  0.4659110000000 1.0
C      1  0.4465970000000  0.4565890000000  0.4223040000000 1.0
C      1  0.4468020000000  0.5438310000000  0.5776130000000 1.0
C      1  0.5110230000000  0.4800510000000  0.5600320000000 1.0
C      1  0.5110950000000  0.5202880000000  0.4399140000000 1.0
C      1  0.4903810000000  0.5598900000000  0.4678850000000 1.0
C      1  0.4905420000000  0.4402300000000  0.5322700000000 1.0
C      1  0.5132700000000  0.5662610000000  0.5052740000000 1.0
C      1  0.5110770000000  0.4337970000000  0.4934640000000 1.0
C      1  0.5785670000000  0.5241750000000  0.5074620000000 1.0
C      1  0.5747960000000  0.4753030000000  0.4912600000000 1.0
C      1  0.4326060000000  0.5339200000000  0.5520390000000 1.0
C      1  0.4314550000000  0.4657350000000  0.4477850000000 1.0
C      1  0.4679440000000  0.4360630000000  0.4231040000000 1.0
C      1  0.4681380000000  0.5644450000000  0.5763170000000 1.0
C      1  0.5528290000000  0.5485780000000  0.4459600000000 1.0
C      1  0.5520250000000  0.4518900000000  0.5549640000000 1.0
C      1  0.4833240000000  0.4854080000000  0.4218310000000 1.0
C      1  0.4839930000000  0.5163120000000  0.5777730000000 1.0
C      1  0.5727400000000  0.5094380000000  0.4200220000000 1.0
C      1  0.5724690000000  0.4906470000000  0.5807950000000 1.0
C      1  0.4929900000000  0.4873120000000  0.5836670000000 1.0
C      1  0.4924800000000  0.5153700000000  0.4155740000000 1.0
C      1  0.5111240000000  0.5686940000000  0.4287560000000 1.0
C      1  0.5106050000000  0.4302070000000  0.5704640000000 1.0
C      1  0.5030990000000  0.5327850000000  0.5923160000000 1.0
C      1  0.5027120000000  0.4685870000000  0.4076320000000 1.0
C      1  0.4835830000000  0.6009350000000  0.5188020000000 1.0
C      1  0.4828670000000  0.3984050000000  0.4805460000000 1.0
C      1  0.5082660000000  0.5186010000000  0.3911490000000 1.0
C      1  0.5078450000000  0.4838050000000  0.6084940000000 1.0
C      1  0.3954450000000  0.4452890000000  0.4716130000000 1.0
C      1  0.3963580000000  0.5532750000000  0.5270720000000 1.0
C      1  0.5592760000000  0.5467750000000  0.5169740000000 1.0
C      1  0.5576690000000  0.4535030000000  0.4807040000000 1.0
C      1  0.5844440000000  0.5216210000000  0.5515340000000 1.0
C      1  0.5860440000000  0.4767380000000  0.4466950000000 1.0
C      1  0.4829610000000  0.4727660000000  0.4549540000000 1.0
C      1  0.4845150000000  0.5283930000000  0.5444060000000 1.0
C      1  0.4541380000000  0.5279650000000  0.4372090000000 1.0
C      1  0.4566780000000  0.4715980000000  0.5646130000000 1.0
C      1  0.5272130000000  0.4567010000000  0.5728620000000 1.0
C      1  0.5281690000000  0.5432080000000  0.4277830000000 1.0
C      1  0.4055250000000  0.5102200000000  0.5093730000000 1.0
C      1  0.4059270000000  0.4887400000000  0.4876280000000 1.0
C      1  0.4391100000000  0.5307010000000  0.5065930000000 1.0
C      1  0.4390870000000  0.4674890000000  0.4933010000000 1.0
C      1  0.4398540000000  0.4935290000000  0.4593170000000 1.0
C      1  0.4429590000000  0.5066450000000  0.5423810000000 1.0
C      1  0.5320560000000  0.4734840000000  0.5987140000000 1.0
C      1  0.5328480000000  0.5271790000000  0.4016740000000 1.0
C      1  0.5202020000000  0.5819600000000  0.4552660000000 1.0
C      1  0.5208280000000  0.4182220000000  0.5438050000000 1.0
C      1  0.5633560000000  0.4206480000000  0.5186180000000 1.0
C      1  0.5596190000000  0.5833290000000  0.4833530000000 1.0
C      1  0.4696980000000  0.5784190000000  0.4537720000000 1.0
C      1  0.4701980000000  0.4217700000000  0.5456980000000 1.0
C      1  0.4558940000000  0.4821210000000  0.4119580000000 1.0
C      1  0.4564810000000  0.5182020000000  0.5879210000000 1.0
C      1  0.5259530000000  0.5440130000000  0.4881400000000 1.0
C      1  0.5257830000000  0.4550210000000  0.5110060000000 1.0
C      1  0.5110130000000  0.4727300000000  0.4653690000000 1.0
C      1  0.5126320000000  0.5274850000000  0.5341400000000 1.0
C      1  0.4833280000000  0.5151090000000  0.4821240000000 1.0
C      1  0.4838290000000  0.4845300000000  0.5180890000000 1.0
C      1  0.5339510000000  0.4998000000000  0.4997740000000 1.0
END
