TITL C-3578204-4308-112 8.9412276311134e-09 125000 -802.108732730038 0 0 127 (C1) n - 1
REM
REM in /home/bkarasulu/work/CARBON/AIRSS/Generating-Clusters/EDIP-Nigel-Params/with-SteepDescent/Higher-Symm/SD-CG/HFTN-CG
REM
REM
REM
REM
REM
REM ./C.cell (12c818d87b63d06a65506943cc24bca4)
REM
REM compiler GCC version 9.2.1 20190827 (Red Hat 9.2.1-1)
REM options -cpp -mtune=generic -march=x86-64 -g -O0 -fpre-include=/usr/include/finclude/math-vector-fortran.h
REM seed -1137840543 633106526 95340523 -1304706707 1209924942 -584845156 -684905456 685458713 1864752117 1993210839 -444081617 -1662556303 254383984 2100658320 1517620910 -355308904 -1375314553 665474312 1996132831 1028867020 -1574663593 584796255 -1471006525 1566185955 437226833 1117302100 -1020952938 -656653011 1980083086 986152743 667223527 -88182426 1956500063
REM
CELL 1.54180   50.00000   50.00000   50.00000   90.00000   90.00000   90.00000
LATT -1
SFAC C  
C      1  0.4728720000000  0.5416920000000  0.4225640000000 1.0
C      1  0.4193780000000  0.5423180000000  0.5019690000000 1.0
C      1  0.4756460000000  0.5420690000000  0.5770530000000 1.0
C      1  0.5667290000000  0.5424690000000  0.5469600000000 1.0
C      1  0.5651890000000  0.5409100000000  0.4508530000000 1.0
C      1  0.5381820000000  0.4296510000000  0.4469980000000 1.0
C      1  0.4611870000000  0.4287450000000  0.4474750000000 1.0
C      1  0.4411420000000  0.4316320000000  0.5212440000000 1.0
C      1  0.5020780000000  0.4299840000000  0.5660650000000 1.0
C      1  0.5642250000000  0.4285280000000  0.5206370000000 1.0
C      1  0.5545170000000  0.5639790000000  0.4657750000000 1.0
C      1  0.4845210000000  0.5642330000000  0.4373470000000 1.0
C      1  0.4349280000000  0.5657160000000  0.4947720000000 1.0
C      1  0.4750360000000  0.5658940000000  0.5594950000000 1.0
C      1  0.5483400000000  0.5647020000000  0.5408840000000 1.0
C      1  0.5784850000000  0.5423920000000  0.4994950000000 1.0
C      1  0.5246930000000  0.5435190000000  0.4229710000000 1.0
C      1  0.4350350000000  0.5431240000000  0.4531830000000 1.0
C      1  0.4392130000000  0.5413880000000  0.5477430000000 1.0
C      1  0.5242640000000  0.5424990000000  0.5738380000000 1.0
C      1  0.5695210000000  0.4695700000000  0.4592240000000 1.0
C      1  0.4810120000000  0.4680350000000  0.4203200000000 1.0
C      1  0.4181740000000  0.4691340000000  0.4946650000000 1.0
C      1  0.4695330000000  0.4700460000000  0.5761130000000 1.0
C      1  0.5579890000000  0.4668740000000  0.5536360000000 1.0
C      1  0.5893940000000  0.4670220000000  0.5061550000000 1.0
C      1  0.5322190000000  0.4675760000000  0.4163860000000 1.0
C      1  0.4304220000000  0.4688570000000  0.4435220000000 1.0
C      1  0.4272100000000  0.4687220000000  0.5489050000000 1.0
C      1  0.5246100000000  0.4667430000000  0.5895510000000 1.0
C      1  0.4441640000000  0.5369920000000  0.4268420000000 1.0
C      1  0.4154440000000  0.5361550000000  0.5302790000000 1.0
C      1  0.5011000000000  0.5348150000000  0.5885550000000 1.0
C      1  0.5854880000000  0.5351180000000  0.5262420000000 1.0
C      1  0.5517520000000  0.5347250000000  0.4259300000000 1.0
C      1  0.4603030000000  0.5185510000000  0.5396740000000 1.0
C      1  0.5226330000000  0.5139650000000  0.5488160000000 1.0
C      1  0.5530690000000  0.5146730000000  0.4938720000000 1.0
C      1  0.5115930000000  0.5164510000000  0.4470590000000 1.0
C      1  0.4545970000000  0.5173560000000  0.4743500000000 1.0
C      1  0.5293710000000  0.4952460000000  0.5974630000000 1.0
C      1  0.6018600000000  0.4947430000000  0.5032010000000 1.0
C      1  0.5333800000000  0.4945870000000  0.4035990000000 1.0
C      1  0.4176240000000  0.4956250000000  0.4385550000000 1.0
C      1  0.4170980000000  0.4948350000000  0.5582630000000 1.0
C      1  0.5785590000000  0.4520690000000  0.5332090000000 1.0
C      1  0.5531530000000  0.4538650000000  0.4363980000000 1.0
C      1  0.4552840000000  0.4531820000000  0.4295100000000 1.0
C      1  0.4221690000000  0.4544890000000  0.5215920000000 1.0
C      1  0.4967260000000  0.4551260000000  0.5812360000000 1.0
C      1  0.4072670000000  0.5099220000000  0.4622890000000 1.0
C      1  0.4319700000000  0.5097140000000  0.5775050000000 1.0
C      1  0.5515730000000  0.5113360000000  0.5892130000000 1.0
C      1  0.6007580000000  0.5104110000000  0.4792680000000 1.0
C      1  0.5090110000000  0.5106900000000  0.3976720000000 1.0
C      1  0.5258250000000  0.4699240000000  0.4898170000000 1.0
C      1  0.4973460000000  0.4824500000000  0.4589890000000 1.0
C      1  0.4636880000000  0.4868300000000  0.4872040000000 1.0
C      1  0.4875600000000  0.4716570000000  0.5210330000000 1.0
C      1  0.5347140000000  0.4625290000000  0.5350590000000 1.0
C      1  0.4948980000000  0.4038190000000  0.4761100000000 1.0
C      1  0.4761760000000  0.4041550000000  0.4988810000000 1.0
C      1  0.4918930000000  0.4035320000000  0.5241340000000 1.0
C      1  0.5205130000000  0.4031060000000  0.5169850000000 1.0
C      1  0.5222110000000  0.4038050000000  0.4873690000000 1.0
C      1  0.5135840000000  0.5657820000000  0.4366240000000 1.0
C      1  0.4444910000000  0.5658260000000  0.4672960000000 1.0
C      1  0.4503300000000  0.5685310000000  0.5439740000000 1.0
C      1  0.5247160000000  0.5658810000000  0.5575700000000 1.0
C      1  0.5637420000000  0.5658900000000  0.4932640000000 1.0
C      1  0.4225170000000  0.4988100000000  0.4960400000000 1.0
C      1  0.4727080000000  0.4998380000000  0.5656300000000 1.0
C      1  0.5511310000000  0.5014790000000  0.5469760000000 1.0
C      1  0.5607970000000  0.4998620000000  0.4663030000000 1.0
C      1  0.4816660000000  0.4982060000000  0.4223210000000 1.0
C      1  0.5046410000000  0.5227870000000  0.4752430000000 1.0
C      1  0.4786990000000  0.5355110000000  0.4825890000000 1.0
C      1  0.4829570000000  0.5290640000000  0.5206590000000 1.0
C      1  0.5109010000000  0.5199950000000  0.5223350000000 1.0
C      1  0.5242290000000  0.5221570000000  0.4967630000000 1.0
C      1  0.4720940000000  0.5734150000000  0.4620680000000 1.0
C      1  0.4557990000000  0.5735070000000  0.5146190000000 1.0
C      1  0.4995270000000  0.5736460000000  0.5453360000000 1.0
C      1  0.5448430000000  0.5741480000000  0.5136170000000 1.0
C      1  0.5275580000000  0.5739880000000  0.4606500000000 1.0
C      1  0.5237020000000  0.5929770000000  0.5067260000000 1.0
C      1  0.5145780000000  0.5929300000000  0.4786770000000 1.0
C      1  0.4849980000000  0.5941730000000  0.4782330000000 1.0
C      1  0.4755620000000  0.5968000000000  0.5069170000000 1.0
C      1  0.5000920000000  0.5940440000000  0.5243880000000 1.0
C      1  0.5488330000000  0.4681670000000  0.5086670000000 1.0
C      1  0.5261270000000  0.4697280000000  0.4597700000000 1.0
C      1  0.4687820000000  0.4688810000000  0.4627530000000 1.0
C      1  0.4566320000000  0.4724870000000  0.5170870000000 1.0
C      1  0.5056840000000  0.4672610000000  0.5451500000000 1.0
C      1  0.4542630000000  0.4231880000000  0.4971000000000 1.0
C      1  0.4837830000000  0.4220760000000  0.5450760000000 1.0
C      1  0.5393640000000  0.4187480000000  0.5335480000000 1.0
C      1  0.5419260000000  0.4210370000000  0.4747720000000 1.0
C      1  0.4889580000000  0.4216790000000  0.4537000000000 1.0
C      1  0.5640750000000  0.4307520000000  0.4910080000000 1.0
C      1  0.5106000000000  0.4299720000000  0.4363070000000 1.0
C      1  0.4447490000000  0.4326220000000  0.4715230000000 1.0
C      1  0.4563720000000  0.4312440000000  0.5461430000000 1.0
C      1  0.5314700000000  0.4271290000000  0.5617060000000 1.0
C      1  0.4017740000000  0.5290770000000  0.4832000000000 1.0
C      1  0.4530650000000  0.5260090000000  0.5867950000000 1.0
C      1  0.5679710000000  0.5262850000000  0.5716130000000 1.0
C      1  0.5890350000000  0.5249740000000  0.4578130000000 1.0
C      1  0.4868940000000  0.5296730000000  0.3999130000000 1.0
C      1  0.5558170000000  0.5087970000000  0.4147200000000 1.0
C      1  0.4334990000000  0.5111910000000  0.4196650000000 1.0
C      1  0.4063850000000  0.5092870000000  0.5356340000000 1.0
C      1  0.5037300000000  0.5081660000000  0.5982880000000 1.0
C      1  0.5959040000000  0.5086430000000  0.5272590000000 1.0
C      1  0.4601970000000  0.5006980000000  0.4456050000000 1.0
C      1  0.4419480000000  0.5005390000000  0.5226900000000 1.0
C      1  0.5040250000000  0.4941670000000  0.5620280000000 1.0
C      1  0.5602790000000  0.4969060000000  0.5169110000000 1.0
C      1  0.5370050000000  0.4984000000000  0.4469610000000 1.0
C      1  0.4271320000000  0.4557590000000  0.4698470000000 1.0
C      1  0.4483860000000  0.4542750000000  0.5630120000000 1.0
C      1  0.5458230000000  0.4504820000000  0.5761430000000 1.0
C      1  0.5800790000000  0.4532440000000  0.4815940000000 1.0
C      1  0.5066400000000  0.4535150000000  0.4191690000000 1.0
C      1  0.4814090000000  0.5575090000000  0.5082300000000 1.0
C      1  0.5009790000000  0.4851800000000  0.4976730000000 1.0
END
