TITL C-3578198-8939-30 1.38195221113458e-06 125000 -375.762704698367 0 0 61 (C1) n - 1
REM
REM in /home/bkarasulu/work/CARBON/AIRSS/Generating-Clusters/EDIP-Nigel-Params/with-SteepDescent/Higher-Symm/SD-CG/HFTN-CG
REM
REM
REM
REM
REM
REM ./C.cell (12c818d87b63d06a65506943cc24bca4)
REM
REM compiler GCC version 9.2.1 20190827 (Red Hat 9.2.1-1)
REM options -cpp -mtune=generic -march=x86-64 -g -O0 -fpre-include=/usr/include/finclude/math-vector-fortran.h
REM seed 624604803 283810176 1011769706 -338062904 -2072179996 497509446 1932444587 -638821968 1825079531 2095541576 -1656624633 -292879252 1692550067 1349282368 1693813708 428201598 -130500941 1263639479 -1843038434 1709838189 1471592777 -487073864 1446027229 567482047 -846044659 626058977 262285528 -1746725913 705064433 -972533094 155631362 966310861 -592953828
REM
CELL 1.54180   50.00000   50.00000   50.00000   90.00000   90.00000   90.00000
LATT -1
SFAC C  
C      1  0.5424260000000  0.4484530000000  0.4715880000000 1.0
C      1  0.4702370000000  0.4446980000000  0.4778260000000 1.0
C      1  0.4440250000000  0.5171260000000  0.4823940000000 1.0
C      1  0.4946420000000  0.5590710000000  0.4775830000000 1.0
C      1  0.5596230000000  0.5219830000000  0.4796420000000 1.0
C      1  0.4901000000000  0.5308050000000  0.5628280000000 1.0
C      1  0.5183180000000  0.5201880000000  0.5627490000000 1.0
C      1  0.5152580000000  0.4906980000000  0.5621220000000 1.0
C      1  0.4870060000000  0.4824560000000  0.5658830000000 1.0
C      1  0.4709110000000  0.5075210000000  0.5667480000000 1.0
C      1  0.4311270000000  0.5119830000000  0.5102760000000 1.0
C      1  0.4832840000000  0.5692580000000  0.5028890000000 1.0
C      1  0.5656690000000  0.5318940000000  0.5080050000000 1.0
C      1  0.5505500000000  0.4432220000000  0.5005110000000 1.0
C      1  0.4779910000000  0.4335500000000  0.5044540000000 1.0
C      1  0.5238580000000  0.5600150000000  0.4746660000000 1.0
C      1  0.5671660000000  0.4939610000000  0.4724140000000 1.0
C      1  0.5185030000000  0.4331330000000  0.4634860000000 1.0
C      1  0.4480020000000  0.4642680000000  0.4787300000000 1.0
C      1  0.4462110000000  0.5452780000000  0.4644450000000 1.0
C      1  0.5394330000000  0.5322060000000  0.5437210000000 1.0
C      1  0.5289630000000  0.4755880000000  0.5412110000000 1.0
C      1  0.4779150000000  0.4589100000000  0.5524960000000 1.0
C      1  0.4455390000000  0.5067080000000  0.5519330000000 1.0
C      1  0.4838320000000  0.5566600000000  0.5517970000000 1.0
C      1  0.4553750000000  0.5625500000000  0.5038040000000 1.0
C      1  0.5521530000000  0.5563490000000  0.5157130000000 1.0
C      1  0.5670050000000  0.4671000000000  0.5110860000000 1.0
C      1  0.5049690000000  0.4192380000000  0.5035220000000 1.0
C      1  0.4352750000000  0.4855120000000  0.5214430000000 1.0
C      1  0.4952690000000  0.4518120000000  0.4622680000000 1.0
C      1  0.4520630000000  0.4914800000000  0.4656230000000 1.0
C      1  0.4757270000000  0.5477200000000  0.4567740000000 1.0
C      1  0.5365720000000  0.5355810000000  0.4629700000000 1.0
C      1  0.5429160000000  0.4779370000000  0.4638260000000 1.0
C      1  0.4426140000000  0.5272420000000  0.5321380000000 1.0
C      1  0.4977100000000  0.5587200000000  0.5269180000000 1.0
C      1  0.5597630000000  0.5138070000000  0.5311120000000 1.0
C      1  0.5254160000000  0.4353100000000  0.5177610000000 1.0
C      1  0.4682280000000  0.4484230000000  0.5283390000000 1.0
C      1  0.5313520000000  0.4935550000000  0.4974420000000 1.0
C      1  0.5118580000000  0.4706730000000  0.4944510000000 1.0
C      1  0.4856860000000  0.4852480000000  0.4866710000000 1.0
C      1  0.4701020000000  0.5279010000000  0.4967370000000 1.0
C      1  0.5181950000000  0.5211570000000  0.4941130000000 1.0
C      1  0.5826800000000  0.4794130000000  0.4910160000000 1.0
C      1  0.5139090000000  0.4096680000000  0.4783700000000 1.0
C      1  0.4339370000000  0.4648780000000  0.5029850000000 1.0
C      1  0.4391770000000  0.5667680000000  0.4814610000000 1.0
C      1  0.5382900000000  0.5699870000000  0.4962890000000 1.0
C      1  0.4964660000000  0.4758810000000  0.4444110000000 1.0
C      1  0.4743910000000  0.4955550000000  0.4450430000000 1.0
C      1  0.4881900000000  0.5230140000000  0.4427790000000 1.0
C      1  0.5185100000000  0.5186660000000  0.4448140000000 1.0
C      1  0.5227750000000  0.4894870000000  0.4443760000000 1.0
C      1  0.5101130000000  0.4599940000000  0.5247280000000 1.0
C      1  0.4788340000000  0.4836750000000  0.5165630000000 1.0
C      1  0.4776620000000  0.5142120000000  0.5238920000000 1.0
C      1  0.5075840000000  0.5303760000000  0.5220850000000 1.0
C      1  0.5480620000000  0.4878610000000  0.5220450000000 1.0
C      1  0.4924060000000  0.5146660000000  0.4802700000000 1.0
END
