TITL C-3578196-9646-492 1.93090702884342e-06 125000 -535.498540184118 0 0 86 (C1) n - 1
REM
REM in /home/bkarasulu/work/CARBON/AIRSS/Generating-Clusters/EDIP-Nigel-Params/with-SteepDescent/Higher-Symm/SD-CG/HFTN-CG
REM
REM
REM
REM
REM
REM ./C.cell (12c818d87b63d06a65506943cc24bca4)
REM
REM compiler GCC version 9.2.1 20190827 (Red Hat 9.2.1-1)
REM options -cpp -mtune=generic -march=x86-64 -g -O0 -fpre-include=/usr/include/finclude/math-vector-fortran.h
REM seed 974576095 -702024252 1098022233 -1509065228 -1993020668 753091788 1561319275 1625422603 -909950645 1497435297 694505735 -169688707 1818235286 -1523934699 -828188523 1300828479 1287813116 -1967480169 -2074497021 -547726904 -459259292 -479816332 756772397 -1833504402 849932515 -1503793497 -11915313 1222946997 -940089497 -1553196999 1417229917 -829904940 891747600
REM
CELL 1.54180   50.00000   50.00000   50.00000   90.00000   90.00000   90.00000
LATT -1
SFAC C  
C      1  0.5526940000000  0.4936920000000  0.4337720000000 1.0
C      1  0.4765400000000  0.5831110000000  0.5322690000000 1.0
C      1  0.5695580000000  0.4787560000000  0.5233710000000 1.0
C      1  0.4641100000000  0.4451860000000  0.4432350000000 1.0
C      1  0.5268410000000  0.5067860000000  0.4254100000000 1.0
C      1  0.5049150000000  0.5304560000000  0.5036360000000 1.0
C      1  0.4577780000000  0.5094880000000  0.5461760000000 1.0
C      1  0.5001820000000  0.5075230000000  0.4599990000000 1.0
C      1  0.5698740000000  0.5099900000000  0.4540700000000 1.0
C      1  0.5487270000000  0.5780470000000  0.5200840000000 1.0
C      1  0.4289090000000  0.4691020000000  0.5035530000000 1.0
C      1  0.5606310000000  0.5558940000000  0.5330180000000 1.0
C      1  0.5415480000000  0.5087990000000  0.4884350000000 1.0
C      1  0.4605000000000  0.5185230000000  0.4823240000000 1.0
C      1  0.4706430000000  0.4806370000000  0.5384110000000 1.0
C      1  0.5144990000000  0.5582960000000  0.4866530000000 1.0
C      1  0.4543740000000  0.4694850000000  0.4305510000000 1.0
C      1  0.4738550000000  0.4915720000000  0.4248140000000 1.0
C      1  0.5815440000000  0.4994350000000  0.5042180000000 1.0
C      1  0.4849120000000  0.4798200000000  0.4606390000000 1.0
C      1  0.5487480000000  0.5161470000000  0.5164030000000 1.0
C      1  0.4007700000000  0.5052240000000  0.4842140000000 1.0
C      1  0.4238600000000  0.5121390000000  0.5278040000000 1.0
C      1  0.5073440000000  0.4804740000000  0.5016550000000 1.0
C      1  0.4444160000000  0.5640600000000  0.4776410000000 1.0
C      1  0.5607380000000  0.4670060000000  0.4700890000000 1.0
C      1  0.5718540000000  0.4502570000000  0.5147020000000 1.0
C      1  0.4757390000000  0.5264780000000  0.4574660000000 1.0
C      1  0.4547800000000  0.4647590000000  0.5176400000000 1.0
C      1  0.4828880000000  0.5552920000000  0.4528870000000 1.0
C      1  0.5077140000000  0.4467970000000  0.5399790000000 1.0
C      1  0.5472680000000  0.4237340000000  0.4883140000000 1.0
C      1  0.4950140000000  0.5309560000000  0.5771020000000 1.0
C      1  0.5440320000000  0.5197060000000  0.5674770000000 1.0
C      1  0.5160140000000  0.5279060000000  0.5323330000000 1.0
C      1  0.5462920000000  0.5480840000000  0.5574320000000 1.0
C      1  0.5160540000000  0.4612070000000  0.4358550000000 1.0
C      1  0.5458470000000  0.4661640000000  0.4439120000000 1.0
C      1  0.4312300000000  0.4807880000000  0.4433980000000 1.0
C      1  0.5519810000000  0.5283970000000  0.4692760000000 1.0
C      1  0.5021280000000  0.4770680000000  0.5305400000000 1.0
C      1  0.4268120000000  0.4546590000000  0.4783750000000 1.0
C      1  0.4881950000000  0.5962680000000  0.5121360000000 1.0
C      1  0.4775340000000  0.4879970000000  0.5850110000000 1.0
C      1  0.5790550000000  0.4897210000000  0.4746860000000 1.0
C      1  0.5644280000000  0.5490400000000  0.4865390000000 1.0
C      1  0.5208630000000  0.4324490000000  0.4818480000000 1.0
C      1  0.4971610000000  0.4610160000000  0.4833310000000 1.0
C      1  0.4812400000000  0.4078020000000  0.4751500000000 1.0
C      1  0.5131010000000  0.5063000000000  0.4880170000000 1.0
C      1  0.4336330000000  0.5378090000000  0.5178090000000 1.0
C      1  0.4703450000000  0.5733980000000  0.4717830000000 1.0
C      1  0.4435920000000  0.4347730000000  0.4643770000000 1.0
C      1  0.5210330000000  0.5324580000000  0.4382340000000 1.0
C      1  0.5535320000000  0.4308560000000  0.5256490000000 1.0
C      1  0.4597270000000  0.5169070000000  0.4350730000000 1.0
C      1  0.4690410000000  0.4535750000000  0.4934130000000 1.0
C      1  0.4620710000000  0.5347820000000  0.5284470000000 1.0
C      1  0.4709160000000  0.4660950000000  0.5656920000000 1.0
C      1  0.5512400000000  0.4867360000000  0.5485200000000 1.0
C      1  0.5448730000000  0.4610850000000  0.5646860000000 1.0
C      1  0.5117360000000  0.5541200000000  0.4557950000000 1.0
C      1  0.5357680000000  0.4382340000000  0.5472170000000 1.0
C      1  0.5185630000000  0.4623500000000  0.5805370000000 1.0
C      1  0.5068340000000  0.4887170000000  0.5844370000000 1.0
C      1  0.4950410000000  0.4474860000000  0.5667920000000 1.0
C      1  0.4166800000000  0.4954370000000  0.5054170000000 1.0
C      1  0.5055940000000  0.4855790000000  0.4227000000000 1.0
C      1  0.5680790000000  0.4438610000000  0.4858820000000 1.0
C      1  0.4948530000000  0.4406380000000  0.4439870000000 1.0
C      1  0.5235370000000  0.5651450000000  0.5617810000000 1.0
C      1  0.5020650000000  0.5469240000000  0.5534360000000 1.0
C      1  0.5712680000000  0.5358590000000  0.5130390000000 1.0
C      1  0.4693540000000  0.5144540000000  0.5745470000000 1.0
C      1  0.4920010000000  0.5783180000000  0.4910370000000 1.0
C      1  0.5191990000000  0.5150750000000  0.5843430000000 1.0
C      1  0.4610030000000  0.4239900000000  0.4858250000000 1.0
C      1  0.5430720000000  0.5683570000000  0.4942060000000 1.0
C      1  0.4321060000000  0.5094790000000  0.4453430000000 1.0
C      1  0.4181040000000  0.5219620000000  0.4696200000000 1.0
C      1  0.5206700000000  0.4982660000000  0.5436850000000 1.0
C      1  0.4369500000000  0.5376910000000  0.4869370000000 1.0
C      1  0.4763210000000  0.5576370000000  0.5426710000000 1.0
C      1  0.4555580000000  0.4839570000000  0.4725570000000 1.0
C      1  0.5031550000000  0.4202360000000  0.4630190000000 1.0
C      1  0.4767540000000  0.5252680000000  0.5056560000000 1.0
END
