TITL C-3578205-846-47 -7.74991388396959e-06 125000 -927.960928468072 0 0 150 (C1) n - 1
REM
REM in /home/bkarasulu/work/CARBON/AIRSS/Generating-Clusters/EDIP-Nigel-Params/with-SteepDescent/Higher-Symm/SD-CG/HFTN-CG
REM
REM
REM
REM
REM
REM ./C.cell (12c818d87b63d06a65506943cc24bca4)
REM
REM compiler GCC version 9.2.1 20190827 (Red Hat 9.2.1-1)
REM options -cpp -mtune=generic -march=x86-64 -g -O0 -fpre-include=/usr/include/finclude/math-vector-fortran.h
REM seed 1643790797 -1142480474 2144220096 -1820880235 -744487594 1253285565 -741237901 -1480086795 -176395160 799947905 569499530 1215177326 1425030687 -1065167389 -1686822257 -688058180 -597645283 -313031728 574903688 -503579129 -2067159068 -1853394361 -672058944 1084748120 1243320461 -1162636490 2039921837 -791912861 -447936242 -1870407573 1383332684 79880964 98923833
REM
CELL 1.54180   50.00000   50.00000   50.00000   90.00000   90.00000   90.00000
LATT -1
SFAC C  
C      1  0.5642870000000  0.4377300000000  0.4492080000000 1.0
C      1  0.4567710000000  0.5784150000000  0.4516830000000 1.0
C      1  0.5628040000000  0.4193350000000  0.5170660000000 1.0
C      1  0.5881270000000  0.4903440000000  0.5076370000000 1.0
C      1  0.4593720000000  0.4615920000000  0.5890390000000 1.0
C      1  0.4296020000000  0.4154980000000  0.5152270000000 1.0
C      1  0.4363300000000  0.5567470000000  0.5410210000000 1.0
C      1  0.5087670000000  0.4967860000000  0.3998280000000 1.0
C      1  0.5806200000000  0.5265240000000  0.4708060000000 1.0
C      1  0.5437250000000  0.4054590000000  0.5006850000000 1.0
C      1  0.4751470000000  0.4388570000000  0.5769080000000 1.0
C      1  0.4888130000000  0.4572340000000  0.5558910000000 1.0
C      1  0.4563740000000  0.4108130000000  0.5088820000000 1.0
C      1  0.5643870000000  0.4891160000000  0.5605620000000 1.0
C      1  0.5553970000000  0.5635990000000  0.4366440000000 1.0
C      1  0.5711530000000  0.4388660000000  0.5603200000000 1.0
C      1  0.5375990000000  0.4420630000000  0.4896400000000 1.0
C      1  0.4991610000000  0.6029100000000  0.5574820000000 1.0
C      1  0.4667400000000  0.4571080000000  0.4030710000000 1.0
C      1  0.5237290000000  0.4134840000000  0.5794420000000 1.0
C      1  0.4560570000000  0.5181020000000  0.5661760000000 1.0
C      1  0.5248180000000  0.4231870000000  0.5519290000000 1.0
C      1  0.4544630000000  0.4497180000000  0.4491230000000 1.0
C      1  0.5592430000000  0.4650510000000  0.4443420000000 1.0
C      1  0.5821030000000  0.5367800000000  0.5581500000000 1.0
C      1  0.5123140000000  0.5277240000000  0.5552320000000 1.0
C      1  0.4471070000000  0.4701020000000  0.4685590000000 1.0
C      1  0.4629780000000  0.4995650000000  0.4493610000000 1.0
C      1  0.4215720000000  0.4886250000000  0.5584310000000 1.0
C      1  0.3988570000000  0.4728750000000  0.4738020000000 1.0
C      1  0.4657090000000  0.4249590000000  0.4853650000000 1.0
C      1  0.5729880000000  0.4634180000000  0.5471220000000 1.0
C      1  0.5981800000000  0.5102250000000  0.5268370000000 1.0
C      1  0.4433140000000  0.4921320000000  0.4277620000000 1.0
C      1  0.5069760000000  0.5828490000000  0.4414020000000 1.0
C      1  0.5527280000000  0.5249650000000  0.5190430000000 1.0
C      1  0.5123840000000  0.4736230000000  0.4188180000000 1.0
C      1  0.5399740000000  0.5486870000000  0.5074210000000 1.0
C      1  0.5845120000000  0.5544490000000  0.4739240000000 1.0
C      1  0.4672240000000  0.4909740000000  0.5331880000000 1.0
C      1  0.4406270000000  0.5036110000000  0.5278830000000 1.0
C      1  0.5433700000000  0.4705300000000  0.4202430000000 1.0
C      1  0.5200400000000  0.4877410000000  0.5120390000000 1.0
C      1  0.4654180000000  0.4814990000000  0.3867440000000 1.0
C      1  0.4472580000000  0.5420180000000  0.4239310000000 1.0
C      1  0.5073800000000  0.4464190000000  0.4972020000000 1.0
C      1  0.4853940000000  0.5598360000000  0.5675280000000 1.0
C      1  0.4797670000000  0.4886140000000  0.5612520000000 1.0
C      1  0.4991900000000  0.5403020000000  0.4860870000000 1.0
C      1  0.5433870000000  0.5256690000000  0.4602790000000 1.0
C      1  0.4225700000000  0.5669340000000  0.4987360000000 1.0
C      1  0.5168540000000  0.3977300000000  0.5080460000000 1.0
C      1  0.4951820000000  0.4235260000000  0.4802180000000 1.0
C      1  0.4175620000000  0.5161220000000  0.4753280000000 1.0
C      1  0.4033150000000  0.5258560000000  0.5227270000000 1.0
C      1  0.4696490000000  0.4763690000000  0.4879610000000 1.0
C      1  0.5589780000000  0.5670870000000  0.4663130000000 1.0
C      1  0.4834360000000  0.4470330000000  0.5256190000000 1.0
C      1  0.5340350000000  0.6067470000000  0.4766840000000 1.0
C      1  0.5419560000000  0.5177540000000  0.5472230000000 1.0
C      1  0.5291670000000  0.5459960000000  0.4805570000000 1.0
C      1  0.4850930000000  0.5141290000000  0.3926640000000 1.0
C      1  0.4234620000000  0.4607820000000  0.4845280000000 1.0
C      1  0.4476250000000  0.5183340000000  0.5002520000000 1.0
C      1  0.4368010000000  0.5580570000000  0.4448370000000 1.0
C      1  0.5832070000000  0.5647020000000  0.5171310000000 1.0
C      1  0.4542230000000  0.5469760000000  0.5081810000000 1.0
C      1  0.4686800000000  0.5397680000000  0.5815430000000 1.0
C      1  0.4791520000000  0.5773750000000  0.4325910000000 1.0
C      1  0.3985300000000  0.4972740000000  0.4893040000000 1.0
C      1  0.4541140000000  0.5043600000000  0.4014220000000 1.0
C      1  0.5386310000000  0.4954630000000  0.4680140000000 1.0
C      1  0.4719830000000  0.5548430000000  0.4162500000000 1.0
C      1  0.5539340000000  0.5386960000000  0.5663400000000 1.0
C      1  0.5140490000000  0.6006750000000  0.5332070000000 1.0
C      1  0.5448880000000  0.4949200000000  0.4994850000000 1.0
C      1  0.5850540000000  0.4639600000000  0.5205390000000 1.0
C      1  0.5175860000000  0.4528310000000  0.5530130000000 1.0
C      1  0.4097510000000  0.5403740000000  0.4969640000000 1.0
C      1  0.5860740000000  0.4986700000000  0.4779590000000 1.0
C      1  0.4619180000000  0.4667780000000  0.5157060000000 1.0
C      1  0.4352130000000  0.4402300000000  0.5549480000000 1.0
C      1  0.5719040000000  0.5099230000000  0.4304960000000 1.0
C      1  0.4778070000000  0.4793710000000  0.6042920000000 1.0
C      1  0.4920750000000  0.5439820000000  0.3987910000000 1.0
C      1  0.5545010000000  0.5902910000000  0.4849510000000 1.0
C      1  0.5486930000000  0.5289790000000  0.5929390000000 1.0
C      1  0.5290840000000  0.5729330000000  0.4239990000000 1.0
C      1  0.5469260000000  0.4827080000000  0.5864350000000 1.0
C      1  0.5378620000000  0.5822980000000  0.5364310000000 1.0
C      1  0.4285010000000  0.4647010000000  0.5140770000000 1.0
C      1  0.4920880000000  0.5936550000000  0.5140110000000 1.0
C      1  0.4271130000000  0.5157050000000  0.5668810000000 1.0
C      1  0.5102030000000  0.5970550000000  0.4666140000000 1.0
C      1  0.4926830000000  0.4988280000000  0.4409670000000 1.0
C      1  0.5696980000000  0.5392770000000  0.4290160000000 1.0
C      1  0.5243480000000  0.4685310000000  0.5312830000000 1.0
C      1  0.4590390000000  0.4223400000000  0.5582550000000 1.0
C      1  0.5547960000000  0.5742080000000  0.5118440000000 1.0
C      1  0.4730540000000  0.5049280000000  0.4916920000000 1.0
C      1  0.5543100000000  0.4230500000000  0.5445250000000 1.0
C      1  0.5567240000000  0.4671470000000  0.4874620000000 1.0
C      1  0.4177530000000  0.5012360000000  0.4449880000000 1.0
C      1  0.4172530000000  0.5360320000000  0.5468860000000 1.0
C      1  0.5319840000000  0.5135650000000  0.4058690000000 1.0
C      1  0.4372640000000  0.4660020000000  0.5687190000000 1.0
C      1  0.5105490000000  0.4856070000000  0.4613560000000 1.0
C      1  0.5039420000000  0.5086380000000  0.5779560000000 1.0
C      1  0.4765570000000  0.5855010000000  0.5573710000000 1.0
C      1  0.4893510000000  0.5923250000000  0.4854460000000 1.0
C      1  0.4546040000000  0.4216930000000  0.4583010000000 1.0
C      1  0.5371470000000  0.5637520000000  0.5604870000000 1.0
C      1  0.4954850000000  0.4281640000000  0.4364720000000 1.0
C      1  0.4964640000000  0.4679330000000  0.4800710000000 1.0
C      1  0.4844920000000  0.5506330000000  0.5137260000000 1.0
C      1  0.4679440000000  0.5755390000000  0.4775530000000 1.0
C      1  0.4683840000000  0.5830420000000  0.5289880000000 1.0
C      1  0.4040670000000  0.4948390000000  0.5185940000000 1.0
C      1  0.4560140000000  0.5284370000000  0.4589790000000 1.0
C      1  0.5778330000000  0.4875430000000  0.4504870000000 1.0
C      1  0.4000530000000  0.4794850000000  0.4463260000000 1.0
C      1  0.4748480000000  0.4182630000000  0.5317380000000 1.0
C      1  0.5265810000000  0.5308560000000  0.4314510000000 1.0
C      1  0.4224990000000  0.4391700000000  0.5286930000000 1.0
C      1  0.5545780000000  0.4964250000000  0.4112560000000 1.0
C      1  0.4310480000000  0.5792260000000  0.5235950000000 1.0
C      1  0.4707120000000  0.5046570000000  0.6138710000000 1.0
C      1  0.5049050000000  0.4074470000000  0.5332150000000 1.0
C      1  0.5785890000000  0.4408040000000  0.5048490000000 1.0
C      1  0.5129360000000  0.5605740000000  0.5758560000000 1.0
C      1  0.5898680000000  0.5068460000000  0.5587330000000 1.0
C      1  0.4825670000000  0.5441150000000  0.4608520000000 1.0
C      1  0.4859420000000  0.5226250000000  0.5981920000000 1.0
C      1  0.5040640000000  0.4704190000000  0.6081420000000 1.0
C      1  0.4978480000000  0.5089470000000  0.5091390000000 1.0
C      1  0.5413380000000  0.4292160000000  0.4630790000000 1.0
C      1  0.4982510000000  0.5275610000000  0.4394130000000 1.0
C      1  0.4761170000000  0.4067590000000  0.4436570000000 1.0
C      1  0.5188090000000  0.4183860000000  0.4494070000000 1.0
C      1  0.5995950000000  0.5653730000000  0.4948600000000 1.0
C      1  0.4924560000000  0.5272650000000  0.5324960000000 1.0
C      1  0.4888650000000  0.3868410000000  0.4608800000000 1.0
C      1  0.5808180000000  0.5362360000000  0.5270080000000 1.0
C      1  0.5000450000000  0.3856360000000  0.4873100000000 1.0
C      1  0.5317480000000  0.5063630000000  0.5929530000000 1.0
C      1  0.5322010000000  0.4344420000000  0.5946450000000 1.0
C      1  0.4464980000000  0.4615600000000  0.4242440000000 1.0
C      1  0.4940320000000  0.4494520000000  0.4150190000000 1.0
C      1  0.5193310000000  0.5555960000000  0.4022060000000 1.0
C      1  0.5274520000000  0.4619770000000  0.5951980000000 1.0
END
