TITL C-3577086-586-533 -8.89213592012087e-07 125000 -171.457470203662 0 0 29 (C1) n - 1
REM
REM in /home/bkarasulu/work/CARBON/AIRSS/Generating-Clusters/EDIP-Nigel-Params/with-SteepDescent/Higher-Symm/SD-CG/HFTN-CG
REM
REM
REM
REM
REM
REM ./C.cell (12c818d87b63d06a65506943cc24bca4)
REM
REM compiler GCC version 9.2.1 20190827 (Red Hat 9.2.1-1)
REM options -cpp -mtune=generic -march=x86-64 -g -O0 -fpre-include=/usr/include/finclude/math-vector-fortran.h
REM seed 196471152 1474214720 -921415499 -1607466801 -1704619005 -1283832309 906868554 -101462222 452876974 505104677 -1115626559 -1892680111 -691866249 291842143 -1735524477 -745431964 -1087342111 -1693693495 -238370036 -1718641884 -394086421 597087867 -1308754164 822554652 -1999399415 461091845 1085436958 1715843172 746107184 -1622457742 -1213345290 -1429600949 354728389
REM
CELL 1.54180   50.00000   50.00000   50.00000   90.00000   90.00000   90.00000
LATT -1
SFAC C  
C      1  0.4583060000000  0.4670490000000  0.5302500000000 1.0
C      1  0.4420260000000  0.4857770000000  0.5118790000000 1.0
C      1  0.4549140000000  0.5104210000000  0.5240060000000 1.0
C      1  0.4767370000000  0.5587340000000  0.4716510000000 1.0
C      1  0.5445140000000  0.5105010000000  0.5204580000000 1.0
C      1  0.5010540000000  0.4627690000000  0.5093020000000 1.0
C      1  0.5181530000000  0.5452080000000  0.4915640000000 1.0
C      1  0.5096710000000  0.4648820000000  0.4809390000000 1.0
C      1  0.5187440000000  0.5079390000000  0.4543780000000 1.0
C      1  0.5611810000000  0.4661410000000  0.5160760000000 1.0
C      1  0.4619770000000  0.4679550000000  0.4846660000000 1.0
C      1  0.5548210000000  0.4899640000000  0.5004380000000 1.0
C      1  0.4725700000000  0.5230740000000  0.4573990000000 1.0
C      1  0.4932180000000  0.5051260000000  0.4687430000000 1.0
C      1  0.5434320000000  0.5080260000000  0.4676650000000 1.0
C      1  0.5187290000000  0.4464510000000  0.5258400000000 1.0
C      1  0.5003990000000  0.4911750000000  0.5207260000000 1.0
C      1  0.5361010000000  0.4793290000000  0.4744360000000 1.0
C      1  0.5385940000000  0.4652220000000  0.5331290000000 1.0
C      1  0.4801260000000  0.5537280000000  0.5171590000000 1.0
C      1  0.4724120000000  0.4537980000000  0.5082990000000 1.0
C      1  0.4851810000000  0.4761110000000  0.4683790000000 1.0
C      1  0.4707190000000  0.5280840000000  0.5057070000000 1.0
C      1  0.4969830000000  0.5141960000000  0.4983040000000 1.0
C      1  0.5329650000000  0.5343510000000  0.5119260000000 1.0
C      1  0.5268340000000  0.4925230000000  0.5351010000000 1.0
C      1  0.4953880000000  0.5629820000000  0.4941610000000 1.0
C      1  0.4587170000000  0.5363350000000  0.4789710000000 1.0
C      1  0.4755330000000  0.4921500000000  0.5384500000000 1.0
END
