TITL C-3577088-510-249 -6.64362858078298e-07 125000 -387.877319149085 0 0 64 (C1) n - 1
REM
REM in /home/bkarasulu/work/CARBON/AIRSS/Generating-Clusters/EDIP-Nigel-Params/with-SteepDescent/Higher-Symm/SD-CG/HFTN-CG
REM
REM
REM
REM
REM
REM ./C.cell (12c818d87b63d06a65506943cc24bca4)
REM
REM compiler GCC version 9.2.1 20190827 (Red Hat 9.2.1-1)
REM options -cpp -mtune=generic -march=x86-64 -g -O0 -fpre-include=/usr/include/finclude/math-vector-fortran.h
REM seed 166851171 -1949836821 1525211431 -1725404309 -248396932 3292711 -1494876481 -1115075984 1900310347 852079314 1592791505 842383753 -1009830773 1734128929 -439220038 1891268207 1548242108 1997376499 2103593282 -144963457 -1734387298 -446387352 -253859307 686569382 2105735701 596350150 -1370598546 -1150499911 1822424469 1597786342 1861841324 -1791254140 -1955566548
REM
CELL 1.54180   50.00000   50.00000   50.00000   90.00000   90.00000   90.00000
LATT -1
SFAC C  
C      1  0.5424990000000  0.5089420000000  0.4686120000000 1.0
C      1  0.5462200000000  0.5467010000000  0.4935020000000 1.0
C      1  0.5507770000000  0.5117310000000  0.5448020000000 1.0
C      1  0.5550810000000  0.4648300000000  0.5295000000000 1.0
C      1  0.5469860000000  0.4606770000000  0.4761290000000 1.0
C      1  0.5164430000000  0.4655050000000  0.4824680000000 1.0
C      1  0.5119020000000  0.5206630000000  0.4666950000000 1.0
C      1  0.5164760000000  0.5435850000000  0.4906980000000 1.0
C      1  0.5253800000000  0.4970750000000  0.5495200000000 1.0
C      1  0.5263310000000  0.4721660000000  0.5314990000000 1.0
C      1  0.5708420000000  0.4889830000000  0.5407120000000 1.0
C      1  0.5641640000000  0.4588860000000  0.5011330000000 1.0
C      1  0.5582060000000  0.4839110000000  0.4584280000000 1.0
C      1  0.5598910000000  0.5340580000000  0.4697040000000 1.0
C      1  0.5557750000000  0.5243580000000  0.5141660000000 1.0
C      1  0.5864070000000  0.5227280000000  0.4781160000000 1.0
C      1  0.5858660000000  0.5241190000000  0.5092980000000 1.0
C      1  0.5920740000000  0.4971350000000  0.5207580000000 1.0
C      1  0.5819460000000  0.4819080000000  0.4967880000000 1.0
C      1  0.5857100000000  0.4929970000000  0.4690610000000 1.0
C      1  0.4979420000000  0.5731300000000  0.5185090000000 1.0
C      1  0.4997410000000  0.5345960000000  0.5717850000000 1.0
C      1  0.4928660000000  0.4469810000000  0.5593480000000 1.0
C      1  0.5005210000000  0.4355800000000  0.4504140000000 1.0
C      1  0.4995050000000  0.5244450000000  0.4196190000000 1.0
C      1  0.4438150000000  0.4620750000000  0.5167830000000 1.0
C      1  0.4403810000000  0.4729090000000  0.4640740000000 1.0
C      1  0.4445630000000  0.5253830000000  0.4627900000000 1.0
C      1  0.4347190000000  0.5432030000000  0.5086850000000 1.0
C      1  0.4412350000000  0.5048660000000  0.5409480000000 1.0
C      1  0.4860450000000  0.4790570000000  0.4455200000000 1.0
C      1  0.4900180000000  0.5568800000000  0.4524250000000 1.0
C      1  0.4824310000000  0.5297520000000  0.5260600000000 1.0
C      1  0.4792890000000  0.4934420000000  0.5681050000000 1.0
C      1  0.4870620000000  0.4422550000000  0.5144320000000 1.0
C      1  0.4352210000000  0.4774390000000  0.5388620000000 1.0
C      1  0.4309610000000  0.4639100000000  0.4906130000000 1.0
C      1  0.4354050000000  0.4996200000000  0.4557010000000 1.0
C      1  0.4265210000000  0.5353780000000  0.4826050000000 1.0
C      1  0.4249410000000  0.5227030000000  0.5264610000000 1.0
C      1  0.4631220000000  0.4600180000000  0.4505670000000 1.0
C      1  0.4649470000000  0.5395280000000  0.4469990000000 1.0
C      1  0.4640210000000  0.5445560000000  0.5070800000000 1.0
C      1  0.4584350000000  0.5136860000000  0.5628390000000 1.0
C      1  0.4603260000000  0.4399280000000  0.5260450000000 1.0
C      1  0.4761090000000  0.4778750000000  0.5426110000000 1.0
C      1  0.4855340000000  0.4577250000000  0.4889610000000 1.0
C      1  0.4831600000000  0.5036960000000  0.4640700000000 1.0
C      1  0.4997070000000  0.5679130000000  0.4797670000000 1.0
C      1  0.4869810000000  0.4978490000000  0.5175310000000 1.0
C      1  0.4758170000000  0.5705200000000  0.4996300000000 1.0
C      1  0.4760270000000  0.5359650000000  0.5555120000000 1.0
C      1  0.4656820000000  0.4419910000000  0.5541280000000 1.0
C      1  0.4765190000000  0.4389390000000  0.4659630000000 1.0
C      1  0.4740480000000  0.5182360000000  0.4299840000000 1.0
C      1  0.5068080000000  0.5451880000000  0.5195190000000 1.0
C      1  0.5058070000000  0.5066830000000  0.5696570000000 1.0
C      1  0.5077050000000  0.4482920000000  0.5352470000000 1.0
C      1  0.5103170000000  0.4629550000000  0.4514630000000 1.0
C      1  0.5110820000000  0.5384660000000  0.4415660000000 1.0
C      1  0.4705240000000  0.4906530000000  0.4918270000000 1.0
C      1  0.5472300000000  0.4994900000000  0.4976430000000 1.0
C      1  0.5193910000000  0.4868270000000  0.5060440000000 1.0
C      1  0.4386590000000  0.5011670000000  0.4974060000000 1.0
END
