TITL C-3577089-586-82 -1.34786486207272e-06 125000 -1038.51210040278 0 0 164 (C1) n - 1
REM
REM in /home/bkarasulu/work/CARBON/AIRSS/Generating-Clusters/EDIP-Nigel-Params/with-SteepDescent/Higher-Symm/SD-CG/HFTN-CG
REM
REM
REM
REM
REM
REM ./C.cell (12c818d87b63d06a65506943cc24bca4)
REM
REM compiler GCC version 9.2.1 20190827 (Red Hat 9.2.1-1)
REM options -cpp -mtune=generic -march=x86-64 -g -O0 -fpre-include=/usr/include/finclude/math-vector-fortran.h
REM seed -945333578 1051532065 -1569026062 1088625713 -760998470 -1323929899 877474203 -973537134 -855306436 -1672249724 1562182916 1016375311 -340068249 -1739450763 1423123814 -1895012389 -605052865 917374079 536215763 -1177085843 -1792002023 1340893840 -2133845176 -259650552 1187705911 1641151713 -1670345417 1854470052 1863184704 463735802 116622097 -191879033 -819273815
REM
CELL 1.54180   50.00000   50.00000   50.00000   90.00000   90.00000   90.00000
LATT -1
SFAC C  
C      1  0.5227880000000  0.4085190000000  0.4792940000000 1.0
C      1  0.5802730000000  0.4267410000000  0.4795200000000 1.0
C      1  0.5218770000000  0.5081120000000  0.4716940000000 1.0
C      1  0.4105900000000  0.4558860000000  0.4512460000000 1.0
C      1  0.4426290000000  0.3924730000000  0.5147180000000 1.0
C      1  0.5756970000000  0.4489070000000  0.4382170000000 1.0
C      1  0.5665880000000  0.4283980000000  0.4552620000000 1.0
C      1  0.5537230000000  0.5384660000000  0.5448080000000 1.0
C      1  0.6053690000000  0.5329160000000  0.4842420000000 1.0
C      1  0.5338940000000  0.5551170000000  0.5623420000000 1.0
C      1  0.5048350000000  0.4532400000000  0.5960480000000 1.0
C      1  0.6061300000000  0.4935280000000  0.5166930000000 1.0
C      1  0.5642050000000  0.5880980000000  0.5186660000000 1.0
C      1  0.5256870000000  0.3987900000000  0.5084840000000 1.0
C      1  0.5268220000000  0.5858310000000  0.5225960000000 1.0
C      1  0.4449900000000  0.4200510000000  0.4442370000000 1.0
C      1  0.5501180000000  0.4936970000000  0.4203060000000 1.0
C      1  0.4452600000000  0.4904430000000  0.5026270000000 1.0
C      1  0.5015550000000  0.3868080000000  0.5213950000000 1.0
C      1  0.4813520000000  0.4279910000000  0.5108090000000 1.0
C      1  0.5400250000000  0.4988970000000  0.4923950000000 1.0
C      1  0.4429630000000  0.4590340000000  0.5679980000000 1.0
C      1  0.4563170000000  0.4427840000000  0.5166610000000 1.0
C      1  0.4792930000000  0.5067020000000  0.3949580000000 1.0
C      1  0.5273480000000  0.5616250000000  0.5041620000000 1.0
C      1  0.5470920000000  0.4674990000000  0.4835600000000 1.0
C      1  0.5383580000000  0.4221520000000  0.4572080000000 1.0
C      1  0.5680020000000  0.4678760000000  0.5855250000000 1.0
C      1  0.4020480000000  0.4991870000000  0.5170900000000 1.0
C      1  0.4471060000000  0.4728200000000  0.4084910000000 1.0
C      1  0.4176100000000  0.5012020000000  0.4645420000000 1.0
C      1  0.5815440000000  0.5487500000000  0.5446780000000 1.0
C      1  0.5042450000000  0.6023080000000  0.5091110000000 1.0
C      1  0.4149770000000  0.4914360000000  0.5430950000000 1.0
C      1  0.4568760000000  0.3957390000000  0.5399530000000 1.0
C      1  0.4731030000000  0.4799880000000  0.5432040000000 1.0
C      1  0.4328700000000  0.4237650000000  0.5162160000000 1.0
C      1  0.4598590000000  0.5330680000000  0.5340400000000 1.0
C      1  0.3983960000000  0.5287980000000  0.5129700000000 1.0
C      1  0.4841070000000  0.4085870000000  0.5346030000000 1.0
C      1  0.5580140000000  0.4873590000000  0.6042250000000 1.0
C      1  0.5482750000000  0.4282080000000  0.5698340000000 1.0
C      1  0.6068400000000  0.4751380000000  0.4622540000000 1.0
C      1  0.5246310000000  0.4147620000000  0.5638930000000 1.0
C      1  0.4794580000000  0.5971730000000  0.4667990000000 1.0
C      1  0.4866480000000  0.5279280000000  0.4472620000000 1.0
C      1  0.5027150000000  0.5489160000000  0.4929260000000 1.0
C      1  0.4281170000000  0.4923270000000  0.4183040000000 1.0
C      1  0.5085990000000  0.5079420000000  0.3971290000000 1.0
C      1  0.4586580000000  0.5262020000000  0.5828510000000 1.0
C      1  0.5598320000000  0.5078260000000  0.5557930000000 1.0
C      1  0.4833940000000  0.5896420000000  0.4397490000000 1.0
C      1  0.4257200000000  0.4309240000000  0.4872650000000 1.0
C      1  0.5930080000000  0.5115410000000  0.4983680000000 1.0
C      1  0.4795360000000  0.5253790000000  0.6057160000000 1.0
C      1  0.4628940000000  0.3856400000000  0.4944340000000 1.0
C      1  0.4825890000000  0.4751620000000  0.5980720000000 1.0
C      1  0.4176830000000  0.5093570000000  0.5664300000000 1.0
C      1  0.4563390000000  0.4791540000000  0.5833440000000 1.0
C      1  0.4504340000000  0.4706610000000  0.5260750000000 1.0
C      1  0.4961480000000  0.4062860000000  0.4675470000000 1.0
C      1  0.5855340000000  0.5774230000000  0.4739750000000 1.0
C      1  0.5761100000000  0.5731690000000  0.4453600000000 1.0
C      1  0.4653060000000  0.4818630000000  0.3876690000000 1.0
C      1  0.4984980000000  0.4969970000000  0.4330820000000 1.0
C      1  0.4100420000000  0.4553530000000  0.4810360000000 1.0
C      1  0.5026840000000  0.4277010000000  0.5785490000000 1.0
C      1  0.4209230000000  0.4642930000000  0.5495590000000 1.0
C      1  0.5846500000000  0.5665290000000  0.5206170000000 1.0
C      1  0.5579860000000  0.5241900000000  0.4929150000000 1.0
C      1  0.5110880000000  0.5818670000000  0.4370760000000 1.0
C      1  0.4529410000000  0.5207600000000  0.5090380000000 1.0
C      1  0.5536760000000  0.4646850000000  0.5267180000000 1.0
C      1  0.5621230000000  0.5457690000000  0.4413860000000 1.0
C      1  0.5416320000000  0.5726960000000  0.4791370000000 1.0
C      1  0.4523400000000  0.4301150000000  0.4714410000000 1.0
C      1  0.4328080000000  0.5811450000000  0.4700660000000 1.0
C      1  0.5557180000000  0.5106550000000  0.5857910000000 1.0
C      1  0.5180830000000  0.5756680000000  0.5495460000000 1.0
C      1  0.4217090000000  0.4341580000000  0.4368070000000 1.0
C      1  0.5326680000000  0.5146340000000  0.4121620000000 1.0
C      1  0.4951670000000  0.4175320000000  0.4404110000000 1.0
C      1  0.4699710000000  0.5816320000000  0.5396660000000 1.0
C      1  0.5687560000000  0.4275870000000  0.5495670000000 1.0
C      1  0.4399680000000  0.5036750000000  0.5860460000000 1.0
C      1  0.4731930000000  0.4118570000000  0.4852230000000 1.0
C      1  0.4155770000000  0.4859800000000  0.4925690000000 1.0
C      1  0.4556420000000  0.4334740000000  0.5668210000000 1.0
C      1  0.5216170000000  0.4729830000000  0.5595050000000 1.0
C      1  0.5480780000000  0.5432970000000  0.4681250000000 1.0
C      1  0.4990850000000  0.5016670000000  0.5254430000000 1.0
C      1  0.5384370000000  0.4180530000000  0.5281310000000 1.0
C      1  0.5409060000000  0.4865910000000  0.5406450000000 1.0
C      1  0.6048060000000  0.5284030000000  0.4566080000000 1.0
C      1  0.4983370000000  0.5142450000000  0.5516030000000 1.0
C      1  0.5046450000000  0.6064920000000  0.4791740000000 1.0
C      1  0.4582720000000  0.5306510000000  0.4608100000000 1.0
C      1  0.4767090000000  0.5887100000000  0.5120400000000 1.0
C      1  0.4848240000000  0.3708120000000  0.5049190000000 1.0
C      1  0.5352010000000  0.4444610000000  0.5125680000000 1.0
C      1  0.6003120000000  0.4693190000000  0.4888460000000 1.0
C      1  0.4395680000000  0.4143200000000  0.5532020000000 1.0
C      1  0.4843310000000  0.4329170000000  0.5568510000000 1.0
C      1  0.5259080000000  0.5932550000000  0.4611040000000 1.0
C      1  0.5632530000000  0.5965610000000  0.4368120000000 1.0
C      1  0.4986240000000  0.4596110000000  0.4793660000000 1.0
C      1  0.6010100000000  0.4986860000000  0.5449820000000 1.0
C      1  0.4284580000000  0.5608530000000  0.4927640000000 1.0
C      1  0.4548280000000  0.6071420000000  0.5044410000000 1.0
C      1  0.4431720000000  0.5536750000000  0.5735370000000 1.0
C      1  0.5101460000000  0.5348100000000  0.4675020000000 1.0
C      1  0.5984950000000  0.5265620000000  0.5487670000000 1.0
C      1  0.5443870000000  0.5391980000000  0.5157080000000 1.0
C      1  0.4255160000000  0.5676670000000  0.5234070000000 1.0
C      1  0.4527040000000  0.6020950000000  0.4770720000000 1.0
C      1  0.4064810000000  0.5284490000000  0.4604940000000 1.0
C      1  0.5263760000000  0.4988980000000  0.5190630000000 1.0
C      1  0.5450250000000  0.6121540000000  0.4496890000000 1.0
C      1  0.4542840000000  0.5434160000000  0.4894450000000 1.0
C      1  0.4604160000000  0.4848900000000  0.4776630000000 1.0
C      1  0.4470090000000  0.5030180000000  0.4597820000000 1.0
C      1  0.5103950000000  0.4977220000000  0.5722370000000 1.0
C      1  0.5238230000000  0.4910400000000  0.4486130000000 1.0
C      1  0.5131880000000  0.5575310000000  0.4211660000000 1.0
C      1  0.5637410000000  0.5913250000000  0.4894530000000 1.0
C      1  0.4775140000000  0.5625100000000  0.4946270000000 1.0
C      1  0.4926390000000  0.4989460000000  0.6121470000000 1.0
C      1  0.4066030000000  0.5478860000000  0.5351890000000 1.0
C      1  0.4416350000000  0.5631030000000  0.4468180000000 1.0
C      1  0.5266430000000  0.4818640000000  0.6102520000000 1.0
C      1  0.4979220000000  0.4644170000000  0.4257730000000 1.0
C      1  0.5040190000000  0.4506010000000  0.5086280000000 1.0
C      1  0.4702730000000  0.4589760000000  0.4667130000000 1.0
C      1  0.4113150000000  0.4836450000000  0.4415910000000 1.0
C      1  0.4492540000000  0.5603110000000  0.5420200000000 1.0
C      1  0.5895530000000  0.5554610000000  0.4929360000000 1.0
C      1  0.4159820000000  0.5387830000000  0.5625490000000 1.0
C      1  0.4655280000000  0.5695430000000  0.4296290000000 1.0
C      1  0.5733980000000  0.4972680000000  0.4355680000000 1.0
C      1  0.4831150000000  0.5464270000000  0.4221840000000 1.0
C      1  0.5825660000000  0.4767000000000  0.5593860000000 1.0
C      1  0.5827890000000  0.5241180000000  0.4399410000000 1.0
C      1  0.4694180000000  0.5159390000000  0.5553520000000 1.0
C      1  0.4702530000000  0.4575000000000  0.4341340000000 1.0
C      1  0.5762960000000  0.4526730000000  0.4908590000000 1.0
C      1  0.5406600000000  0.4551610000000  0.5799030000000 1.0
C      1  0.4381080000000  0.5206510000000  0.4202400000000 1.0
C      1  0.5230500000000  0.4628330000000  0.4619690000000 1.0
C      1  0.5019380000000  0.4594690000000  0.3977850000000 1.0
C      1  0.4051880000000  0.5429160000000  0.4866390000000 1.0
C      1  0.4232410000000  0.5407170000000  0.4377310000000 1.0
C      1  0.4903860000000  0.5790610000000  0.5592380000000 1.0
C      1  0.4691000000000  0.4281750000000  0.4298030000000 1.0
C      1  0.4783520000000  0.5672120000000  0.5824330000000 1.0
C      1  0.4639650000000  0.5280480000000  0.4067200000000 1.0
C      1  0.4947280000000  0.5497240000000  0.5978990000000 1.0
C      1  0.5199860000000  0.4336670000000  0.4367030000000 1.0
C      1  0.4834330000000  0.4623910000000  0.3781300000000 1.0
C      1  0.5888390000000  0.4736260000000  0.4409500000000 1.0
C      1  0.5381020000000  0.5415770000000  0.4214030000000 1.0
C      1  0.5268980000000  0.5149400000000  0.5909840000000 1.0
C      1  0.5771670000000  0.4540010000000  0.5399480000000 1.0
C      1  0.4959170000000  0.4592950000000  0.5433580000000 1.0
C      1  0.5210220000000  0.5432280000000  0.5861660000000 1.0
END
