TITL C-3578197-9521-294 -1.64677506223764e-06 125000 -415.772902303819 0 0 69 (C1) n - 1
REM
REM in /home/bkarasulu/work/CARBON/AIRSS/Generating-Clusters/EDIP-Nigel-Params/with-SteepDescent/Higher-Symm/SD-CG/HFTN-CG
REM
REM
REM
REM
REM
REM ./C.cell (12c818d87b63d06a65506943cc24bca4)
REM
REM compiler GCC version 9.2.1 20190827 (Red Hat 9.2.1-1)
REM options -cpp -mtune=generic -march=x86-64 -g -O0 -fpre-include=/usr/include/finclude/math-vector-fortran.h
REM seed 108051128 108581843 47377863 993977828 -147042612 -185452386 1216403531 -2068946248 2087279846 -1367125475 -269627691 -534232816 -1952387390 -1117608669 1803464066 874259380 161953003 -1635966157 1774632779 1417676952 -1206276425 -1805696199 783763257 1021708696 -512760922 1352905192 1837988235 -866087963 -1319013801 247419508 1497590456 1195441692 1015098769
REM
CELL 1.54180   50.00000   50.00000   50.00000   90.00000   90.00000   90.00000
LATT -1
SFAC C  
C      1  0.5161740000000  0.5342280000000  0.5242070000000 1.0
C      1  0.5200380000000  0.4752460000000  0.5201570000000 1.0
C      1  0.4643910000000  0.5011250000000  0.5255140000000 1.0
C      1  0.4852400000000  0.5338180000000  0.5234860000000 1.0
C      1  0.4812330000000  0.4750810000000  0.5200360000000 1.0
C      1  0.5367890000000  0.5013660000000  0.5266290000000 1.0
C      1  0.4755510000000  0.5311000000000  0.4953770000000 1.0
C      1  0.5466230000000  0.5125290000000  0.5006180000000 1.0
C      1  0.4867720000000  0.4696740000000  0.4909760000000 1.0
C      1  0.5269840000000  0.5319100000000  0.4965730000000 1.0
C      1  0.4557050000000  0.5119340000000  0.4989350000000 1.0
C      1  0.5148290000000  0.4698080000000  0.4908020000000 1.0
C      1  0.5285000000000  0.4525590000000  0.5658700000000 1.0
C      1  0.4433660000000  0.5028150000000  0.5792130000000 1.0
C      1  0.5284630000000  0.5500990000000  0.5719220000000 1.0
C      1  0.4714140000000  0.4523130000000  0.5656240000000 1.0
C      1  0.5558870000000  0.5031010000000  0.5811390000000 1.0
C      1  0.4708710000000  0.5499590000000  0.5707700000000 1.0
C      1  0.5148450000000  0.5749920000000  0.4830540000000 1.0
C      1  0.5531170000000  0.4397030000000  0.4804050000000 1.0
C      1  0.4318050000000  0.4738980000000  0.4870010000000 1.0
C      1  0.4870630000000  0.5743030000000  0.4824340000000 1.0
C      1  0.4484510000000  0.4398180000000  0.4802790000000 1.0
C      1  0.5695500000000  0.4736100000000  0.4884460000000 1.0
C      1  0.5265000000000  0.4483210000000  0.4739550000000 1.0
C      1  0.4481900000000  0.4960530000000  0.4769620000000 1.0
C      1  0.5304210000000  0.5512380000000  0.4761810000000 1.0
C      1  0.4755450000000  0.4475690000000  0.4749020000000 1.0
C      1  0.5532130000000  0.4959900000000  0.4788790000000 1.0
C      1  0.4726950000000  0.5501190000000  0.4748300000000 1.0
C      1  0.5144490000000  0.4321200000000  0.5516430000000 1.0
C      1  0.4314820000000  0.5212640000000  0.5593020000000 1.0
C      1  0.5531440000000  0.5464880000000  0.5583160000000 1.0
C      1  0.4858070000000  0.4319930000000  0.5515240000000 1.0
C      1  0.5682890000000  0.5215730000000  0.5615690000000 1.0
C      1  0.4465450000000  0.5462800000000  0.5565500000000 1.0
C      1  0.4541970000000  0.5089440000000  0.4507430000000 1.0
C      1  0.5330130000000  0.5358500000000  0.4507160000000 1.0
C      1  0.5149610000000  0.4473950000000  0.4466830000000 1.0
C      1  0.5474160000000  0.5090970000000  0.4526150000000 1.0
C      1  0.4678650000000  0.5355730000000  0.4493270000000 1.0
C      1  0.4858630000000  0.4482490000000  0.4474430000000 1.0
C      1  0.4854600000000  0.5263350000000  0.5774230000000 1.0
C      1  0.5274520000000  0.5011180000000  0.5799870000000 1.0
C      1  0.4854460000000  0.4757350000000  0.5744660000000 1.0
C      1  0.5137430000000  0.5264060000000  0.5780120000000 1.0
C      1  0.4718300000000  0.5009990000000  0.5791490000000 1.0
C      1  0.5141480000000  0.4757820000000  0.5747900000000 1.0
C      1  0.4681010000000  0.4971420000000  0.4035760000000 1.0
C      1  0.5139960000000  0.5253710000000  0.4066040000000 1.0
C      1  0.5127490000000  0.4738890000000  0.4040690000000 1.0
C      1  0.5201260000000  0.4990990000000  0.4164300000000 1.0
C      1  0.4852860000000  0.5288560000000  0.4025860000000 1.0
C      1  0.4822680000000  0.4708590000000  0.4024010000000 1.0
C      1  0.5612820000000  0.4993820000000  0.5429480000000 1.0
C      1  0.4636960000000  0.4522450000000  0.5279420000000 1.0
C      1  0.4750080000000  0.5602760000000  0.5339800000000 1.0
C      1  0.4392380000000  0.4992190000000  0.5408450000000 1.0
C      1  0.5371080000000  0.4521390000000  0.5283560000000 1.0
C      1  0.5253240000000  0.5609270000000  0.5351600000000 1.0
C      1  0.4696650000000  0.4580410000000  0.4256380000000 1.0
C      1  0.4800570000000  0.5463540000000  0.4255380000000 1.0
C      1  0.5438890000000  0.4915830000000  0.4302790000000 1.0
C      1  0.5287850000000  0.4563590000000  0.4227960000000 1.0
C      1  0.5185150000000  0.5452890000000  0.4271720000000 1.0
C      1  0.4523010000000  0.4923330000000  0.4274560000000 1.0
C      1  0.5003100000000  0.5744640000000  0.5188340000000 1.0
C      1  0.5615550000000  0.4500540000000  0.5071540000000 1.0
C      1  0.4394030000000  0.4506410000000  0.5065250000000 1.0
END
