TITL C-3578209-2550-506 -1.86534873611641e-06 125000 -344.041148726915 0 0 56 (C1) n - 1
REM
REM in /home/bkarasulu/work/CARBON/AIRSS/Generating-Clusters/EDIP-Nigel-Params/with-SteepDescent/Higher-Symm/SD-CG/HFTN-CG
REM
REM
REM
REM
REM
REM ./C.cell (12c818d87b63d06a65506943cc24bca4)
REM
REM compiler GCC version 9.2.1 20190827 (Red Hat 9.2.1-1)
REM options -cpp -mtune=generic -march=x86-64 -g -O0 -fpre-include=/usr/include/finclude/math-vector-fortran.h
REM seed 1369776544 16349248 668381219 -1751508967 -692944156 -802609694 -1710006131 1291954844 -240582011 785464970 -1859686499 -1214156180 -87840246 -1014467270 1149633427 594369397 -4787830 -1100051743 -478683251 225755126 1860308659 -680043868 -40005760 1517359506 640146684 1204890393 591073933 1024340906 -1396334779 1885823434 474295273 -208008730 1780779382
REM
CELL 1.54180   50.00000   50.00000   50.00000   90.00000   90.00000   90.00000
LATT -1
SFAC C  
C      1  0.4470730000000  0.5126310000000  0.5125970000000 1.0
C      1  0.4399350000000  0.5222060000000  0.4859230000000 1.0
C      1  0.4347330000000  0.4985070000000  0.4690720000000 1.0
C      1  0.4408750000000  0.4750260000000  0.4866620000000 1.0
C      1  0.4418940000000  0.4839250000000  0.5153890000000 1.0
C      1  0.5676990000000  0.5088850000000  0.5228520000000 1.0
C      1  0.5671030000000  0.5217770000000  0.4969250000000 1.0
C      1  0.5669280000000  0.5007690000000  0.4767950000000 1.0
C      1  0.5678800000000  0.4750030000000  0.4893910000000 1.0
C      1  0.5693080000000  0.4798550000000  0.5179760000000 1.0
C      1  0.4733460000000  0.5292910000000  0.4578140000000 1.0
C      1  0.4776690000000  0.4889690000000  0.4908730000000 1.0
C      1  0.4903880000000  0.4794570000000  0.5179680000000 1.0
C      1  0.4980680000000  0.5018010000000  0.5387670000000 1.0
C      1  0.4816360000000  0.5394130000000  0.5057660000000 1.0
C      1  0.5145410000000  0.5223840000000  0.4712730000000 1.0
C      1  0.5200090000000  0.4717290000000  0.4760200000000 1.0
C      1  0.5159150000000  0.4637710000000  0.5103340000000 1.0
C      1  0.5205420000000  0.5186290000000  0.5283870000000 1.0
C      1  0.5101650000000  0.5451410000000  0.5173150000000 1.0
C      1  0.4694260000000  0.5614600000000  0.4893090000000 1.0
C      1  0.4665350000000  0.5066190000000  0.4391660000000 1.0
C      1  0.4750930000000  0.4463220000000  0.4680930000000 1.0
C      1  0.4743440000000  0.4607310000000  0.5350980000000 1.0
C      1  0.4777600000000  0.5208370000000  0.5506840000000 1.0
C      1  0.5285150000000  0.5564930000000  0.4961600000000 1.0
C      1  0.5267930000000  0.4985980000000  0.4576590000000 1.0
C      1  0.5347640000000  0.4475160000000  0.4667420000000 1.0
C      1  0.5328940000000  0.4616950000000  0.5356580000000 1.0
C      1  0.5374070000000  0.5238560000000  0.5519080000000 1.0
C      1  0.4465860000000  0.5489960000000  0.4759940000000 1.0
C      1  0.4400610000000  0.4977000000000  0.4416980000000 1.0
C      1  0.4485630000000  0.4489150000000  0.4766200000000 1.0
C      1  0.4475650000000  0.4675420000000  0.5372940000000 1.0
C      1  0.4571310000000  0.5299140000000  0.5330440000000 1.0
C      1  0.5544050000000  0.5462940000000  0.4932680000000 1.0
C      1  0.5550330000000  0.5034900000000  0.4518550000000 1.0
C      1  0.5611340000000  0.4513490000000  0.4756850000000 1.0
C      1  0.5608560000000  0.4602150000000  0.5357460000000 1.0
C      1  0.5652200000000  0.5237380000000  0.5467940000000 1.0
C      1  0.5197060000000  0.4253130000000  0.4797040000000 1.0
C      1  0.5180650000000  0.4488280000000  0.5566530000000 1.0
C      1  0.5210000000000  0.5471440000000  0.5628860000000 1.0
C      1  0.5165650000000  0.5710480000000  0.4745540000000 1.0
C      1  0.5127390000000  0.4946400000000  0.4324900000000 1.0
C      1  0.4910440000000  0.4230470000000  0.4727440000000 1.0
C      1  0.4906450000000  0.4594110000000  0.5602210000000 1.0
C      1  0.4915280000000  0.5409580000000  0.5667930000000 1.0
C      1  0.4883870000000  0.5734360000000  0.4711290000000 1.0
C      1  0.4873820000000  0.4857670000000  0.4408480000000 1.0
C      1  0.5093390000000  0.5629750000000  0.5405770000000 1.0
C      1  0.4894790000000  0.4721450000000  0.4680150000000 1.0
C      1  0.5058670000000  0.4850900000000  0.5618800000000 1.0
C      1  0.5022010000000  0.5436580000000  0.4517170000000 1.0
C      1  0.5086030000000  0.4356200000000  0.5049070000000 1.0
C      1  0.4864500000000  0.5179190000000  0.4843770000000 1.0
END
