TITL C-3577078-809-527 -1.39358927461671e-06 125000 -468.437605521143 0 0 78 (C1) n - 1
REM
REM in /home/bkarasulu/work/CARBON/AIRSS/Generating-Clusters/EDIP-Nigel-Params/with-SteepDescent/Higher-Symm/SD-CG/HFTN-CG
REM
REM
REM
REM
REM
REM ./C.cell (12c818d87b63d06a65506943cc24bca4)
REM
REM compiler GCC version 9.2.1 20190827 (Red Hat 9.2.1-1)
REM options -cpp -mtune=generic -march=x86-64 -g -O0 -fpre-include=/usr/include/finclude/math-vector-fortran.h
REM seed -1139511724 11407531 2100006698 1903041185 139831895 -770674178 544468776 -2109362910 -326279849 1983160857 1193103963 759091104 -1805034713 -270343897 -289593507 -1596930106 2018484987 -581780939 -1073008754 -1217250963 -1362597324 354689430 1103833595 -783637115 1291457109 -358044670 1502385018 1306985656 -674981429 -775942555 646702456 -294539401 1797164549
REM
CELL 1.54180   50.00000   50.00000   50.00000   90.00000   90.00000   90.00000
LATT -1
SFAC C  
C      1  0.5128380000000  0.4716090000000  0.5553550000000 1.0
C      1  0.4741460000000  0.5520450000000  0.5293100000000 1.0
C      1  0.5536940000000  0.5268320000000  0.4757000000000 1.0
C      1  0.4813260000000  0.4668880000000  0.4379570000000 1.0
C      1  0.4818070000000  0.5105770000000  0.5452940000000 1.0
C      1  0.5108760000000  0.5186320000000  0.4310740000000 1.0
C      1  0.5297220000000  0.5447540000000  0.4819200000000 1.0
C      1  0.5175970000000  0.4627660000000  0.5122860000000 1.0
C      1  0.4840980000000  0.4623810000000  0.4704190000000 1.0
C      1  0.4553890000000  0.5176770000000  0.5282540000000 1.0
C      1  0.4580790000000  0.4817100000000  0.4786740000000 1.0
C      1  0.5388430000000  0.4955640000000  0.5134090000000 1.0
C      1  0.5178150000000  0.5180230000000  0.5532210000000 1.0
C      1  0.4749930000000  0.4620130000000  0.5239750000000 1.0
C      1  0.5344610000000  0.4815510000000  0.4680960000000 1.0
C      1  0.4872850000000  0.5202770000000  0.4507440000000 1.0
C      1  0.4844750000000  0.4787010000000  0.5483940000000 1.0
C      1  0.5098160000000  0.4695770000000  0.4276530000000 1.0
C      1  0.5149720000000  0.4609530000000  0.4817700000000 1.0
C      1  0.5199120000000  0.5439660000000  0.5105970000000 1.0
C      1  0.4859440000000  0.5477430000000  0.4789260000000 1.0
C      1  0.4417750000000  0.4911600000000  0.5274540000000 1.0
C      1  0.4634730000000  0.5109590000000  0.4745390000000 1.0
C      1  0.5329160000000  0.5217760000000  0.5264950000000 1.0
C      1  0.4976930000000  0.4305370000000  0.5474100000000 1.0
C      1  0.4349360000000  0.5516540000000  0.5112900000000 1.0
C      1  0.5544570000000  0.5245500000000  0.4455220000000 1.0
C      1  0.4834570000000  0.4238740000000  0.4480700000000 1.0
C      1  0.4873550000000  0.5554190000000  0.5566580000000 1.0
C      1  0.5158190000000  0.5618890000000  0.4505010000000 1.0
C      1  0.5655110000000  0.5666360000000  0.4950530000000 1.0
C      1  0.5597490000000  0.4424990000000  0.5031910000000 1.0
C      1  0.4436090000000  0.4393670000000  0.4758220000000 1.0
C      1  0.4490160000000  0.5247000000000  0.5716260000000 1.0
C      1  0.4536590000000  0.4875810000000  0.4343720000000 1.0
C      1  0.5572490000000  0.4951710000000  0.5597900000000 1.0
C      1  0.5177090000000  0.5622870000000  0.5562250000000 1.0
C      1  0.4344270000000  0.4475160000000  0.5034560000000 1.0
C      1  0.5524990000000  0.4953610000000  0.4363230000000 1.0
C      1  0.4837370000000  0.5633570000000  0.4430750000000 1.0
C      1  0.4705500000000  0.4373290000000  0.5604510000000 1.0
C      1  0.5143920000000  0.4245020000000  0.4489140000000 1.0
C      1  0.5539360000000  0.4373740000000  0.4760400000000 1.0
C      1  0.5582640000000  0.5636430000000  0.5245170000000 1.0
C      1  0.4371780000000  0.5514930000000  0.4816270000000 1.0
C      1  0.4425620000000  0.4961810000000  0.5757570000000 1.0
C      1  0.4469170000000  0.5183550000000  0.4383750000000 1.0
C      1  0.5609480000000  0.5271460000000  0.5606160000000 1.0
C      1  0.4368850000000  0.5243690000000  0.4688320000000 1.0
C      1  0.5283930000000  0.4476350000000  0.4343650000000 1.0
C      1  0.4525740000000  0.4426460000000  0.5269630000000 1.0
C      1  0.5607490000000  0.5342690000000  0.5317500000000 1.0
C      1  0.5507950000000  0.4596970000000  0.4527370000000 1.0
C      1  0.4337270000000  0.4808200000000  0.5532540000000 1.0
C      1  0.4658570000000  0.4664960000000  0.5683660000000 1.0
C      1  0.4709630000000  0.5377230000000  0.4301520000000 1.0
C      1  0.5323730000000  0.5388690000000  0.5705910000000 1.0
C      1  0.5247270000000  0.4324110000000  0.4758230000000 1.0
C      1  0.5283030000000  0.5679510000000  0.5274820000000 1.0
C      1  0.4623750000000  0.5647630000000  0.4741450000000 1.0
C      1  0.4408430000000  0.4715580000000  0.4559860000000 1.0
C      1  0.5300780000000  0.5397610000000  0.4352220000000 1.0
C      1  0.4523390000000  0.5706110000000  0.5230630000000 1.0
C      1  0.5593540000000  0.4820000000000  0.5318600000000 1.0
C      1  0.5768100000000  0.5416920000000  0.4860240000000 1.0
C      1  0.4375440000000  0.5339790000000  0.5457220000000 1.0
C      1  0.4790080000000  0.5294340000000  0.5701620000000 1.0
C      1  0.4735540000000  0.4406840000000  0.4271420000000 1.0
C      1  0.5225100000000  0.4446860000000  0.5556770000000 1.0
C      1  0.5406780000000  0.5723050000000  0.4786120000000 1.0
C      1  0.5456280000000  0.4542760000000  0.5258030000000 1.0
C      1  0.4725750000000  0.4346090000000  0.4739350000000 1.0
C      1  0.4963010000000  0.4429740000000  0.5200480000000 1.0
C      1  0.4394360000000  0.4767470000000  0.5020920000000 1.0
C      1  0.5246290000000  0.4941060000000  0.4270900000000 1.0
C      1  0.4917220000000  0.5434770000000  0.5071830000000 1.0
C      1  0.5494380000000  0.4991130000000  0.4866370000000 1.0
C      1  0.5280460000000  0.4934300000000  0.5653120000000 1.0
END
