TITL C-3577078-809-345 -0.0501758368319921 125000 -574.931711319129 0 0 97 (C1) n - 1
REM
REM in /home/bkarasulu/work/CARBON/AIRSS/Generating-Clusters/EDIP-Nigel-Params/with-SteepDescent/Higher-Symm/SD-CG/HFTN-CG
REM
REM
REM
REM
REM
REM ./C.cell (12c818d87b63d06a65506943cc24bca4)
REM
REM compiler GCC version 9.2.1 20190827 (Red Hat 9.2.1-1)
REM options -cpp -mtune=generic -march=x86-64 -g -O0 -fpre-include=/usr/include/finclude/math-vector-fortran.h
REM seed -1763479801 -204078736 -192839270 -757203169 1987466655 -582305545 -1874418311 829080852 536683999 1151366542 -696330561 1860400088 728883036 -429327292 -1693196748 -936077425 -884715793 785558278 657206229 2095244853 -1353582493 971382183 765335972 259456282 -1932686725 69519173 372166085 -1814654446 1060253959 2045841421 -1080405976 -1258834786 8060817
REM
CELL 1.54180   50.00000   50.00000   50.00000   90.00000   90.00000   90.00000
LATT -1
SFAC C  
C      1  0.5780420000000  0.4776290000000  0.5051500000000 1.0
C      1  0.4166980000000  0.5184700000000  0.4953380000000 1.0
C      1  0.4216250000000  0.4727900000000  0.5137930000000 1.0
C      1  0.5901940000000  0.5201870000000  0.4993290000000 1.0
C      1  0.4570410000000  0.4392810000000  0.4543720000000 1.0
C      1  0.5407120000000  0.5592320000000  0.4605010000000 1.0
C      1  0.5403150000000  0.4283120000000  0.4633600000000 1.0
C      1  0.4621860000000  0.5750370000000  0.4535870000000 1.0
C      1  0.5680180000000  0.5373970000000  0.4923390000000 1.0
C      1  0.4429930000000  0.4581860000000  0.4979950000000 1.0
C      1  0.4327450000000  0.5449380000000  0.4911080000000 1.0
C      1  0.5552440000000  0.4584100000000  0.5010640000000 1.0
C      1  0.4526700000000  0.5137220000000  0.4339510000000 1.0
C      1  0.5408960000000  0.4852620000000  0.4404430000000 1.0
C      1  0.5435100000000  0.5157530000000  0.4388730000000 1.0
C      1  0.4475050000000  0.4831540000000  0.4361530000000 1.0
C      1  0.4719410000000  0.5485670000000  0.5470390000000 1.0
C      1  0.5361560000000  0.4467420000000  0.5557130000000 1.0
C      1  0.5317430000000  0.5441400000000  0.5420350000000 1.0
C      1  0.4725640000000  0.4536810000000  0.5494490000000 1.0
C      1  0.5236790000000  0.5359530000000  0.5686940000000 1.0
C      1  0.4836140000000  0.4644010000000  0.5750310000000 1.0
C      1  0.4797430000000  0.5398640000000  0.5735070000000 1.0
C      1  0.5225130000000  0.4437660000000  0.5799010000000 1.0
C      1  0.4299990000000  0.5260690000000  0.4488430000000 1.0
C      1  0.5648370000000  0.4740230000000  0.4552290000000 1.0
C      1  0.5700780000000  0.5208530000000  0.4513600000000 1.0
C      1  0.4260750000000  0.4767900000000  0.4565230000000 1.0
C      1  0.4796720000000  0.4284860000000  0.5098270000000 1.0
C      1  0.5253700000000  0.5810800000000  0.5067630000000 1.0
C      1  0.5353370000000  0.4281360000000  0.5110210000000 1.0
C      1  0.4732360000000  0.5842790000000  0.5143600000000 1.0
C      1  0.5227920000000  0.4200190000000  0.4859270000000 1.0
C      1  0.4707050000000  0.5907150000000  0.4762150000000 1.0
C      1  0.4726080000000  0.4182490000000  0.4654310000000 1.0
C      1  0.5320040000000  0.5765670000000  0.4805520000000 1.0
C      1  0.5585390000000  0.4498890000000  0.4721110000000 1.0
C      1  0.4347820000000  0.5518770000000  0.4624380000000 1.0
C      1  0.4332200000000  0.4506030000000  0.4700700000000 1.0
C      1  0.5681960000000  0.5478620000000  0.4647700000000 1.0
C      1  0.4912490000000  0.4356920000000  0.5343330000000 1.0
C      1  0.5147020000000  0.5627640000000  0.5266040000000 1.0
C      1  0.5201000000000  0.4404730000000  0.5320370000000 1.0
C      1  0.4875780000000  0.5708720000000  0.5359070000000 1.0
C      1  0.5505790000000  0.4716410000000  0.5513370000000 1.0
C      1  0.4571770000000  0.5283580000000  0.5291100000000 1.0
C      1  0.4552690000000  0.4731990000000  0.5318540000000 1.0
C      1  0.5453050000000  0.5218590000000  0.5268720000000 1.0
C      1  0.5260670000000  0.5330170000000  0.4596150000000 1.0
C      1  0.4697760000000  0.4683470000000  0.4530910000000 1.0
C      1  0.4759070000000  0.5140160000000  0.4543160000000 1.0
C      1  0.5186400000000  0.4860040000000  0.4606380000000 1.0
C      1  0.4600350000000  0.5329320000000  0.4982070000000 1.0
C      1  0.5301590000000  0.4767670000000  0.5060920000000 1.0
C      1  0.5395250000000  0.5261250000000  0.4952720000000 1.0
C      1  0.4687530000000  0.4757420000000  0.4911110000000 1.0
C      1  0.4935220000000  0.5388250000000  0.4594120000000 1.0
C      1  0.5099300000000  0.4594130000000  0.4703200000000 1.0
C      1  0.4821870000000  0.5556520000000  0.4151820000000 1.0
C      1  0.5085050000000  0.4459040000000  0.4234800000000 1.0
C      1  0.4712010000000  0.5121600000000  0.5773470000000 1.0
C      1  0.5390260000000  0.5148540000000  0.5823720000000 1.0
C      1  0.4452840000000  0.5079490000000  0.5654180000000 1.0
C      1  0.5624750000000  0.5031820000000  0.5682960000000 1.0
C      1  0.4852980000000  0.5468390000000  0.4871770000000 1.0
C      1  0.4980470000000  0.4608530000000  0.4993290000000 1.0
C      1  0.5351280000000  0.4911530000000  0.5336710000000 1.0
C      1  0.4672710000000  0.5000460000000  0.5279180000000 1.0
C      1  0.4921520000000  0.4195880000000  0.4860810000000 1.0
C      1  0.4900380000000  0.5756750000000  0.4920880000000 1.0
C      1  0.4603100000000  0.5060720000000  0.4805230000000 1.0
C      1  0.5320550000000  0.4980520000000  0.4856860000000 1.0
C      1  0.4258620000000  0.5134240000000  0.5455260000000 1.0
C      1  0.5772170000000  0.5149020000000  0.5463140000000 1.0
C      1  0.5840590000000  0.5019260000000  0.5203380000000 1.0
C      1  0.4238980000000  0.5015620000000  0.5185410000000 1.0
C      1  0.5066680000000  0.4392950000000  0.4490730000000 1.0
C      1  0.4843920000000  0.5607540000000  0.4411310000000 1.0
C      1  0.4979640000000  0.4458640000000  0.5906080000000 1.0
C      1  0.5041960000000  0.5494320000000  0.5838430000000 1.0
C      1  0.4301890000000  0.5047790000000  0.4712730000000 1.0
C      1  0.5740930000000  0.4979840000000  0.4722990000000 1.0
C      1  0.5069430000000  0.4969100000000  0.6458450000000 1.0
C      1  0.5121150000000  0.4982560000000  0.6199780000000 1.0
C      1  0.5003770000000  0.4976700000000  0.3907390000000 1.0
C      1  0.5014750000000  0.4966220000000  0.6716560000000 1.0
C      1  0.4931030000000  0.4980400000000  0.5206600000000 1.0
C      1  0.4968790000000  0.4920030000000  0.4164520000000 1.0
C      1  0.4963780000000  0.4956320000000  0.6966930000000 1.0
C      1  0.4952360000000  0.4923860000000  0.5726030000000 1.0
C      1  0.5079400000000  0.4949020000000  0.5441440000000 1.0
C      1  0.4924520000000  0.4910550000000  0.4446480000000 1.0
C      1  0.5186170000000  0.4957170000000  0.5931820000000 1.0
C      1  0.5144570000000  0.5169460000000  0.2887710000000 1.0
C      1  0.5110310000000  0.5121130000000  0.3136460000000 1.0
C      1  0.5074800000000  0.5072940000000  0.3393430000000 1.0
C      1  0.5039490000000  0.5022560000000  0.3650010000000 1.0
END
