TITL C-3577083-591-415 -1.18622069667818e-06 125000 -430.163877377648 0 0 69 (C3v) n - 1
REM
REM in /home/bkarasulu/work/CARBON/AIRSS/Generating-Clusters/EDIP-Nigel-Params/with-SteepDescent/Higher-Symm/SD-CG/HFTN-CG
REM
REM
REM
REM
REM
REM ./C.cell (12c818d87b63d06a65506943cc24bca4)
REM
REM compiler GCC version 9.2.1 20190827 (Red Hat 9.2.1-1)
REM options -cpp -mtune=generic -march=x86-64 -g -O0 -fpre-include=/usr/include/finclude/math-vector-fortran.h
REM seed 1787751165 1458022652 875105451 1570807837 462992542 97518359 -7933400 830137732 1942085341 -1911294781 1396463826 594903573 235151182 408449460 214631665 -2040079346 -1489734422 1309407351 155575445 1935665679 1205799900 -1268688167 1366041643 -1860567273 67860669 -2008857585 -2107360058 -1923385757 -1843982914 283289976 -2049186832 1209103234 -988279823
REM
CELL 1.54180   50.00000   50.00000   50.00000   90.00000   90.00000   90.00000
LATT -1
SFAC C  
C      1  0.5396030000000  0.4554370000000  0.4740200000000 1.0
C      1  0.5395940000000  0.5447870000000  0.4743940000000 1.0
C      1  0.5395980000000  0.4997880000000  0.5515870000000 1.0
C      1  0.5396030000000  0.4554350000000  0.5259770000000 1.0
C      1  0.5395930000000  0.5447850000000  0.5256100000000 1.0
C      1  0.5395990000000  0.4997920000000  0.4484140000000 1.0
C      1  0.4423280000000  0.4561280000000  0.4749120000000 1.0
C      1  0.4423180000000  0.5436530000000  0.4745550000000 1.0
C      1  0.4423220000000  0.5002000000000  0.5505320000000 1.0
C      1  0.4423270000000  0.4561270000000  0.5250840000000 1.0
C      1  0.4423180000000  0.5436510000000  0.5254470000000 1.0
C      1  0.4423230000000  0.5002040000000  0.4494670000000 1.0
C      1  0.5023640000000  0.4432050000000  0.4451850000000 1.0
C      1  0.5023490000000  0.5758690000000  0.4782210000000 1.0
C      1  0.5023590000000  0.4809270000000  0.5765940000000 1.0
C      1  0.5023630000000  0.4432000000000  0.5548110000000 1.0
C      1  0.5023490000000  0.5758680000000  0.5217850000000 1.0
C      1  0.5023600000000  0.4809320000000  0.4234050000000 1.0
C      1  0.5343830000000  0.5490100000000  0.4448170000000 1.0
C      1  0.5343850000000  0.5232910000000  0.5700330000000 1.0
C      1  0.5343960000000  0.4277100000000  0.4851510000000 1.0
C      1  0.5343820000000  0.5490060000000  0.5551880000000 1.0
C      1  0.5343860000000  0.5232960000000  0.4299690000000 1.0
C      1  0.5343950000000  0.4277090000000  0.5148440000000 1.0
C      1  0.4935790000000  0.4522790000000  0.4737300000000 1.0
C      1  0.4935690000000  0.5466090000000  0.4718080000000 1.0
C      1  0.4935730000000  0.5011090000000  0.5544610000000 1.0
C      1  0.4935790000000  0.4522770000000  0.5262660000000 1.0
C      1  0.4935680000000  0.5466070000000  0.5281950000000 1.0
C      1  0.4935740000000  0.5011130000000  0.4455380000000 1.0
C      1  0.5317430000000  0.4765050000000  0.5697560000000 1.0
C      1  0.5317470000000  0.4513420000000  0.4447730000000 1.0
C      1  0.5317340000000  0.5721620000000  0.4854720000000 1.0
C      1  0.5317450000000  0.4765110000000  0.4302430000000 1.0
C      1  0.5317460000000  0.4513380000000  0.5552240000000 1.0
C      1  0.5317340000000  0.5721610000000  0.5145340000000 1.0
C      1  0.5019830000000  0.4252870000000  0.5145930000000 1.0
C      1  0.5019730000000  0.5247180000000  0.4280000000000 1.0
C      1  0.5019690000000  0.5499950000000  0.5574060000000 1.0
C      1  0.5019830000000  0.4252890000000  0.4854010000000 1.0
C      1  0.5019720000000  0.5247130000000  0.5720020000000 1.0
C      1  0.5019700000000  0.5499990000000  0.4425970000000 1.0
C      1  0.4670570000000  0.5007650000000  0.4654630000000 1.0
C      1  0.4670530000000  0.5295220000000  0.5179340000000 1.0
C      1  0.4670590000000  0.4697020000000  0.5166020000000 1.0
C      1  0.4670560000000  0.5007630000000  0.5345370000000 1.0
C      1  0.4670530000000  0.5295230000000  0.4820680000000 1.0
C      1  0.4670600000000  0.4697030000000  0.4833950000000 1.0
C      1  0.5154880000000  0.5001180000000  0.4676400000000 1.0
C      1  0.5154850000000  0.5279690000000  0.5162810000000 1.0
C      1  0.5154910000000  0.4719190000000  0.5160800000000 1.0
C      1  0.5154880000000  0.5001150000000  0.5323610000000 1.0
C      1  0.5154850000000  0.5279700000000  0.4837220000000 1.0
C      1  0.5154910000000  0.4719200000000  0.4839180000000 1.0
C      1  0.5626190000000  0.4738680000000  0.5151340000000 1.0
C      1  0.5626170000000  0.4999700000000  0.4697970000000 1.0
C      1  0.5626140000000  0.5261820000000  0.5150710000000 1.0
C      1  0.5626200000000  0.4738690000000  0.4848650000000 1.0
C      1  0.5626160000000  0.4999680000000  0.5302040000000 1.0
C      1  0.5626140000000  0.5261830000000  0.4849330000000 1.0
C      1  0.4230680000000  0.5255230000000  0.4852550000000 1.0
C      1  0.4230710000000  0.4999950000000  0.5294820000000 1.0
C      1  0.4230740000000  0.4744570000000  0.4852610000000 1.0
C      1  0.4230680000000  0.5255220000000  0.5147450000000 1.0
C      1  0.4230710000000  0.4999970000000  0.4705170000000 1.0
C      1  0.4230730000000  0.4744560000000  0.5147360000000 1.0
C      1  0.4888020000000  0.4561430000000  0.5759540000000 1.0
C      1  0.4888040000000  0.4561480000000  0.4240420000000 1.0
C      1  0.4887890000000  0.5877050000000  0.5000030000000 1.0
END
