TITL C-3577090-796-159 -1.74280373761561e-07 125000 -672.672776365367 0 0 106 (C1) n - 1
REM
REM in /home/bkarasulu/work/CARBON/AIRSS/Generating-Clusters/EDIP-Nigel-Params/with-SteepDescent/Higher-Symm/SD-CG/HFTN-CG
REM
REM
REM
REM
REM
REM ./C.cell (12c818d87b63d06a65506943cc24bca4)
REM
REM compiler GCC version 9.2.1 20190827 (Red Hat 9.2.1-1)
REM options -cpp -mtune=generic -march=x86-64 -g -O0 -fpre-include=/usr/include/finclude/math-vector-fortran.h
REM seed -576070197 -1265203487 680770963 -1984456237 -1433190720 1630939929 1367773948 376666797 -1916111635 1998403278 1854197372 -554037127 1885719840 1911561191 560718811 1215588417 2134128938 -1463679424 1284023891 -879101749 -1419522827 -805920904 -1225214770 -96976023 671362663 24711486 266492442 -1312600912 939750608 1966407993 -1415049050 -1388755746 -740365708
REM
CELL 1.54180   50.00000   50.00000   50.00000   90.00000   90.00000   90.00000
LATT -1
SFAC C  
C      1  0.5036670000000  0.5943170000000  0.5439610000000 1.0
C      1  0.4767330000000  0.5948460000000  0.5296460000000 1.0
C      1  0.4738930000000  0.5916130000000  0.4909950000000 1.0
C      1  0.4830660000000  0.5945030000000  0.4615150000000 1.0
C      1  0.5130240000000  0.5947780000000  0.4599040000000 1.0
C      1  0.5249370000000  0.5895840000000  0.4879700000000 1.0
C      1  0.5280610000000  0.5923150000000  0.5264820000000 1.0
C      1  0.4044960000000  0.4502770000000  0.4825030000000 1.0
C      1  0.4658030000000  0.4447690000000  0.4240050000000 1.0
C      1  0.5435530000000  0.4520930000000  0.4081750000000 1.0
C      1  0.5941290000000  0.4478690000000  0.4743390000000 1.0
C      1  0.5672070000000  0.4500210000000  0.5520460000000 1.0
C      1  0.4975860000000  0.4486170000000  0.5969380000000 1.0
C      1  0.4217340000000  0.4478470000000  0.5602600000000 1.0
C      1  0.4391130000000  0.4956530000000  0.5579390000000 1.0
C      1  0.4123660000000  0.4987290000000  0.4776500000000 1.0
C      1  0.4596200000000  0.4933850000000  0.4306880000000 1.0
C      1  0.5436850000000  0.5010880000000  0.4150480000000 1.0
C      1  0.5787660000000  0.4955340000000  0.4709150000000 1.0
C      1  0.5691120000000  0.4992250000000  0.5536560000000 1.0
C      1  0.4948800000000  0.4979790000000  0.5941350000000 1.0
C      1  0.5714220000000  0.4987820000000  0.4261010000000 1.0
C      1  0.5806710000000  0.5012880000000  0.4986480000000 1.0
C      1  0.5455340000000  0.5015760000000  0.5698390000000 1.0
C      1  0.4651700000000  0.4958150000000  0.5954030000000 1.0
C      1  0.4291160000000  0.5024940000000  0.5322020000000 1.0
C      1  0.4171400000000  0.4939650000000  0.4487180000000 1.0
C      1  0.4856150000000  0.5009890000000  0.4212310000000 1.0
C      1  0.4779390000000  0.5259500000000  0.5593980000000 1.0
C      1  0.4405490000000  0.5255720000000  0.5135440000000 1.0
C      1  0.4483070000000  0.5263650000000  0.4657860000000 1.0
C      1  0.5002100000000  0.5249760000000  0.4352240000000 1.0
C      1  0.5442160000000  0.5278040000000  0.4540340000000 1.0
C      1  0.5636420000000  0.5232500000000  0.5131290000000 1.0
C      1  0.5255500000000  0.5239720000000  0.5599760000000 1.0
C      1  0.5565900000000  0.4507470000000  0.4333020000000 1.0
C      1  0.5770760000000  0.4503860000000  0.4964110000000 1.0
C      1  0.5411930000000  0.4508900000000  0.5624810000000 1.0
C      1  0.4740300000000  0.4461360000000  0.5815880000000 1.0
C      1  0.4271660000000  0.4497900000000  0.5329780000000 1.0
C      1  0.4275140000000  0.4469260000000  0.4662800000000 1.0
C      1  0.4933060000000  0.4495650000000  0.4257850000000 1.0
C      1  0.4963780000000  0.5562180000000  0.4328820000000 1.0
C      1  0.5432920000000  0.5571410000000  0.4577640000000 1.0
C      1  0.5542030000000  0.5532140000000  0.5093720000000 1.0
C      1  0.5305240000000  0.5548440000000  0.5577380000000 1.0
C      1  0.4782090000000  0.5556070000000  0.5562990000000 1.0
C      1  0.4460420000000  0.5570380000000  0.5162270000000 1.0
C      1  0.4543340000000  0.5558420000000  0.4649890000000 1.0
C      1  0.5715260000000  0.5150420000000  0.4513130000000 1.0
C      1  0.5739610000000  0.5226540000000  0.5398140000000 1.0
C      1  0.5009790000000  0.5212130000000  0.5769600000000 1.0
C      1  0.4545570000000  0.5136500000000  0.5736300000000 1.0
C      1  0.4274570000000  0.5223870000000  0.4864320000000 1.0
C      1  0.4398900000000  0.5119110000000  0.4406390000000 1.0
C      1  0.5296870000000  0.5225120000000  0.4291880000000 1.0
C      1  0.5351870000000  0.4747680000000  0.5787430000000 1.0
C      1  0.4539340000000  0.4670710000000  0.5910570000000 1.0
C      1  0.4203170000000  0.4766510000000  0.5207050000000 1.0
C      1  0.4246800000000  0.4648260000000  0.4419060000000 1.0
C      1  0.5010470000000  0.4760260000000  0.4139930000000 1.0
C      1  0.5801780000000  0.4697900000000  0.4331930000000 1.0
C      1  0.5826030000000  0.4751710000000  0.5129220000000 1.0
C      1  0.4521820000000  0.5707500000000  0.4902810000000 1.0
C      1  0.4733710000000  0.5699830000000  0.4470000000000 1.0
C      1  0.5215010000000  0.5718140000000  0.4424310000000 1.0
C      1  0.5440870000000  0.5669010000000  0.4850760000000 1.0
C      1  0.5437910000000  0.5678330000000  0.5334930000000 1.0
C      1  0.5040680000000  0.5699730000000  0.5609670000000 1.0
C      1  0.4609840000000  0.5708850000000  0.5382120000000 1.0
C      1  0.5161480000000  0.5188240000000  0.5315210000000 1.0
C      1  0.4871120000000  0.5114700000000  0.5310830000000 1.0
C      1  0.4701980000000  0.5208120000000  0.5079060000000 1.0
C      1  0.4728800000000  0.5118640000000  0.4790180000000 1.0
C      1  0.4978800000000  0.5214480000000  0.4655290000000 1.0
C      1  0.5248370000000  0.5148430000000  0.4753600000000 1.0
C      1  0.5355540000000  0.5099600000000  0.5110350000000 1.0
C      1  0.4723970000000  0.4794150000000  0.4788640000000 1.0
C      1  0.4999190000000  0.4705590000000  0.4704770000000 1.0
C      1  0.5255200000000  0.4837680000000  0.4772740000000 1.0
C      1  0.5339820000000  0.4777700000000  0.5072110000000 1.0
C      1  0.5115660000000  0.4680620000000  0.5249980000000 1.0
C      1  0.4859040000000  0.4816450000000  0.5300200000000 1.0
C      1  0.4635130000000  0.4727320000000  0.5120230000000 1.0
C      1  0.5174800000000  0.4065560000000  0.4808990000000 1.0
C      1  0.5297870000000  0.4230380000000  0.5001130000000 1.0
C      1  0.5181550000000  0.4204910000000  0.5276040000000 1.0
C      1  0.4875190000000  0.4155000000000  0.5339630000000 1.0
C      1  0.4701240000000  0.4121510000000  0.5104220000000 1.0
C      1  0.4723640000000  0.4257640000000  0.4852330000000 1.0
C      1  0.4972930000000  0.4226460000000  0.4699420000000 1.0
C      1  0.4491600000000  0.4669920000000  0.4259620000000 1.0
C      1  0.5295320000000  0.4764960000000  0.4095590000000 1.0
C      1  0.5915130000000  0.4719040000000  0.4602090000000 1.0
C      1  0.5708260000000  0.4743780000000  0.5391700000000 1.0
C      1  0.5084030000000  0.4731800000000  0.5886680000000 1.0
C      1  0.4324050000000  0.4709550000000  0.5717050000000 1.0
C      1  0.4089280000000  0.4753940000000  0.4944850000000 1.0
C      1  0.5383090000000  0.4509850000000  0.4584120000000 1.0
C      1  0.5466230000000  0.4479580000000  0.4905140000000 1.0
C      1  0.5164270000000  0.4458620000000  0.5439390000000 1.0
C      1  0.4788180000000  0.4431420000000  0.5505900000000 1.0
C      1  0.4563110000000  0.4452660000000  0.5247040000000 1.0
C      1  0.4546180000000  0.4498750000000  0.4818860000000 1.0
C      1  0.5064220000000  0.4465210000000  0.4541900000000 1.0
C      1  0.4999410000000  0.5792410000000  0.5030490000000 1.0
END
