TITL C-3577079-311-694 -2.84736963378689e-07 125000 -840.215491442395 0 0 136 (C1) n - 1
REM
REM in /home/bkarasulu/work/CARBON/AIRSS/Generating-Clusters/EDIP-Nigel-Params/with-SteepDescent/Higher-Symm/SD-CG/HFTN-CG
REM
REM
REM
REM
REM
REM ./C.cell (12c818d87b63d06a65506943cc24bca4)
REM
REM compiler GCC version 9.2.1 20190827 (Red Hat 9.2.1-1)
REM options -cpp -mtune=generic -march=x86-64 -g -O0 -fpre-include=/usr/include/finclude/math-vector-fortran.h
REM seed 1823689779 1197378336 10600701 -700828970 -1958952525 243669198 -365641490 1994234809 402649835 1406601697 -266534841 -440217213 444035042 216327052 -1146989736 554902160 -797582927 -1888073136 -2011428894 -212879929 1282810084 38579782 1453023204 1284857954 160267142 -300709466 636410578 89306152 1495247109 -837870869 311133032 2089824457 1978967249
REM
CELL 1.54180   50.00000   50.00000   50.00000   90.00000   90.00000   90.00000
LATT -1
SFAC C  
C      1  0.5314360000000  0.6063640000000  0.4683810000000 1.0
C      1  0.5282370000000  0.6071200000000  0.5306400000000 1.0
C      1  0.4760330000000  0.4413950000000  0.5666860000000 1.0
C      1  0.4721060000000  0.4416830000000  0.4313230000000 1.0
C      1  0.5140430000000  0.4712990000000  0.5305180000000 1.0
C      1  0.5097530000000  0.4747020000000  0.4749700000000 1.0
C      1  0.5425440000000  0.5114990000000  0.5343360000000 1.0
C      1  0.5416220000000  0.5106760000000  0.4670120000000 1.0
C      1  0.4614330000000  0.5655540000000  0.5263980000000 1.0
C      1  0.4637770000000  0.5664990000000  0.4704380000000 1.0
C      1  0.4500680000000  0.4935710000000  0.4137560000000 1.0
C      1  0.4527860000000  0.4916710000000  0.5846080000000 1.0
C      1  0.5053450000000  0.4362740000000  0.5714220000000 1.0
C      1  0.5006870000000  0.4357760000000  0.4255350000000 1.0
C      1  0.5004670000000  0.3931990000000  0.4743340000000 1.0
C      1  0.5013890000000  0.3955560000000  0.5261270000000 1.0
C      1  0.3970990000000  0.4856530000000  0.5147390000000 1.0
C      1  0.3965340000000  0.4861490000000  0.4858530000000 1.0
C      1  0.5524410000000  0.5329140000000  0.4219150000000 1.0
C      1  0.5511700000000  0.5378590000000  0.5823350000000 1.0
C      1  0.5198490000000  0.5602240000000  0.4749070000000 1.0
C      1  0.5184370000000  0.5603220000000  0.5245930000000 1.0
C      1  0.3996540000000  0.4625820000000  0.4691520000000 1.0
C      1  0.4010090000000  0.4618090000000  0.5311430000000 1.0
C      1  0.5260850000000  0.4306810000000  0.4425250000000 1.0
C      1  0.5296490000000  0.4366110000000  0.5523020000000 1.0
C      1  0.6023880000000  0.5335680000000  0.5299920000000 1.0
C      1  0.6000340000000  0.5289870000000  0.4770410000000 1.0
C      1  0.5678870000000  0.5527150000000  0.5609900000000 1.0
C      1  0.5707270000000  0.5474130000000  0.4417790000000 1.0
C      1  0.5450600000000  0.4909460000000  0.5991050000000 1.0
C      1  0.5395000000000  0.4868970000000  0.4137390000000 1.0
C      1  0.4750700000000  0.5049040000000  0.5978880000000 1.0
C      1  0.4728300000000  0.5065880000000  0.4004590000000 1.0
C      1  0.5702420000000  0.5084450000000  0.5550520000000 1.0
C      1  0.5703500000000  0.5037310000000  0.4504410000000 1.0
C      1  0.5158650000000  0.5152670000000  0.5509670000000 1.0
C      1  0.5135750000000  0.5144250000000  0.4496470000000 1.0
C      1  0.4211610000000  0.5091540000000  0.5521950000000 1.0
C      1  0.4193050000000  0.5109650000000  0.4476180000000 1.0
C      1  0.5663360000000  0.4657040000000  0.5202920000000 1.0
C      1  0.5619130000000  0.4656990000000  0.4719450000000 1.0
C      1  0.4492650000000  0.4651520000000  0.4112390000000 1.0
C      1  0.4524950000000  0.4633380000000  0.5876300000000 1.0
C      1  0.4123000000000  0.5077510000000  0.5243650000000 1.0
C      1  0.4111330000000  0.5086440000000  0.4757360000000 1.0
C      1  0.4433040000000  0.4385260000000  0.5247940000000 1.0
C      1  0.4420260000000  0.4392390000000  0.4737860000000 1.0
C      1  0.4746520000000  0.5353320000000  0.4110730000000 1.0
C      1  0.4753510000000  0.5337620000000  0.5873080000000 1.0
C      1  0.4130750000000  0.4395970000000  0.4839540000000 1.0
C      1  0.4138300000000  0.4392190000000  0.5157010000000 1.0
C      1  0.5034520000000  0.6024760000000  0.4657840000000 1.0
C      1  0.5004770000000  0.6018370000000  0.5330690000000 1.0
C      1  0.6004450000000  0.5051400000000  0.5195990000000 1.0
C      1  0.5914660000000  0.5050760000000  0.4919930000000 1.0
C      1  0.5165740000000  0.4491670000000  0.5946320000000 1.0
C      1  0.5100270000000  0.4486680000000  0.4019430000000 1.0
C      1  0.4952140000000  0.4895340000000  0.4103760000000 1.0
C      1  0.4982990000000  0.4886040000000  0.5885110000000 1.0
C      1  0.4660150000000  0.4860970000000  0.4656930000000 1.0
C      1  0.4681660000000  0.4848530000000  0.5338710000000 1.0
C      1  0.4513110000000  0.5035590000000  0.5569170000000 1.0
C      1  0.4491500000000  0.5051390000000  0.4415920000000 1.0
C      1  0.5639260000000  0.5580320000000  0.4697560000000 1.0
C      1  0.5623230000000  0.5600080000000  0.5314060000000 1.0
C      1  0.5729180000000  0.4610290000000  0.5490240000000 1.0
C      1  0.5618150000000  0.4622390000000  0.4434950000000 1.0
C      1  0.5642120000000  0.5097600000000  0.5854750000000 1.0
C      1  0.5620360000000  0.5038230000000  0.4212140000000 1.0
C      1  0.5218460000000  0.5289100000000  0.5792350000000 1.0
C      1  0.5212850000000  0.5284620000000  0.4218720000000 1.0
C      1  0.4895760000000  0.4981290000000  0.5158530000000 1.0
C      1  0.4890970000000  0.4965420000000  0.4845990000000 1.0
C      1  0.4571680000000  0.4153880000000  0.5128900000000 1.0
C      1  0.4567870000000  0.4159120000000  0.4843000000000 1.0
C      1  0.5004690000000  0.5750270000000  0.4223130000000 1.0
C      1  0.4991970000000  0.5746220000000  0.5766630000000 1.0
C      1  0.5480700000000  0.4436870000000  0.4279880000000 1.0
C      1  0.5475960000000  0.4571270000000  0.5622500000000 1.0
C      1  0.4102910000000  0.5347610000000  0.5149140000000 1.0
C      1  0.4103490000000  0.5353280000000  0.4862510000000 1.0
C      1  0.5596970000000  0.4381390000000  0.5111200000000 1.0
C      1  0.5586750000000  0.4378050000000  0.4823010000000 1.0
C      1  0.5365720000000  0.4585370000000  0.4061030000000 1.0
C      1  0.5420150000000  0.4619790000000  0.5900320000000 1.0
C      1  0.4316700000000  0.4521220000000  0.5703270000000 1.0
C      1  0.4286770000000  0.4541640000000  0.4289020000000 1.0
C      1  0.5412910000000  0.5797810000000  0.4688780000000 1.0
C      1  0.5393020000000  0.5810770000000  0.5289700000000 1.0
C      1  0.5872680000000  0.4807910000000  0.4769030000000 1.0
C      1  0.5885260000000  0.4876710000000  0.5433380000000 1.0
C      1  0.5195680000000  0.5057890000000  0.5986220000000 1.0
C      1  0.5193600000000  0.5043520000000  0.4036120000000 1.0
C      1  0.4489820000000  0.5534810000000  0.5517660000000 1.0
C      1  0.4482140000000  0.5546340000000  0.4467580000000 1.0
C      1  0.4961840000000  0.5783250000000  0.4827150000000 1.0
C      1  0.4943840000000  0.5775160000000  0.5159670000000 1.0
C      1  0.4458860000000  0.4363530000000  0.4442380000000 1.0
C      1  0.4492600000000  0.4352240000000  0.5541710000000 1.0
C      1  0.4969210000000  0.4883580000000  0.4415660000000 1.0
C      1  0.5009360000000  0.4882620000000  0.5564880000000 1.0
C      1  0.5423190000000  0.5379160000000  0.4841060000000 1.0
C      1  0.5420220000000  0.5383110000000  0.5168680000000 1.0
C      1  0.5376170000000  0.4256490000000  0.5255200000000 1.0
C      1  0.5354860000000  0.4238480000000  0.4707500000000 1.0
C      1  0.4864370000000  0.4194970000000  0.5169940000000 1.0
C      1  0.4864850000000  0.4188640000000  0.4793320000000 1.0
C      1  0.5257760000000  0.4000630000000  0.4846750000000 1.0
C      1  0.5263080000000  0.4013330000000  0.5143600000000 1.0
C      1  0.4412470000000  0.5806480000000  0.5127640000000 1.0
C      1  0.4448630000000  0.5802610000000  0.4864210000000 1.0
C      1  0.4541440000000  0.4649830000000  0.4842460000000 1.0
C      1  0.4552320000000  0.4645050000000  0.5143980000000 1.0
C      1  0.4910510000000  0.5258170000000  0.5249000000000 1.0
C      1  0.4948030000000  0.5237940000000  0.4736400000000 1.0
C      1  0.4151240000000  0.4709250000000  0.5553790000000 1.0
C      1  0.4128930000000  0.4726770000000  0.4448030000000 1.0
C      1  0.5901080000000  0.5262820000000  0.4496510000000 1.0
C      1  0.5887100000000  0.5323770000000  0.5560820000000 1.0
C      1  0.4634330000000  0.5317260000000  0.4378320000000 1.0
C      1  0.4650990000000  0.5306270000000  0.5600610000000 1.0
C      1  0.4726960000000  0.5410960000000  0.4837380000000 1.0
C      1  0.4700110000000  0.5408330000000  0.5121380000000 1.0
C      1  0.5018930000000  0.4476300000000  0.4868680000000 1.0
C      1  0.4971060000000  0.4502500000000  0.5155290000000 1.0
C      1  0.5008930000000  0.5489280000000  0.5876830000000 1.0
C      1  0.5012600000000  0.5490940000000  0.4117400000000 1.0
C      1  0.5885280000000  0.5563830000000  0.5160370000000 1.0
C      1  0.5895060000000  0.5551920000000  0.4865290000000 1.0
C      1  0.4213710000000  0.5433240000000  0.4512390000000 1.0
C      1  0.4220630000000  0.5418080000000  0.5498030000000 1.0
C      1  0.5401570000000  0.4840220000000  0.5167490000000 1.0
C      1  0.5378500000000  0.4843100000000  0.4833680000000 1.0
C      1  0.4969590000000  0.5954650000000  0.4394440000000 1.0
C      1  0.4942750000000  0.5946590000000  0.5594110000000 1.0
END
