TITL C-3577087-600-463 -5.93859279083667e-06 125000 -914.760119995933 0 0 148 (C1) n - 1
REM
REM in /home/bkarasulu/work/CARBON/AIRSS/Generating-Clusters/EDIP-Nigel-Params/with-SteepDescent/Higher-Symm/SD-CG/HFTN-CG
REM
REM
REM
REM
REM
REM ./C.cell (12c818d87b63d06a65506943cc24bca4)
REM
REM compiler GCC version 9.2.1 20190827 (Red Hat 9.2.1-1)
REM options -cpp -mtune=generic -march=x86-64 -g -O0 -fpre-include=/usr/include/finclude/math-vector-fortran.h
REM seed -1572920670 823543554 -935268516 -232566567 -503561565 -712545292 1430595395 1694361413 -526626189 -64126509 -1449311972 365853889 -595895612 -834367075 -1994649194 -413268471 496428343 610047669 422291008 -1582435353 -884855837 822647201 1486825184 1749577478 -320755403 -421269555 -390016303 -1066681490 -1439934715 30313444 -978529315 -1389068124 -1873738041
REM
CELL 1.54180   50.00000   50.00000   50.00000   90.00000   90.00000   90.00000
LATT -1
SFAC C  
C      1  0.4464990000000  0.4786420000000  0.5930250000000 1.0
C      1  0.5633930000000  0.4798610000000  0.5699220000000 1.0
C      1  0.5976330000000  0.4778170000000  0.4552810000000 1.0
C      1  0.4919860000000  0.4820040000000  0.4012370000000 1.0
C      1  0.4021370000000  0.4736460000000  0.4816620000000 1.0
C      1  0.4561120000000  0.5251520000000  0.4096220000000 1.0
C      1  0.5713770000000  0.5221610000000  0.4312320000000 1.0
C      1  0.5823190000000  0.5209180000000  0.5352310000000 1.0
C      1  0.4840360000000  0.5236010000000  0.5927240000000 1.0
C      1  0.4030420000000  0.5177580000000  0.5177620000000 1.0
C      1  0.5579380000000  0.4186210000000  0.4876870000000 1.0
C      1  0.5056880000000  0.4065680000000  0.4418530000000 1.0
C      1  0.4430700000000  0.4117080000000  0.4800140000000 1.0
C      1  0.4560870000000  0.4120110000000  0.5545440000000 1.0
C      1  0.5286140000000  0.4066980000000  0.5519530000000 1.0
C      1  0.5708040000000  0.5826990000000  0.5066930000000 1.0
C      1  0.5154780000000  0.5994200000000  0.5501540000000 1.0
C      1  0.4434010000000  0.5860400000000  0.5363530000000 1.0
C      1  0.4471830000000  0.5850520000000  0.4656990000000 1.0
C      1  0.5173190000000  0.5701510000000  0.4485030000000 1.0
C      1  0.5361460000000  0.4628850000000  0.4029010000000 1.0
C      1  0.4258930000000  0.4604230000000  0.4414480000000 1.0
C      1  0.4173070000000  0.4568490000000  0.5610900000000 1.0
C      1  0.5252160000000  0.4612850000000  0.5933230000000 1.0
C      1  0.5998690000000  0.4560040000000  0.4985430000000 1.0
C      1  0.5295050000000  0.5433270000000  0.5847970000000 1.0
C      1  0.4157430000000  0.5447370000000  0.5597180000000 1.0
C      1  0.4272760000000  0.5432240000000  0.4456230000000 1.0
C      1  0.5336670000000  0.5478680000000  0.4095010000000 1.0
C      1  0.6004360000000  0.5384600000000  0.4977090000000 1.0
C      1  0.5695450000000  0.4770810000000  0.4458670000000 1.0
C      1  0.4757910000000  0.4834600000000  0.4258190000000 1.0
C      1  0.4111430000000  0.4718260000000  0.5088570000000 1.0
C      1  0.4725290000000  0.4791620000000  0.5788740000000 1.0
C      1  0.5728150000000  0.4754760000000  0.5434630000000 1.0
C      1  0.5633740000000  0.5275770000000  0.5553460000000 1.0
C      1  0.4558850000000  0.5287360000000  0.5895130000000 1.0
C      1  0.3985900000000  0.5215520000000  0.4891680000000 1.0
C      1  0.4843850000000  0.5309160000000  0.4039420000000 1.0
C      1  0.5912770000000  0.5263690000000  0.4515260000000 1.0
C      1  0.5646090000000  0.4889060000000  0.4822480000000 1.0
C      1  0.5121610000000  0.4921810000000  0.4388770000000 1.0
C      1  0.4415930000000  0.5010780000000  0.4634840000000 1.0
C      1  0.4610680000000  0.4905480000000  0.5507830000000 1.0
C      1  0.5172410000000  0.4898060000000  0.5533650000000 1.0
C      1  0.5746730000000  0.5199120000000  0.4916220000000 1.0
C      1  0.5203200000000  0.5200610000000  0.5552190000000 1.0
C      1  0.4437860000000  0.5208210000000  0.5481880000000 1.0
C      1  0.4481670000000  0.5299370000000  0.4624710000000 1.0
C      1  0.5157410000000  0.5237660000000  0.4337220000000 1.0
C      1  0.5248020000000  0.5241060000000  0.5020820000000 1.0
C      1  0.5019460000000  0.5282850000000  0.4839760000000 1.0
C      1  0.4765500000000  0.5244950000000  0.5002970000000 1.0
C      1  0.4842310000000  0.5349750000000  0.5266990000000 1.0
C      1  0.5139830000000  0.5338970000000  0.5293610000000 1.0
C      1  0.5383070000000  0.4759120000000  0.4892190000000 1.0
C      1  0.5069520000000  0.4674500000000  0.5339770000000 1.0
C      1  0.4739940000000  0.4756660000000  0.5261560000000 1.0
C      1  0.4577460000000  0.4815070000000  0.4792700000000 1.0
C      1  0.5203080000000  0.4706950000000  0.4644510000000 1.0
C      1  0.5156680000000  0.5684550000000  0.4177660000000 1.0
C      1  0.4100130000000  0.5614430000000  0.4596120000000 1.0
C      1  0.4292430000000  0.5656680000000  0.5734060000000 1.0
C      1  0.5473190000000  0.5643430000000  0.5777260000000 1.0
C      1  0.6018450000000  0.5626150000000  0.4821930000000 1.0
C      1  0.5028300000000  0.4450780000000  0.5997920000000 1.0
C      1  0.4113820000000  0.4372730000000  0.5411340000000 1.0
C      1  0.4444230000000  0.4457330000000  0.4262750000000 1.0
C      1  0.5564670000000  0.4446730000000  0.4119060000000 1.0
C      1  0.5852950000000  0.4393250000000  0.5159090000000 1.0
C      1  0.4700380000000  0.4558090000000  0.4358900000000 1.0
C      1  0.4239790000000  0.4466820000000  0.5163190000000 1.0
C      1  0.4843190000000  0.4504130000000  0.5778540000000 1.0
C      1  0.5640990000000  0.4501260000000  0.5325840000000 1.0
C      1  0.5590440000000  0.4493660000000  0.4404000000000 1.0
C      1  0.4568380000000  0.5547590000000  0.5738980000000 1.0
C      1  0.4015420000000  0.5504660000000  0.4845940000000 1.0
C      1  0.4887470000000  0.5596190000000  0.4087740000000 1.0
C      1  0.5889010000000  0.5544560000000  0.4583080000000 1.0
C      1  0.5541930000000  0.5562880000000  0.5503290000000 1.0
C      1  0.4085330000000  0.5630350000000  0.5109780000000 1.0
C      1  0.4842430000000  0.5694320000000  0.5795190000000 1.0
C      1  0.5790200000000  0.5692320000000  0.5336810000000 1.0
C      1  0.5646470000000  0.5661800000000  0.4455230000000 1.0
C      1  0.4644510000000  0.5704210000000  0.4223100000000 1.0
C      1  0.4201020000000  0.4301950000000  0.4890520000000 1.0
C      1  0.4944100000000  0.4393380000000  0.4254860000000 1.0
C      1  0.5776030000000  0.4318180000000  0.4579090000000 1.0
C      1  0.5557290000000  0.4329050000000  0.5575460000000 1.0
C      1  0.4595560000000  0.4320840000000  0.5790930000000 1.0
C      1  0.4594970000000  0.4214630000000  0.5265070000000 1.0
C      1  0.5021600000000  0.4164450000000  0.5498420000000 1.0
C      1  0.5373200000000  0.4263410000000  0.5066650000000 1.0
C      1  0.5247730000000  0.4200260000000  0.4579900000000 1.0
C      1  0.4676020000000  0.4241190000000  0.4701340000000 1.0
C      1  0.4516700000000  0.5718510000000  0.4906070000000 1.0
C      1  0.4934810000000  0.5794110000000  0.4608950000000 1.0
C      1  0.5476920000000  0.5687950000000  0.4924950000000 1.0
C      1  0.5307640000000  0.6025150000000  0.5261790000000 1.0
C      1  0.4709060000000  0.5841460000000  0.5370630000000 1.0
C      1  0.4699680000000  0.4550180000000  0.4668590000000 1.0
C      1  0.4543380000000  0.4505660000000  0.5221800000000 1.0
C      1  0.5003080000000  0.4451960000000  0.5532840000000 1.0
C      1  0.5342950000000  0.4569540000000  0.5138400000000 1.0
C      1  0.5307660000000  0.4472150000000  0.4493100000000 1.0
C      1  0.4617470000000  0.5469390000000  0.5426460000000 1.0
C      1  0.4533990000000  0.5412390000000  0.4887540000000 1.0
C      1  0.5045220000000  0.5419420000000  0.4567000000000 1.0
C      1  0.5493640000000  0.5375580000000  0.4926920000000 1.0
C      1  0.5267180000000  0.5592910000000  0.5350630000000 1.0
C      1  0.5522200000000  0.5070700000000  0.5745740000000 1.0
C      1  0.6028820000000  0.5046130000000  0.4687110000000 1.0
C      1  0.5046370000000  0.5093120000000  0.3988760000000 1.0
C      1  0.4032010000000  0.4998080000000  0.4686950000000 1.0
C      1  0.4361940000000  0.5060710000000  0.5837440000000 1.0
C      1  0.5622470000000  0.4959800000000  0.4254670000000 1.0
C      1  0.5892320000000  0.4938030000000  0.5293830000000 1.0
C      1  0.4918620000000  0.4962110000000  0.5933290000000 1.0
C      1  0.4088460000000  0.4919450000000  0.5282180000000 1.0
C      1  0.4502770000000  0.4981660000000  0.4203670000000 1.0
C      1  0.5958110000000  0.5442100000000  0.5256920000000 1.0
C      1  0.5542530000000  0.5446400000000  0.4285620000000 1.0
C      1  0.4412240000000  0.5498310000000  0.4194670000000 1.0
C      1  0.4090240000000  0.5421810000000  0.5316750000000 1.0
C      1  0.5011620000000  0.5457620000000  0.5855160000000 1.0
C      1  0.5988250000000  0.4512710000000  0.4695090000000 1.0
C      1  0.5502440000000  0.4546140000000  0.5788190000000 1.0
C      1  0.4354900000000  0.4518460000000  0.5834880000000 1.0
C      1  0.4136920000000  0.4513820000000  0.4670450000000 1.0
C      1  0.5072960000000  0.4560640000000  0.4026230000000 1.0
C      1  0.4815990000000  0.4032570000000  0.5650230000000 1.0
C      1  0.5440850000000  0.4094170000000  0.5288590000000 1.0
C      1  0.5492310000000  0.4065460000000  0.4636860000000 1.0
C      1  0.4783510000000  0.4111460000000  0.4467150000000 1.0
C      1  0.4440710000000  0.4055140000000  0.5080440000000 1.0
C      1  0.4687290000000  0.5843100000000  0.4480430000000 1.0
C      1  0.5437250000000  0.5776470000000  0.4630240000000 1.0
C      1  0.5597250000000  0.6020710000000  0.5255130000000 1.0
C      1  0.4898010000000  0.5893030000000  0.5579320000000 1.0
C      1  0.4317540000000  0.5819170000000  0.5109550000000 1.0
C      1  0.4224160000000  0.4848430000000  0.5535360000000 1.0
C      1  0.5191820000000  0.4888870000000  0.5846280000000 1.0
C      1  0.5972430000000  0.4851470000000  0.5024080000000 1.0
C      1  0.4265440000000  0.4903130000000  0.4387740000000 1.0
C      1  0.5350800000000  0.4905470000000  0.4147990000000 1.0
C      1  0.5252300000000  0.5774390000000  0.5113540000000 1.0
C      1  0.4964470000000  0.4603440000000  0.4748150000000 1.0
C      1  0.4711670000000  0.4938820000000  0.5019280000000 1.0
END
