TITL C-3577077-324-304 -3.78511381366439e-07 125000 -934.805563786711 0 0 147 (C1) n - 1
REM
REM in /home/bkarasulu/work/CARBON/AIRSS/Generating-Clusters/EDIP-Nigel-Params/with-SteepDescent/Higher-Symm/SD-CG/HFTN-CG
REM
REM
REM
REM
REM
REM ./C.cell (12c818d87b63d06a65506943cc24bca4)
REM
REM compiler GCC version 9.2.1 20190827 (Red Hat 9.2.1-1)
REM options -cpp -mtune=generic -march=x86-64 -g -O0 -fpre-include=/usr/include/finclude/math-vector-fortran.h
REM seed -825474963 1887197647 835046908 1439323513 -143985703 -2049668791 -406499159 -274053599 -737793596 -1506730303 -1575574267 -284848726 1973354835 -1524601264 507301042 -1824930226 -1086148002 -304874317 -213490980 2111771669 1558336811 -1696476699 -2021036314 744903093 -680102173 2116254453 -1963068194 -210027159 -210059066 520967873 709886153 -1797945309 1405652372
REM
CELL 1.54180   50.00000   50.00000   50.00000   90.00000   90.00000   90.00000
LATT -1
SFAC C  
C      1  0.4850670000000  0.4745760000000  0.6000630000000 1.0
C      1  0.3965100000000  0.4721410000000  0.4852750000000 1.0
C      1  0.5141000000000  0.4758700000000  0.4035730000000 1.0
C      1  0.6032410000000  0.4732380000000  0.5173580000000 1.0
C      1  0.5161960000000  0.5229100000000  0.5992570000000 1.0
C      1  0.6020670000000  0.5243540000000  0.4859990000000 1.0
C      1  0.4833190000000  0.5257490000000  0.3992000000000 1.0
C      1  0.3993220000000  0.5216690000000  0.5164130000000 1.0
C      1  0.5123160000000  0.5259420000000  0.4078090000000 1.0
C      1  0.5983670000000  0.5259830000000  0.5155550000000 1.0
C      1  0.4869050000000  0.5261360000000  0.5958270000000 1.0
C      1  0.4015190000000  0.5244440000000  0.4872650000000 1.0
C      1  0.4853330000000  0.4761390000000  0.4086230000000 1.0
C      1  0.4029980000000  0.4697820000000  0.5148340000000 1.0
C      1  0.5147310000000  0.4714450000000  0.5976530000000 1.0
C      1  0.5954020000000  0.4725970000000  0.4886100000000 1.0
C      1  0.4252900000000  0.4771190000000  0.4493800000000 1.0
C      1  0.5589510000000  0.4748200000000  0.4209580000000 1.0
C      1  0.5752470000000  0.4780910000000  0.5537850000000 1.0
C      1  0.4493110000000  0.4769450000000  0.5717220000000 1.0
C      1  0.5726100000000  0.5214340000000  0.4508360000000 1.0
C      1  0.4460170000000  0.5216650000000  0.4265620000000 1.0
C      1  0.4270820000000  0.5182100000000  0.5532460000000 1.0
C      1  0.5542320000000  0.5203560000000  0.5751320000000 1.0
C      1  0.5466550000000  0.4822530000000  0.4718460000000 1.0
C      1  0.5235320000000  0.4814150000000  0.5487310000000 1.0
C      1  0.4532810000000  0.4872900000000  0.5222030000000 1.0
C      1  0.4719310000000  0.4834450000000  0.4497010000000 1.0
C      1  0.4506110000000  0.5163280000000  0.4723860000000 1.0
C      1  0.4759510000000  0.5189510000000  0.5471160000000 1.0
C      1  0.5497090000000  0.5169600000000  0.5227760000000 1.0
C      1  0.5244680000000  0.5145860000000  0.4480790000000 1.0
C      1  0.4584860000000  0.4735250000000  0.4969540000000 1.0
C      1  0.4967470000000  0.4783150000000  0.4668370000000 1.0
C      1  0.5377810000000  0.4732460000000  0.4997980000000 1.0
C      1  0.4963990000000  0.4724770000000  0.5399570000000 1.0
C      1  0.5403190000000  0.5261900000000  0.4958080000000 1.0
C      1  0.4990650000000  0.5237350000000  0.4621940000000 1.0
C      1  0.4687310000000  0.5214770000000  0.4965090000000 1.0
C      1  0.5024400000000  0.5259410000000  0.5361940000000 1.0
C      1  0.5083240000000  0.5842150000000  0.4414760000000 1.0
C      1  0.5616590000000  0.5849380000000  0.5109450000000 1.0
C      1  0.4911000000000  0.5838690000000  0.5595760000000 1.0
C      1  0.4395600000000  0.5847330000000  0.4912300000000 1.0
C      1  0.4918470000000  0.4166700000000  0.4411750000000 1.0
C      1  0.4389000000000  0.4129730000000  0.5091360000000 1.0
C      1  0.5095230000000  0.4149300000000  0.5614350000000 1.0
C      1  0.5593340000000  0.4131630000000  0.4939720000000 1.0
C      1  0.4413620000000  0.5263850000000  0.5775150000000 1.0
C      1  0.4202350000000  0.5268580000000  0.4419120000000 1.0
C      1  0.5596090000000  0.5271410000000  0.4242020000000 1.0
C      1  0.5790110000000  0.5267970000000  0.5601810000000 1.0
C      1  0.5601380000000  0.4714650000000  0.5784430000000 1.0
C      1  0.5751260000000  0.4739310000000  0.4463580000000 1.0
C      1  0.4388430000000  0.4715470000000  0.4227120000000 1.0
C      1  0.4221700000000  0.4688990000000  0.5600190000000 1.0
C      1  0.4748640000000  0.4485870000000  0.4987050000000 1.0
C      1  0.4986330000000  0.4501930000000  0.4792510000000 1.0
C      1  0.5200900000000  0.4490740000000  0.5022860000000 1.0
C      1  0.4954310000000  0.4486700000000  0.5230800000000 1.0
C      1  0.5239880000000  0.5507470000000  0.4958960000000 1.0
C      1  0.5009680000000  0.5512970000000  0.4748000000000 1.0
C      1  0.4798200000000  0.5501560000000  0.4985700000000 1.0
C      1  0.5035430000000  0.5502310000000  0.5193470000000 1.0
C      1  0.5321810000000  0.4623480000000  0.5726540000000 1.0
C      1  0.4198230000000  0.4525010000000  0.5351730000000 1.0
C      1  0.4650200000000  0.4565510000000  0.4222520000000 1.0
C      1  0.5797970000000  0.4539410000000  0.4692850000000 1.0
C      1  0.4686910000000  0.5371520000000  0.5716060000000 1.0
C      1  0.5733310000000  0.5362070000000  0.5322440000000 1.0
C      1  0.5341000000000  0.5434880000000  0.4230680000000 1.0
C      1  0.4212970000000  0.5412030000000  0.4684090000000 1.0
C      1  0.5880850000000  0.5418500000000  0.4658250000000 1.0
C      1  0.5365140000000  0.5407250000000  0.5874860000000 1.0
C      1  0.4161340000000  0.5374800000000  0.5341750000000 1.0
C      1  0.4619640000000  0.5424830000000  0.4121620000000 1.0
C      1  0.4099970000000  0.4557720000000  0.4639270000000 1.0
C      1  0.4642380000000  0.4568470000000  0.5878350000000 1.0
C      1  0.5886930000000  0.4571170000000  0.5378870000000 1.0
C      1  0.5311170000000  0.4659430000000  0.4256720000000 1.0
C      1  0.4479480000000  0.4847910000000  0.4701360000000 1.0
C      1  0.5227160000000  0.4822240000000  0.4511610000000 1.0
C      1  0.5490690000000  0.4843400000000  0.5251670000000 1.0
C      1  0.4701990000000  0.4848170000000  0.5479570000000 1.0
C      1  0.5484320000000  0.5134920000000  0.4693190000000 1.0
C      1  0.4694600000000  0.5159150000000  0.4470790000000 1.0
C      1  0.4534720000000  0.5170980000000  0.5234030000000 1.0
C      1  0.5273670000000  0.5142360000000  0.5470090000000 1.0
C      1  0.4407280000000  0.4304170000000  0.5322550000000 1.0
C      1  0.4679500000000  0.4328460000000  0.4424160000000 1.0
C      1  0.5583830000000  0.4322460000000  0.4722060000000 1.0
C      1  0.5322960000000  0.4334220000000  0.5597100000000 1.0
C      1  0.5593510000000  0.5658710000000  0.5330400000000 1.0
C      1  0.5302760000000  0.5656260000000  0.4448420000000 1.0
C      1  0.4400930000000  0.5672120000000  0.4681440000000 1.0
C      1  0.4680390000000  0.5659460000000  0.5577580000000 1.0
C      1  0.5854780000000  0.5803090000000  0.4961190000000 1.0
C      1  0.5054950000000  0.5785770000000  0.5834490000000 1.0
C      1  0.4167520000000  0.5783130000000  0.5066950000000 1.0
C      1  0.4942360000000  0.5788770000000  0.4175310000000 1.0
C      1  0.4149770000000  0.4176120000000  0.4946040000000 1.0
C      1  0.4946850000000  0.4190370000000  0.5852370000000 1.0
C      1  0.5832000000000  0.4171790000000  0.5089580000000 1.0
C      1  0.5079790000000  0.4234320000000  0.4191630000000 1.0
C      1  0.5342400000000  0.4140550000000  0.5110710000000 1.0
C      1  0.4909990000000  0.4130800000000  0.5371150000000 1.0
C      1  0.4629650000000  0.4124420000000  0.4906530000000 1.0
C      1  0.5085800000000  0.4144590000000  0.4662870000000 1.0
C      1  0.4649560000000  0.5848060000000  0.5081140000000 1.0
C      1  0.5093390000000  0.5850610000000  0.5349930000000 1.0
C      1  0.5373910000000  0.5868760000000  0.4920630000000 1.0
C      1  0.4890230000000  0.5872970000000  0.4647810000000 1.0
C      1  0.5479500000000  0.5737950000000  0.4668180000000 1.0
C      1  0.5332670000000  0.5695190000000  0.5457930000000 1.0
C      1  0.4558780000000  0.5677750000000  0.5313500000000 1.0
C      1  0.4659580000000  0.5696910000000  0.4550210000000 1.0
C      1  0.4526200000000  0.4277780000000  0.4666690000000 1.0
C      1  0.4657950000000  0.4264730000000  0.5474030000000 1.0
C      1  0.5451720000000  0.4308300000000  0.5337970000000 1.0
C      1  0.5326080000000  0.4306950000000  0.4584150000000 1.0
C      1  0.4240710000000  0.4314410000000  0.4717420000000 1.0
C      1  0.5297360000000  0.4370250000000  0.4305300000000 1.0
C      1  0.5741850000000  0.4327240000000  0.5307030000000 1.0
C      1  0.4710950000000  0.4313710000000  0.5758320000000 1.0
C      1  0.5758220000000  0.5669880000000  0.4731720000000 1.0
C      1  0.4707440000000  0.5662510000000  0.4265210000000 1.0
C      1  0.4274180000000  0.5633920000000  0.5280230000000 1.0
C      1  0.5285420000000  0.5653330000000  0.5741850000000 1.0
C      1  0.3928290000000  0.5001410000000  0.4731430000000 1.0
C      1  0.5266730000000  0.5023660000000  0.3973630000000 1.0
C      1  0.6075400000000  0.5011860000000  0.5297210000000 1.0
C      1  0.4728240000000  0.5016900000000  0.6046150000000 1.0
C      1  0.6048910000000  0.4967490000000  0.4745090000000 1.0
C      1  0.4711180000000  0.4981050000000  0.3959460000000 1.0
C      1  0.3947420000000  0.4944210000000  0.5289240000000 1.0
C      1  0.5286810000000  0.4963340000000  0.6060260000000 1.0
C      1  0.4083770000000  0.4947450000000  0.5552990000000 1.0
C      1  0.4438530000000  0.4974640000000  0.4083030000000 1.0
C      1  0.5911840000000  0.4980380000000  0.4488650000000 1.0
C      1  0.5557780000000  0.4965350000000  0.5934330000000 1.0
C      1  0.5938110000000  0.5014370000000  0.5562210000000 1.0
C      1  0.5548370000000  0.5020190000000  0.4080750000000 1.0
C      1  0.4065300000000  0.5008410000000  0.4468060000000 1.0
C      1  0.4464450000000  0.5007870000000  0.5911440000000 1.0
C      1  0.4976790000000  0.4116480000000  0.4998580000000 1.0
C      1  0.5012240000000  0.5881600000000  0.4977470000000 1.0
C      1  0.4945110000000  0.5037350000000  0.4861840000000 1.0
END
