TITL C-3577078-809-6 -4.23512197714161e-06 125000 -566.929790127557 0 0 91 (C1) n - 1
REM
REM in /home/bkarasulu/work/CARBON/AIRSS/Generating-Clusters/EDIP-Nigel-Params/with-SteepDescent/Higher-Symm/SD-CG/HFTN-CG
REM
REM
REM
REM
REM
REM ./C.cell (12c818d87b63d06a65506943cc24bca4)
REM
REM compiler GCC version 9.2.1 20190827 (Red Hat 9.2.1-1)
REM options -cpp -mtune=generic -march=x86-64 -g -O0 -fpre-include=/usr/include/finclude/math-vector-fortran.h
REM seed 1134811114 260078291 -1372573439 761807286 -51901030 -2139113828 1755581240 454075415 1067564207 -1118329212 -1280884384 -132465614 -172473660 2118042708 -910544384 1418023723 -1187657363 -1445821909 -264888668 1624512391 449471110 -1992454145 -1516823194 -1133083919 1445960495 -1845414447 698751494 -1696000630 1667861283 2077669632 -225105201 1984145276 -1089270472
REM
CELL 1.54180   50.00000   50.00000   50.00000   90.00000   90.00000   90.00000
LATT -1
SFAC C  
C      1  0.5299090000000  0.4733490000000  0.4716020000000 1.0
C      1  0.5020350000000  0.4883820000000  0.4855960000000 1.0
C      1  0.4727050000000  0.4758230000000  0.4898080000000 1.0
C      1  0.4805520000000  0.4754190000000  0.5295420000000 1.0
C      1  0.5301370000000  0.4909730000000  0.5277490000000 1.0
C      1  0.5154590000000  0.5374100000000  0.5242580000000 1.0
C      1  0.4902070000000  0.5209260000000  0.5231470000000 1.0
C      1  0.4778990000000  0.5273620000000  0.4957750000000 1.0
C      1  0.5019240000000  0.5184650000000  0.4787420000000 1.0
C      1  0.5271330000000  0.5310110000000  0.4944120000000 1.0
C      1  0.5378020000000  0.5039180000000  0.4441630000000 1.0
C      1  0.4579080000000  0.4961250000000  0.4484020000000 1.0
C      1  0.4369780000000  0.4937120000000  0.5252090000000 1.0
C      1  0.5060860000000  0.4982750000000  0.5680680000000 1.0
C      1  0.5466430000000  0.5068800000000  0.5086890000000 1.0
C      1  0.5332650000000  0.4986460000000  0.5560290000000 1.0
C      1  0.4586530000000  0.4909620000000  0.5451150000000 1.0
C      1  0.4490360000000  0.4917200000000  0.4765610000000 1.0
C      1  0.5077050000000  0.5019370000000  0.4437710000000 1.0
C      1  0.5540020000000  0.4919130000000  0.4820610000000 1.0
C      1  0.5077870000000  0.4365390000000  0.5237650000000 1.0
C      1  0.5206160000000  0.4392990000000  0.4980000000000 1.0
C      1  0.5018210000000  0.4395780000000  0.4760790000000 1.0
C      1  0.4739340000000  0.4454210000000  0.4870240000000 1.0
C      1  0.4784800000000  0.4454540000000  0.5216900000000 1.0
C      1  0.5135470000000  0.5690230000000  0.4767750000000 1.0
C      1  0.5273390000000  0.5741800000000  0.5025380000000 1.0
C      1  0.5061180000000  0.5667710000000  0.5263440000000 1.0
C      1  0.4787990000000  0.5684990000000  0.5113690000000 1.0
C      1  0.4841290000000  0.5688260000000  0.4817310000000 1.0
C      1  0.4719070000000  0.4558720000000  0.5760350000000 1.0
C      1  0.5670860000000  0.4576820000000  0.5543460000000 1.0
C      1  0.5696300000000  0.4605710000000  0.4543050000000 1.0
C      1  0.4773780000000  0.4583450000000  0.4269540000000 1.0
C      1  0.4195690000000  0.4546750000000  0.4986700000000 1.0
C      1  0.4729160000000  0.5386860000000  0.4258660000000 1.0
C      1  0.5639240000000  0.5451200000000  0.4480210000000 1.0
C      1  0.5619760000000  0.5405180000000  0.5431500000000 1.0
C      1  0.4765240000000  0.5364570000000  0.5728050000000 1.0
C      1  0.4247950000000  0.5338600000000  0.4999090000000 1.0
C      1  0.5556670000000  0.5723080000000  0.4503920000000 1.0
C      1  0.4697780000000  0.5666600000000  0.4320020000000 1.0
C      1  0.4287200000000  0.5622500000000  0.5028060000000 1.0
C      1  0.4787640000000  0.5647100000000  0.5699560000000 1.0
C      1  0.5626100000000  0.5681080000000  0.5364410000000 1.0
C      1  0.5541990000000  0.4351500000000  0.5410780000000 1.0
C      1  0.4698810000000  0.4287180000000  0.5669320000000 1.0
C      1  0.4292080000000  0.4281030000000  0.4932300000000 1.0
C      1  0.4839820000000  0.4309610000000  0.4322350000000 1.0
C      1  0.5493480000000  0.4413800000000  0.4629490000000 1.0
C      1  0.5713500000000  0.4559720000000  0.5022060000000 1.0
C      1  0.5232840000000  0.4583090000000  0.4312050000000 1.0
C      1  0.4350460000000  0.4539150000000  0.4547980000000 1.0
C      1  0.4348380000000  0.4512400000000  0.5477700000000 1.0
C      1  0.5218740000000  0.4532860000000  0.5702220000000 1.0
C      1  0.5696980000000  0.5432870000000  0.4971470000000 1.0
C      1  0.5201800000000  0.5454720000000  0.5703970000000 1.0
C      1  0.4455080000000  0.5386840000000  0.5387990000000 1.0
C      1  0.4460440000000  0.5397470000000  0.4613340000000 1.0
C      1  0.5215730000000  0.5473760000000  0.4307550000000 1.0
C      1  0.5462510000000  0.4713870000000  0.5709060000000 1.0
C      1  0.5784980000000  0.4743420000000  0.4797690000000 1.0
C      1  0.5007000000000  0.4767770000000  0.4264650000000 1.0
C      1  0.4239650000000  0.4730830000000  0.4755210000000 1.0
C      1  0.4486200000000  0.4712720000000  0.5664500000000 1.0
C      1  0.5459090000000  0.5297440000000  0.4306790000000 1.0
C      1  0.5701580000000  0.5239330000000  0.5199600000000 1.0
C      1  0.5013260000000  0.5245940000000  0.5807250000000 1.0
C      1  0.4255600000000  0.5206350000000  0.5259180000000 1.0
C      1  0.4507040000000  0.5226280000000  0.4375880000000 1.0
C      1  0.5042700000000  0.5678250000000  0.5581970000000 1.0
C      1  0.5562220000000  0.5678470000000  0.5086920000000 1.0
C      1  0.5272790000000  0.5698640000000  0.4502900000000 1.0
C      1  0.4629280000000  0.5648600000000  0.4600110000000 1.0
C      1  0.4506350000000  0.5626110000000  0.5213650000000 1.0
C      1  0.5086470000000  0.4345250000000  0.4471000000000 1.0
C      1  0.5487980000000  0.4388980000000  0.4913390000000 1.0
C      1  0.5259020000000  0.4347970000000  0.5471820000000 1.0
C      1  0.4580870000000  0.4324160000000  0.5411340000000 1.0
C      1  0.4488980000000  0.4335960000000  0.4731870000000 1.0
C      1  0.4232410000000  0.4677920000000  0.5250480000000 1.0
C      1  0.4973950000000  0.4697410000000  0.5702150000000 1.0
C      1  0.5686780000000  0.4689600000000  0.5278740000000 1.0
C      1  0.5485750000000  0.4757940000000  0.4368140000000 1.0
C      1  0.4522720000000  0.4705240000000  0.4356370000000 1.0
C      1  0.4490810000000  0.5223680000000  0.4855970000000 1.0
C      1  0.4987040000000  0.5298150000000  0.4365350000000 1.0
C      1  0.5593020000000  0.5295930000000  0.4727540000000 1.0
C      1  0.5344100000000  0.5305640000000  0.5488220000000 1.0
C      1  0.4686260000000  0.5221920000000  0.5473440000000 1.0
C      1  0.5022500000000  0.4930030000000  0.5178190000000 1.0
END
