TITL C-3577088-510-471 -1.17283145613875e-06 125000 -855.450620001778 0 0 139 (C1) n - 1
REM
REM in /home/bkarasulu/work/CARBON/AIRSS/Generating-Clusters/EDIP-Nigel-Params/with-SteepDescent/Higher-Symm/SD-CG/HFTN-CG
REM
REM
REM
REM
REM
REM ./C.cell (12c818d87b63d06a65506943cc24bca4)
REM
REM compiler GCC version 9.2.1 20190827 (Red Hat 9.2.1-1)
REM options -cpp -mtune=generic -march=x86-64 -g -O0 -fpre-include=/usr/include/finclude/math-vector-fortran.h
REM seed -675430564 -690029656 1531199318 1841327240 -50985418 1164146166 42537321 619793919 -1382902675 -907054431 1293762210 -1007671400 -67328054 -976638095 1323412230 -1963396668 1429752863 1726457779 1883415412 -1921245855 -1605893354 -252706134 -1463883294 -216243456 -673977514 299102485 1995364608 -1182682837 803459890 -2048565758 234538642 1183859269 1620128490
REM
CELL 1.54180   50.00000   50.00000   50.00000   90.00000   90.00000   90.00000
LATT -1
SFAC C  
C      1  0.5032400000000  0.4780510000000  0.5629930000000 1.0
C      1  0.5626030000000  0.4854090000000  0.5140160000000 1.0
C      1  0.5365390000000  0.4803240000000  0.4420660000000 1.0
C      1  0.4602780000000  0.4781700000000  0.4519020000000 1.0
C      1  0.4370890000000  0.4813490000000  0.5243650000000 1.0
C      1  0.5091550000000  0.5153040000000  0.4418330000000 1.0
C      1  0.5633980000000  0.5202080000000  0.4866280000000 1.0
C      1  0.5319740000000  0.5210880000000  0.5537050000000 1.0
C      1  0.4576590000000  0.5208410000000  0.5476770000000 1.0
C      1  0.4443580000000  0.5228190000000  0.4755390000000 1.0
C      1  0.4662170000000  0.4750010000000  0.5301580000000 1.0
C      1  0.5167090000000  0.4829610000000  0.5377590000000 1.0
C      1  0.5398880000000  0.4833130000000  0.4901510000000 1.0
C      1  0.5093840000000  0.4735580000000  0.4552070000000 1.0
C      1  0.4631180000000  0.4785030000000  0.4808130000000 1.0
C      1  0.4720160000000  0.5157470000000  0.4718410000000 1.0
C      1  0.5231120000000  0.5130280000000  0.4690040000000 1.0
C      1  0.5421860000000  0.5241750000000  0.5063680000000 1.0
C      1  0.5062410000000  0.5213060000000  0.5405810000000 1.0
C      1  0.4632060000000  0.5252660000000  0.5200650000000 1.0
C      1  0.4337030000000  0.5535440000000  0.5733150000000 1.0
C      1  0.5498640000000  0.5501090000000  0.5867110000000 1.0
C      1  0.5963850000000  0.5540080000000  0.4799800000000 1.0
C      1  0.5049480000000  0.5451490000000  0.4058650000000 1.0
C      1  0.4137590000000  0.5534680000000  0.4569450000000 1.0
C      1  0.4339010000000  0.4502550000000  0.4236700000000 1.0
C      1  0.5396500000000  0.4392210000000  0.4132420000000 1.0
C      1  0.5971570000000  0.4493360000000  0.5187010000000 1.0
C      1  0.5095030000000  0.4466970000000  0.5985670000000 1.0
C      1  0.4156070000000  0.4411380000000  0.5468100000000 1.0
C      1  0.5268460000000  0.5351860000000  0.5788920000000 1.0
C      1  0.5840920000000  0.5371270000000  0.4993510000000 1.0
C      1  0.5239430000000  0.5321340000000  0.4228580000000 1.0
C      1  0.4373720000000  0.5382190000000  0.4504500000000 1.0
C      1  0.4328040000000  0.5369380000000  0.5501400000000 1.0
C      1  0.5370780000000  0.4667080000000  0.4152530000000 1.0
C      1  0.5848710000000  0.4686930000000  0.5022880000000 1.0
C      1  0.5226170000000  0.4626970000000  0.5788910000000 1.0
C      1  0.4211330000000  0.4683070000000  0.5464330000000 1.0
C      1  0.4343900000000  0.4646040000000  0.4484230000000 1.0
C      1  0.5085760000000  0.4508090000000  0.4740780000000 1.0
C      1  0.4781650000000  0.4517750000000  0.4831010000000 1.0
C      1  0.4769530000000  0.4521620000000  0.5147160000000 1.0
C      1  0.5073210000000  0.4553040000000  0.5248570000000 1.0
C      1  0.5266630000000  0.4555670000000  0.4990810000000 1.0
C      1  0.5088040000000  0.5481440000000  0.5248890000000 1.0
C      1  0.4783430000000  0.5503370000000  0.5178040000000 1.0
C      1  0.4755930000000  0.5513190000000  0.4869710000000 1.0
C      1  0.5044370000000  0.5454320000000  0.4736190000000 1.0
C      1  0.5258430000000  0.5477120000000  0.4978510000000 1.0
C      1  0.4113030000000  0.4820640000000  0.4550640000000 1.0
C      1  0.4275770000000  0.4820500000000  0.5721420000000 1.0
C      1  0.5455210000000  0.4797720000000  0.5877380000000 1.0
C      1  0.6010220000000  0.4827300000000  0.4825750000000 1.0
C      1  0.5168970000000  0.4808220000000  0.3985030000000 1.0
C      1  0.4093900000000  0.5195960000000  0.5452820000000 1.0
C      1  0.4348400000000  0.5194080000000  0.4274280000000 1.0
C      1  0.5465220000000  0.5185880000000  0.4099090000000 1.0
C      1  0.6003240000000  0.5202720000000  0.5175050000000 1.0
C      1  0.5116340000000  0.5182800000000  0.5984030000000 1.0
C      1  0.5372620000000  0.4106270000000  0.5200080000000 1.0
C      1  0.5297310000000  0.4041920000000  0.4768610000000 1.0
C      1  0.4783050000000  0.4061410000000  0.4613690000000 1.0
C      1  0.4598300000000  0.4083730000000  0.5016530000000 1.0
C      1  0.4970250000000  0.4077350000000  0.5382230000000 1.0
C      1  0.5343990000000  0.5946110000000  0.4759470000000 1.0
C      1  0.5303760000000  0.5926510000000  0.5294390000000 1.0
C      1  0.4853450000000  0.5932840000000  0.5355580000000 1.0
C      1  0.4524280000000  0.5976380000000  0.4979980000000 1.0
C      1  0.4930910000000  0.5904840000000  0.4594850000000 1.0
C      1  0.4741130000000  0.4688360000000  0.5592700000000 1.0
C      1  0.5489980000000  0.4741710000000  0.5409990000000 1.0
C      1  0.5568160000000  0.4714980000000  0.4640730000000 1.0
C      1  0.4857350000000  0.4685150000000  0.4363510000000 1.0
C      1  0.4336090000000  0.4712340000000  0.4953290000000 1.0
C      1  0.4800700000000  0.5243440000000  0.4431390000000 1.0
C      1  0.5507110000000  0.5271530000000  0.4598380000000 1.0
C      1  0.5538410000000  0.5300830000000  0.5341250000000 1.0
C      1  0.4830960000000  0.5288290000000  0.5624650000000 1.0
C      1  0.4374390000000  0.5297090000000  0.5044650000000 1.0
C      1  0.4570540000000  0.4870020000000  0.5759840000000 1.0
C      1  0.5605240000000  0.4893530000000  0.5640620000000 1.0
C      1  0.5817510000000  0.4884370000000  0.4613960000000 1.0
C      1  0.4913740000000  0.4866630000000  0.4132430000000 1.0
C      1  0.4123960000000  0.4887080000000  0.4837150000000 1.0
C      1  0.4629820000000  0.5104810000000  0.4225780000000 1.0
C      1  0.5576540000000  0.5069810000000  0.4371970000000 1.0
C      1  0.5760950000000  0.5087750000000  0.5341110000000 1.0
C      1  0.4853090000000  0.5106170000000  0.5861790000000 1.0
C      1  0.4191330000000  0.5079710000000  0.5168770000000 1.0
C      1  0.4818010000000  0.4380010000000  0.4256520000000 1.0
C      1  0.4233850000000  0.4411060000000  0.4974560000000 1.0
C      1  0.4718280000000  0.4378370000000  0.5681110000000 1.0
C      1  0.5584040000000  0.4440680000000  0.5473200000000 1.0
C      1  0.5618860000000  0.4399860000000  0.4583310000000 1.0
C      1  0.4815410000000  0.5600720000000  0.5734140000000 1.0
C      1  0.4243820000000  0.5593550000000  0.5058640000000 1.0
C      1  0.4649740000000  0.5600820000000  0.4348110000000 1.0
C      1  0.5571020000000  0.5577480000000  0.4512830000000 1.0
C      1  0.5645200000000  0.5601630000000  0.5398810000000 1.0
C      1  0.5740840000000  0.5700300000000  0.4719390000000 1.0
C      1  0.4924140000000  0.5626200000000  0.4245560000000 1.0
C      1  0.4239890000000  0.5698450000000  0.4777500000000 1.0
C      1  0.4552990000000  0.5709920000000  0.5664790000000 1.0
C      1  0.5511590000000  0.5694050000000  0.5656400000000 1.0
C      1  0.5753450000000  0.4328880000000  0.5258310000000 1.0
C      1  0.4954090000000  0.4285590000000  0.5822780000000 1.0
C      1  0.4287380000000  0.4305110000000  0.5246100000000 1.0
C      1  0.4528710000000  0.4297320000000  0.4292940000000 1.0
C      1  0.5418380000000  0.4298390000000  0.4395050000000 1.0
C      1  0.4575070000000  0.4275210000000  0.4609730000000 1.0
C      1  0.4585530000000  0.4273130000000  0.5235240000000 1.0
C      1  0.5109120000000  0.4323060000000  0.5484940000000 1.0
C      1  0.5509790000000  0.4320880000000  0.5051470000000 1.0
C      1  0.5185170000000  0.4251460000000  0.4577360000000 1.0
C      1  0.4628970000000  0.5733460000000  0.5352590000000 1.0
C      1  0.4548180000000  0.5759720000000  0.4779210000000 1.0
C      1  0.5081310000000  0.5670230000000  0.4502090000000 1.0
C      1  0.5482390000000  0.5725690000000  0.4922230000000 1.0
C      1  0.5237700000000  0.5732050000000  0.5504080000000 1.0
C      1  0.5353980000000  0.5782850000000  0.4498750000000 1.0
C      1  0.4645710000000  0.5845700000000  0.4521670000000 1.0
C      1  0.4397870000000  0.5823770000000  0.5190660000000 1.0
C      1  0.4980360000000  0.5825300000000  0.5618610000000 1.0
C      1  0.5559860000000  0.5816780000000  0.5194890000000 1.0
C      1  0.5380660000000  0.4222800000000  0.5475710000000 1.0
C      1  0.4701120000000  0.4159820000000  0.5475040000000 1.0
C      1  0.4381830000000  0.4191510000000  0.4825770000000 1.0
C      1  0.4964210000000  0.4159440000000  0.4407180000000 1.0
C      1  0.5568620000000  0.4190900000000  0.4798810000000 1.0
C      1  0.4144360000000  0.5018620000000  0.4351520000000 1.0
C      1  0.4100910000000  0.5042870000000  0.5696090000000 1.0
C      1  0.6125130000000  0.5030910000000  0.4984900000000 1.0
C      1  0.5324730000000  0.5030910000000  0.3903830000000 1.0
C      1  0.5312910000000  0.4985450000000  0.6034990000000 1.0
C      1  0.5065000000000  0.6009420000000  0.4854520000000 1.0
C      1  0.4861610000000  0.4083960000000  0.4894450000000 1.0
C      1  0.5057260000000  0.5912620000000  0.5137580000000 1.0
C      1  0.5121500000000  0.3991790000000  0.5034180000000 1.0
END
