TITL C-3578204-4308-449 -1.46778634918985e-06 125000 -1119.29789515499 0 0 179 (C1) n - 1
REM
REM in /home/bkarasulu/work/CARBON/AIRSS/Generating-Clusters/EDIP-Nigel-Params/with-SteepDescent/Higher-Symm/SD-CG/HFTN-CG
REM
REM
REM
REM
REM
REM ./C.cell (12c818d87b63d06a65506943cc24bca4)
REM
REM compiler GCC version 9.2.1 20190827 (Red Hat 9.2.1-1)
REM options -cpp -mtune=generic -march=x86-64 -g -O0 -fpre-include=/usr/include/finclude/math-vector-fortran.h
REM seed 1155381035 -1064744234 -1443339327 -1913794648 101546495 1888500320 325778195 2006978828 388795737 -1700889890 -300372396 -1673696954 -759487066 1276780678 409935789 -463629644 410815113 1348707223 416488047 104466783 207847581 1203518659 -1382198567 1541775993 -1100452674 -1564883806 761627612 105811366 -19249543 -1190411306 1786125864 -2049790844 1669214777
REM
CELL 1.54180   50.00000   50.00000   50.00000   90.00000   90.00000   90.00000
LATT -1
SFAC C  
C      1  0.3812630000000  0.5152760000000  0.4857010000000 1.0
C      1  0.4659670000000  0.5566230000000  0.4117500000000 1.0
C      1  0.4270840000000  0.5867310000000  0.4946190000000 1.0
C      1  0.4439200000000  0.4744900000000  0.5905170000000 1.0
C      1  0.5038670000000  0.4471710000000  0.4855240000000 1.0
C      1  0.4933720000000  0.6037390000000  0.4655470000000 1.0
C      1  0.3992060000000  0.5187700000000  0.5070480000000 1.0
C      1  0.4432270000000  0.5341540000000  0.5288320000000 1.0
C      1  0.5528040000000  0.4459880000000  0.5001190000000 1.0
C      1  0.4434290000000  0.4794570000000  0.4641790000000 1.0
C      1  0.5711590000000  0.4994810000000  0.4314600000000 1.0
C      1  0.4607860000000  0.5700010000000  0.4358490000000 1.0
C      1  0.3929910000000  0.5099970000000  0.4610430000000 1.0
C      1  0.5380650000000  0.5864470000000  0.4412340000000 1.0
C      1  0.5892480000000  0.4258350000000  0.5280710000000 1.0
C      1  0.4804950000000  0.4541630000000  0.5601030000000 1.0
C      1  0.5817350000000  0.4482440000000  0.5107310000000 1.0
C      1  0.4430020000000  0.5821810000000  0.5414710000000 1.0
C      1  0.5571100000000  0.5382910000000  0.5713550000000 1.0
C      1  0.4879030000000  0.6038190000000  0.5165830000000 1.0
C      1  0.4956430000000  0.4205160000000  0.4207380000000 1.0
C      1  0.4300730000000  0.4494960000000  0.5517970000000 1.0
C      1  0.5702610000000  0.5247970000000  0.5080690000000 1.0
C      1  0.5253650000000  0.4786640000000  0.5741430000000 1.0
C      1  0.4172370000000  0.4671830000000  0.4790200000000 1.0
C      1  0.4770520000000  0.6086440000000  0.4902840000000 1.0
C      1  0.4734710000000  0.4439110000000  0.4537260000000 1.0
C      1  0.5092960000000  0.5450450000000  0.5581980000000 1.0
C      1  0.4685390000000  0.5961290000000  0.5368730000000 1.0
C      1  0.4855140000000  0.4710960000000  0.5204680000000 1.0
C      1  0.5413310000000  0.4105720000000  0.4425240000000 1.0
C      1  0.5385980000000  0.6112280000000  0.5116540000000 1.0
C      1  0.5642630000000  0.5537230000000  0.5469770000000 1.0
C      1  0.3966090000000  0.4987950000000  0.5270550000000 1.0
C      1  0.5158820000000  0.5481920000000  0.4399970000000 1.0
C      1  0.5060120000000  0.3894120000000  0.4686680000000 1.0
C      1  0.4580380000000  0.4939310000000  0.6052400000000 1.0
C      1  0.4778360000000  0.3934220000000  0.4575590000000 1.0
C      1  0.5493780000000  0.5453580000000  0.5119150000000 1.0
C      1  0.5143970000000  0.4051070000000  0.4924440000000 1.0
C      1  0.4998560000000  0.5274490000000  0.4214310000000 1.0
C      1  0.4519280000000  0.4906290000000  0.3984440000000 1.0
C      1  0.4787830000000  0.5916640000000  0.4431980000000 1.0
C      1  0.4214020000000  0.4306590000000  0.5084280000000 1.0
C      1  0.4166290000000  0.4804970000000  0.5963260000000 1.0
C      1  0.4401880000000  0.4821140000000  0.5056860000000 1.0
C      1  0.5226810000000  0.5213080000000  0.5983250000000 1.0
C      1  0.5852330000000  0.4941300000000  0.5894830000000 1.0
C      1  0.5904210000000  0.4774100000000  0.5225290000000 1.0
C      1  0.5468970000000  0.5406260000000  0.4093710000000 1.0
C      1  0.4445340000000  0.4227710000000  0.5485960000000 1.0
C      1  0.5666590000000  0.5175120000000  0.5927580000000 1.0
C      1  0.4490870000000  0.6041400000000  0.4899700000000 1.0
C      1  0.4166620000000  0.5282110000000  0.4637830000000 1.0
C      1  0.4956720000000  0.4772090000000  0.5772130000000 1.0
C      1  0.4418390000000  0.5111680000000  0.4650480000000 1.0
C      1  0.4653560000000  0.4671490000000  0.5005590000000 1.0
C      1  0.4428260000000  0.5689690000000  0.5677570000000 1.0
C      1  0.4464970000000  0.5281710000000  0.5972200000000 1.0
C      1  0.5437680000000  0.4723250000000  0.5505390000000 1.0
C      1  0.6029480000000  0.5171990000000  0.5491210000000 1.0
C      1  0.4013810000000  0.4822570000000  0.5721050000000 1.0
C      1  0.5220870000000  0.4321930000000  0.4327880000000 1.0
C      1  0.5220810000000  0.4558710000000  0.4597650000000 1.0
C      1  0.5937690000000  0.4707310000000  0.4648380000000 1.0
C      1  0.4304540000000  0.4995120000000  0.4137660000000 1.0
C      1  0.5262780000000  0.3878690000000  0.4492180000000 1.0
C      1  0.5150170000000  0.6062600000000  0.5265780000000 1.0
C      1  0.4558570000000  0.3989520000000  0.4765150000000 1.0
C      1  0.4704340000000  0.5697920000000  0.5765170000000 1.0
C      1  0.5236320000000  0.5772950000000  0.4178940000000 1.0
C      1  0.5350660000000  0.4285650000000  0.5733220000000 1.0
C      1  0.4813510000000  0.5343040000000  0.5645680000000 1.0
C      1  0.4664410000000  0.4151850000000  0.4994890000000 1.0
C      1  0.4905800000000  0.4156510000000  0.5780630000000 1.0
C      1  0.5435750000000  0.4168590000000  0.4920910000000 1.0
C      1  0.5404700000000  0.4713690000000  0.5996680000000 1.0
C      1  0.5859470000000  0.5626410000000  0.5301240000000 1.0
C      1  0.5634750000000  0.6077790000000  0.5234910000000 1.0
C      1  0.4345920000000  0.5659970000000  0.4493500000000 1.0
C      1  0.4741060000000  0.4433070000000  0.4840810000000 1.0
C      1  0.5239110000000  0.6036150000000  0.4618790000000 1.0
C      1  0.4008340000000  0.5521790000000  0.5400010000000 1.0
C      1  0.5700320000000  0.4130170000000  0.5426690000000 1.0
C      1  0.4321630000000  0.5604420000000  0.4803850000000 1.0
C      1  0.4079730000000  0.4529260000000  0.5707070000000 1.0
C      1  0.5015450000000  0.5567830000000  0.5155460000000 1.0
C      1  0.6138660000000  0.5200580000000  0.5217000000000 1.0
C      1  0.5291750000000  0.5416660000000  0.5790470000000 1.0
C      1  0.4525210000000  0.4698000000000  0.5616400000000 1.0
C      1  0.5631810000000  0.5706730000000  0.4469800000000 1.0
C      1  0.5082100000000  0.5719760000000  0.5432080000000 1.0
C      1  0.5090720000000  0.5144940000000  0.3882120000000 1.0
C      1  0.6034370000000  0.4961440000000  0.4781050000000 1.0
C      1  0.4009120000000  0.4814630000000  0.4549390000000 1.0
C      1  0.5341530000000  0.4625000000000  0.5189340000000 1.0
C      1  0.5496040000000  0.4902830000000  0.4820660000000 1.0
C      1  0.5832810000000  0.5895310000000  0.5235390000000 1.0
C      1  0.6119570000000  0.4934840000000  0.5068280000000 1.0
C      1  0.5656310000000  0.5459080000000  0.4313920000000 1.0
C      1  0.4345020000000  0.4168900000000  0.4626770000000 1.0
C      1  0.5366800000000  0.5135810000000  0.4020240000000 1.0
C      1  0.4773470000000  0.5149100000000  0.5041990000000 1.0
C      1  0.3989000000000  0.4728750000000  0.5178990000000 1.0
C      1  0.4153840000000  0.4521650000000  0.5259090000000 1.0
C      1  0.4317930000000  0.5426930000000  0.5757440000000 1.0
C      1  0.4858240000000  0.5864610000000  0.5575640000000 1.0
C      1  0.5511730000000  0.4616700000000  0.4718850000000 1.0
C      1  0.5265680000000  0.4867410000000  0.4178980000000 1.0
C      1  0.4660420000000  0.4141190000000  0.5644760000000 1.0
C      1  0.5060120000000  0.4520560000000  0.3915160000000 1.0
C      1  0.5700580000000  0.4587760000000  0.5633380000000 1.0
C      1  0.4598160000000  0.5270400000000  0.4457130000000 1.0
C      1  0.5223970000000  0.5069690000000  0.5254490000000 1.0
C      1  0.5129640000000  0.5697080000000  0.4868530000000 1.0
C      1  0.5470410000000  0.5003970000000  0.5427270000000 1.0
C      1  0.5627790000000  0.4296260000000  0.5635550000000 1.0
C      1  0.5947770000000  0.5412330000000  0.5098440000000 1.0
C      1  0.5801840000000  0.4745210000000  0.4405740000000 1.0
C      1  0.4854150000000  0.5408460000000  0.3994470000000 1.0
C      1  0.4192580000000  0.5434810000000  0.4384250000000 1.0
C      1  0.4728150000000  0.5041860000000  0.5528890000000 1.0
C      1  0.4736140000000  0.4177640000000  0.4394660000000 1.0
C      1  0.5360950000000  0.5635100000000  0.3970310000000 1.0
C      1  0.4947260000000  0.4985250000000  0.4581570000000 1.0
C      1  0.4873700000000  0.4318350000000  0.3964250000000 1.0
C      1  0.5729170000000  0.5043540000000  0.5293490000000 1.0
C      1  0.5883530000000  0.4402770000000  0.4675640000000 1.0
C      1  0.5807030000000  0.5235340000000  0.4415900000000 1.0
C      1  0.4167930000000  0.4775250000000  0.4292860000000 1.0
C      1  0.4769640000000  0.5414970000000  0.4675370000000 1.0
C      1  0.5619190000000  0.4547800000000  0.4352140000000 1.0
C      1  0.5960840000000  0.4691220000000  0.5505010000000 1.0
C      1  0.4861410000000  0.4904400000000  0.6036510000000 1.0
C      1  0.5303720000000  0.4881140000000  0.5035650000000 1.0
C      1  0.5589370000000  0.4187810000000  0.4655570000000 1.0
C      1  0.5203800000000  0.4871520000000  0.4486970000000 1.0
C      1  0.4972500000000  0.4280690000000  0.5363750000000 1.0
C      1  0.4437560000000  0.4163260000000  0.5197200000000 1.0
C      1  0.6031730000000  0.4933850000000  0.5654330000000 1.0
C      1  0.4387000000000  0.4250380000000  0.4338690000000 1.0
C      1  0.4603180000000  0.5543260000000  0.4879760000000 1.0
C      1  0.4970680000000  0.5612920000000  0.4594170000000 1.0
C      1  0.5697790000000  0.4683640000000  0.5915930000000 1.0
C      1  0.5963720000000  0.5488750000000  0.4808250000000 1.0
C      1  0.4205980000000  0.4366490000000  0.4802160000000 1.0
C      1  0.4432110000000  0.5043360000000  0.5381340000000 1.0
C      1  0.4808300000000  0.5086730000000  0.4351080000000 1.0
C      1  0.4751700000000  0.5363050000000  0.5950010000000 1.0
C      1  0.4492730000000  0.5080580000000  0.4947200000000 1.0
C      1  0.5345890000000  0.5351260000000  0.4612510000000 1.0
C      1  0.4696310000000  0.5430030000000  0.5136840000000 1.0
C      1  0.4077980000000  0.5330380000000  0.5615500000000 1.0
C      1  0.5952890000000  0.5230230000000  0.4664390000000 1.0
C      1  0.5437410000000  0.5056800000000  0.4576580000000 1.0
C      1  0.5449160000000  0.5076740000000  0.6098840000000 1.0
C      1  0.4955010000000  0.5177740000000  0.6078570000000 1.0
C      1  0.4197370000000  0.5811350000000  0.5234190000000 1.0
C      1  0.5001320000000  0.4795700000000  0.4023550000000 1.0
C      1  0.4926360000000  0.4080230000000  0.5132660000000 1.0
C      1  0.4258970000000  0.4496070000000  0.4234810000000 1.0
C      1  0.4326830000000  0.5280710000000  0.4184060000000 1.0
C      1  0.5379090000000  0.5991840000000  0.4863190000000 1.0
C      1  0.4163550000000  0.5429990000000  0.5161070000000 1.0
C      1  0.4122550000000  0.5037320000000  0.5516080000000 1.0
C      1  0.4934190000000  0.5187350000000  0.4792580000000 1.0
C      1  0.5229430000000  0.5351250000000  0.5172840000000 1.0
C      1  0.5425210000000  0.5561430000000  0.4832270000000 1.0
C      1  0.5265630000000  0.4421690000000  0.5985420000000 1.0
C      1  0.4721240000000  0.4840260000000  0.4183430000000 1.0
C      1  0.4968050000000  0.4410640000000  0.5927200000000 1.0
C      1  0.6008180000000  0.4348630000000  0.4926280000000 1.0
C      1  0.4903870000000  0.4989070000000  0.5278790000000 1.0
C      1  0.5068340000000  0.4512700000000  0.5161560000000 1.0
C      1  0.5305600000000  0.4429380000000  0.4053180000000 1.0
C      1  0.5136450000000  0.4138020000000  0.5594030000000 1.0
C      1  0.4572660000000  0.4645040000000  0.4403370000000 1.0
C      1  0.5463340000000  0.4646000000000  0.4134750000000 1.0
C      1  0.5767710000000  0.5696500000000  0.4726940000000 1.0
END
