TITL C-3578209-2550-500 -2.25172949558531e-06 125000 -674.097396416978 0 0 110 (C1) n - 1
REM
REM in /home/bkarasulu/work/CARBON/AIRSS/Generating-Clusters/EDIP-Nigel-Params/with-SteepDescent/Higher-Symm/SD-CG/HFTN-CG
REM
REM
REM
REM
REM
REM ./C.cell (12c818d87b63d06a65506943cc24bca4)
REM
REM compiler GCC version 9.2.1 20190827 (Red Hat 9.2.1-1)
REM options -cpp -mtune=generic -march=x86-64 -g -O0 -fpre-include=/usr/include/finclude/math-vector-fortran.h
REM seed 47096821 636094541 1372771097 355049968 282652027 1745534172 1672797442 -50714695 -394088414 1688279425 1824486730 1003588849 -658922274 222393008 946169550 1464058904 1599064885 891178114 667667602 1749775575 843317971 1717276797 239132799 -310367565 -285793637 -80554028 957508866 1691078133 499386919 -1582590905 233046343 -1638733391 -1165583536
REM
CELL 1.54180   50.00000   50.00000   50.00000   90.00000   90.00000   90.00000
LATT -1
SFAC C  
C      1  0.4774340000000  0.4334500000000  0.4312460000000 1.0
C      1  0.4315980000000  0.4694870000000  0.4445410000000 1.0
C      1  0.4415580000000  0.5402050000000  0.4291960000000 1.0
C      1  0.4773690000000  0.5583140000000  0.4497980000000 1.0
C      1  0.5299490000000  0.5610850000000  0.4526510000000 1.0
C      1  0.5460390000000  0.5067990000000  0.4412850000000 1.0
C      1  0.5229480000000  0.4569010000000  0.4387880000000 1.0
C      1  0.4644700000000  0.4262080000000  0.4553680000000 1.0
C      1  0.4314770000000  0.4958100000000  0.4614360000000 1.0
C      1  0.4334320000000  0.5553270000000  0.4533160000000 1.0
C      1  0.5152050000000  0.5868240000000  0.4589560000000 1.0
C      1  0.5676160000000  0.5335780000000  0.4594280000000 1.0
C      1  0.5719490000000  0.4706970000000  0.4607600000000 1.0
C      1  0.5302310000000  0.4225260000000  0.4535380000000 1.0
C      1  0.4355460000000  0.4443720000000  0.4943240000000 1.0
C      1  0.4092100000000  0.5140430000000  0.5031100000000 1.0
C      1  0.4550690000000  0.5740820000000  0.4958330000000 1.0
C      1  0.5321710000000  0.5872530000000  0.4996910000000 1.0
C      1  0.5827380000000  0.5253970000000  0.5052450000000 1.0
C      1  0.5728400000000  0.4479870000000  0.5046770000000 1.0
C      1  0.5127610000000  0.4248310000000  0.5050370000000 1.0
C      1  0.5239530000000  0.4806940000000  0.6044020000000 1.0
C      1  0.4998880000000  0.4651790000000  0.6077250000000 1.0
C      1  0.4661640000000  0.4843160000000  0.6056090000000 1.0
C      1  0.4645580000000  0.5128830000000  0.6032430000000 1.0
C      1  0.4866910000000  0.5280090000000  0.6126380000000 1.0
C      1  0.5142300000000  0.5278030000000  0.6064810000000 1.0
C      1  0.5256900000000  0.5049600000000  0.6184820000000 1.0
C      1  0.4712120000000  0.4691490000000  0.4616200000000 1.0
C      1  0.4604030000000  0.5171360000000  0.4361140000000 1.0
C      1  0.4759360000000  0.5302830000000  0.4595500000000 1.0
C      1  0.5181140000000  0.5385970000000  0.4703410000000 1.0
C      1  0.5417380000000  0.5194450000000  0.4695690000000 1.0
C      1  0.5441130000000  0.4773230000000  0.4511630000000 1.0
C      1  0.5004070000000  0.4504900000000  0.4607250000000 1.0
C      1  0.4761710000000  0.4169260000000  0.5048880000000 1.0
C      1  0.4209610000000  0.4672090000000  0.5039700000000 1.0
C      1  0.4147270000000  0.5429240000000  0.5075950000000 1.0
C      1  0.4790370000000  0.5893410000000  0.5047030000000 1.0
C      1  0.5548430000000  0.5674590000000  0.4946050000000 1.0
C      1  0.5854700000000  0.4991580000000  0.5163720000000 1.0
C      1  0.5614870000000  0.4264470000000  0.5183820000000 1.0
C      1  0.5127150000000  0.4104670000000  0.4745380000000 1.0
C      1  0.4410710000000  0.4441960000000  0.4641370000000 1.0
C      1  0.4082880000000  0.5085300000000  0.4741040000000 1.0
C      1  0.4490730000000  0.5766390000000  0.4666310000000 1.0
C      1  0.5284200000000  0.6038640000000  0.4769570000000 1.0
C      1  0.5872160000000  0.5202100000000  0.4770480000000 1.0
C      1  0.5723610000000  0.4456240000000  0.4752310000000 1.0
C      1  0.4786630000000  0.4579600000000  0.4166960000000 1.0
C      1  0.4608300000000  0.4791970000000  0.4325060000000 1.0
C      1  0.4749500000000  0.5303730000000  0.4127330000000 1.0
C      1  0.4912610000000  0.5533600000000  0.4217400000000 1.0
C      1  0.5212510000000  0.5482490000000  0.4240160000000 1.0
C      1  0.5293900000000  0.5183580000000  0.4178420000000 1.0
C      1  0.5076560000000  0.4670200000000  0.4122920000000 1.0
C      1  0.5460050000000  0.4615590000000  0.5627340000000 1.0
C      1  0.5027020000000  0.4384740000000  0.5634240000000 1.0
C      1  0.4481770000000  0.4685440000000  0.5566060000000 1.0
C      1  0.4420130000000  0.5224220000000  0.5549140000000 1.0
C      1  0.4782330000000  0.5558820000000  0.5473090000000 1.0
C      1  0.5289400000000  0.5531440000000  0.5545270000000 1.0
C      1  0.5603200000000  0.5183970000000  0.5504700000000 1.0
C      1  0.5053820000000  0.5591180000000  0.5350340000000 1.0
C      1  0.5545740000000  0.5448910000000  0.5409290000000 1.0
C      1  0.5682090000000  0.4676420000000  0.5469280000000 1.0
C      1  0.5307350000000  0.4361730000000  0.5555640000000 1.0
C      1  0.4535530000000  0.4446290000000  0.5404400000000 1.0
C      1  0.4327000000000  0.4941270000000  0.5460020000000 1.0
C      1  0.4546220000000  0.5422590000000  0.5359930000000 1.0
C      1  0.5060650000000  0.5803950000000  0.5137770000000 1.0
C      1  0.5614280000000  0.5450460000000  0.5124860000000 1.0
C      1  0.5782020000000  0.4720170000000  0.5213760000000 1.0
C      1  0.5352900000000  0.4239740000000  0.5279410000000 1.0
C      1  0.4561580000000  0.4361530000000  0.5129690000000 1.0
C      1  0.4235930000000  0.4925590000000  0.5173920000000 1.0
C      1  0.4400550000000  0.5556310000000  0.5147850000000 1.0
C      1  0.5385000000000  0.4691970000000  0.4893380000000 1.0
C      1  0.5121440000000  0.4523840000000  0.4897530000000 1.0
C      1  0.4907260000000  0.4675150000000  0.5011070000000 1.0
C      1  0.4653020000000  0.5043090000000  0.4993050000000 1.0
C      1  0.4651720000000  0.5318930000000  0.4873170000000 1.0
C      1  0.4991800000000  0.5428100000000  0.4945990000000 1.0
C      1  0.5490010000000  0.5001020000000  0.4933630000000 1.0
C      1  0.4922010000000  0.5738520000000  0.4721180000000 1.0
C      1  0.5588510000000  0.5620520000000  0.4649640000000 1.0
C      1  0.5859650000000  0.4922850000000  0.4725120000000 1.0
C      1  0.5564380000000  0.4259900000000  0.4629760000000 1.0
C      1  0.4819810000000  0.4133070000000  0.4759500000000 1.0
C      1  0.4491700000000  0.4838650000000  0.4826300000000 1.0
C      1  0.4352930000000  0.5360530000000  0.4759040000000 1.0
C      1  0.4681990000000  0.4976220000000  0.5304670000000 1.0
C      1  0.4913540000000  0.5143150000000  0.5442520000000 1.0
C      1  0.5094260000000  0.5232330000000  0.5199930000000 1.0
C      1  0.5373600000000  0.5092340000000  0.5218480000000 1.0
C      1  0.5345870000000  0.4772210000000  0.5234710000000 1.0
C      1  0.5076930000000  0.4700990000000  0.5418200000000 1.0
C      1  0.4810940000000  0.4690780000000  0.5282490000000 1.0
C      1  0.4874110000000  0.4502480000000  0.5857950000000 1.0
C      1  0.4636550000000  0.4673330000000  0.5820070000000 1.0
C      1  0.4622670000000  0.5221660000000  0.5759220000000 1.0
C      1  0.4826660000000  0.5409450000000  0.5704890000000 1.0
C      1  0.5253730000000  0.5327820000000  0.5783740000000 1.0
C      1  0.5470000000000  0.5126840000000  0.5751370000000 1.0
C      1  0.5319900000000  0.4861910000000  0.5761130000000 1.0
C      1  0.5034470000000  0.4970150000000  0.4691080000000 1.0
C      1  0.5056840000000  0.4985370000000  0.4153360000000 1.0
C      1  0.5067900000000  0.4926660000000  0.5594590000000 1.0
C      1  0.4913700000000  0.4937790000000  0.4928050000000 1.0
C      1  0.4997660000000  0.4973350000000  0.4430150000000 1.0
END
