TITL C-3578195-8548-651 -5.22820652744888e-07 125000 -366.986272184951 0 0 60 (C1) n - 1
REM
REM in /home/bkarasulu/work/CARBON/AIRSS/Generating-Clusters/EDIP-Nigel-Params/with-SteepDescent/Higher-Symm/SD-CG/HFTN-CG
REM
REM
REM
REM
REM
REM ./C.cell (12c818d87b63d06a65506943cc24bca4)
REM
REM compiler GCC version 9.2.1 20190827 (Red Hat 9.2.1-1)
REM options -cpp -mtune=generic -march=x86-64 -g -O0 -fpre-include=/usr/include/finclude/math-vector-fortran.h
REM seed 337853768 -739383026 -774390664 -718965703 -588986140 -286080446 -1997266958 -72961074 -1940578792 912292632 -1810303452 -296718277 -431132135 1675380123 -1321131097 -1778421184 -1874045834 1301908870 -1633063894 -129171545 984662631 1423089416 -1875197915 1778390202 -1631222743 723908620 -1152656615 240687807 -302898821 1306565910 -1206460876 1793865795 -1451045965
REM
CELL 1.54180   50.00000   50.00000   50.00000   90.00000   90.00000   90.00000
LATT -1
SFAC C  
C      1  0.5219330000000  0.5523390000000  0.4467880000000 1.0
C      1  0.5558070000000  0.5514020000000  0.4828620000000 1.0
C      1  0.5488250000000  0.5529320000000  0.5313530000000 1.0
C      1  0.5055060000000  0.5534140000000  0.5550420000000 1.0
C      1  0.4577590000000  0.5515070000000  0.5395320000000 1.0
C      1  0.4452920000000  0.5518550000000  0.4924310000000 1.0
C      1  0.4729170000000  0.5529720000000  0.4512330000000 1.0
C      1  0.4399350000000  0.5433050000000  0.5189020000000 1.0
C      1  0.4510520000000  0.5425710000000  0.4663470000000 1.0
C      1  0.4962510000000  0.5444650000000  0.4370340000000 1.0
C      1  0.5456940000000  0.5414710000000  0.4582190000000 1.0
C      1  0.5630670000000  0.5426750000000  0.5089590000000 1.0
C      1  0.5325790000000  0.5448680000000  0.5531610000000 1.0
C      1  0.4789620000000  0.5427470000000  0.5567040000000 1.0
C      1  0.4367340000000  0.5128770000000  0.5203180000000 1.0
C      1  0.4512490000000  0.5123430000000  0.4664310000000 1.0
C      1  0.4961000000000  0.5135890000000  0.4391110000000 1.0
C      1  0.5449630000000  0.5108970000000  0.4580850000000 1.0
C      1  0.5609220000000  0.5119540000000  0.5091950000000 1.0
C      1  0.5306030000000  0.5144890000000  0.5521270000000 1.0
C      1  0.4779490000000  0.5136030000000  0.5615780000000 1.0
C      1  0.4901120000000  0.4942640000000  0.5245940000000 1.0
C      1  0.4735060000000  0.5171500000000  0.5091930000000 1.0
C      1  0.4757940000000  0.5071920000000  0.4826530000000 1.0
C      1  0.4986850000000  0.5136820000000  0.4685330000000 1.0
C      1  0.5233750000000  0.5056930000000  0.4780970000000 1.0
C      1  0.5318530000000  0.5118000000000  0.5036780000000 1.0
C      1  0.5141560000000  0.5157720000000  0.5253100000000 1.0
C      1  0.5048350000000  0.4714110000000  0.5591700000000 1.0
C      1  0.4583290000000  0.4686230000000  0.5420300000000 1.0
C      1  0.4455470000000  0.4701040000000  0.4922890000000 1.0
C      1  0.4696630000000  0.4704240000000  0.4450970000000 1.0
C      1  0.5226930000000  0.4697730000000  0.4406190000000 1.0
C      1  0.5568810000000  0.4680080000000  0.4822590000000 1.0
C      1  0.5495600000000  0.4699430000000  0.5343620000000 1.0
C      1  0.4724040000000  0.4324850000000  0.5130500000000 1.0
C      1  0.4718830000000  0.4323200000000  0.4743000000000 1.0
C      1  0.4971750000000  0.4326860000000  0.4579780000000 1.0
C      1  0.5240370000000  0.4322070000000  0.4708430000000 1.0
C      1  0.5328510000000  0.4323980000000  0.5081920000000 1.0
C      1  0.5189570000000  0.4322110000000  0.5359260000000 1.0
C      1  0.4885350000000  0.4304590000000  0.5397410000000 1.0
C      1  0.4552740000000  0.4561950000000  0.4675260000000 1.0
C      1  0.4958530000000  0.4564750000000  0.4404100000000 1.0
C      1  0.5397730000000  0.4551600000000  0.4609350000000 1.0
C      1  0.5526150000000  0.4549250000000  0.5087380000000 1.0
C      1  0.5286360000000  0.4564320000000  0.5505940000000 1.0
C      1  0.4806490000000  0.4548100000000  0.5558290000000 1.0
C      1  0.4517240000000  0.4544760000000  0.5169680000000 1.0
C      1  0.5558150000000  0.4990010000000  0.5384850000000 1.0
C      1  0.5049060000000  0.5001300000000  0.5656950000000 1.0
C      1  0.4559560000000  0.4984760000000  0.5441610000000 1.0
C      1  0.4339350000000  0.4978850000000  0.4924500000000 1.0
C      1  0.4669540000000  0.5000010000000  0.4400690000000 1.0
C      1  0.5248940000000  0.4992040000000  0.4345130000000 1.0
C      1  0.5664380000000  0.4966600000000  0.4804620000000 1.0
C      1  0.4964030000000  0.4745520000000  0.5044980000000 1.0
C      1  0.4924990000000  0.5420250000000  0.5146770000000 1.0
C      1  0.4979190000000  0.4464700000000  0.4997450000000 1.0
C      1  0.4989930000000  0.5596160000000  0.4956810000000 1.0
END
