TITL C-3578200-9634-314 -3.90084822823297e-06 125000 -501.018148112999 0 0 83 (C1) n - 1
REM
REM in /home/bkarasulu/work/CARBON/AIRSS/Generating-Clusters/EDIP-Nigel-Params/with-SteepDescent/Higher-Symm/SD-CG/HFTN-CG
REM
REM
REM
REM
REM
REM ./C.cell (12c818d87b63d06a65506943cc24bca4)
REM
REM compiler GCC version 9.2.1 20190827 (Red Hat 9.2.1-1)
REM options -cpp -mtune=generic -march=x86-64 -g -O0 -fpre-include=/usr/include/finclude/math-vector-fortran.h
REM seed -412429153 1232179318 -1151073132 1651936789 -1096131301 779153468 -573349611 1776000208 1321332494 923792409 379208941 -1660798699 -1663138553 600760329 -1288143435 317980234 -453995494 150900309 1145485176 -396742861 2033358294 -968332224 1343973638 2083774674 -451148513 -1772555886 1488241071 -1663920767 940185663 -1697943888 2066636351 1290428056 -1138350910
REM
CELL 1.54180   50.00000   50.00000   50.00000   90.00000   90.00000   90.00000
LATT -1
SFAC C  
C      1  0.5212350000000  0.4274490000000  0.4719870000000 1.0
C      1  0.5168860000000  0.4769670000000  0.4244330000000 1.0
C      1  0.5135590000000  0.5434150000000  0.4321380000000 1.0
C      1  0.5169470000000  0.5760160000000  0.4931690000000 1.0
C      1  0.5148820000000  0.5538660000000  0.5582230000000 1.0
C      1  0.5152440000000  0.4887880000000  0.5785650000000 1.0
C      1  0.5099200000000  0.4350620000000  0.5378830000000 1.0
C      1  0.4817110000000  0.4446210000000  0.5406250000000 1.0
C      1  0.4911800000000  0.4220860000000  0.4771930000000 1.0
C      1  0.4891750000000  0.4691640000000  0.4354860000000 1.0
C      1  0.4842040000000  0.5286390000000  0.4390330000000 1.0
C      1  0.4879600000000  0.5679860000000  0.4872630000000 1.0
C      1  0.4845360000000  0.5548850000000  0.5469270000000 1.0
C      1  0.4864290000000  0.4987880000000  0.5711740000000 1.0
C      1  0.4657010000000  0.4779450000000  0.5651580000000 1.0
C      1  0.4635490000000  0.4339040000000  0.5191970000000 1.0
C      1  0.4726550000000  0.4353930000000  0.4588180000000 1.0
C      1  0.4657850000000  0.4875650000000  0.4337020000000 1.0
C      1  0.4665810000000  0.5468420000000  0.4550860000000 1.0
C      1  0.4671830000000  0.5737320000000  0.5088160000000 1.0
C      1  0.4645620000000  0.5353690000000  0.5585240000000 1.0
C      1  0.5213750000000  0.5550370000000  0.5133570000000 1.0
C      1  0.5217980000000  0.5255040000000  0.5521350000000 1.0
C      1  0.5238300000000  0.4748730000000  0.5524470000000 1.0
C      1  0.5199320000000  0.4453070000000  0.5126240000000 1.0
C      1  0.5247760000000  0.4557230000000  0.4646430000000 1.0
C      1  0.5232700000000  0.5004700000000  0.4406590000000 1.0
C      1  0.5248490000000  0.5454990000000  0.4600460000000 1.0
C      1  0.5358400000000  0.4579450000000  0.4373120000000 1.0
C      1  0.5334500000000  0.5225530000000  0.4232790000000 1.0
C      1  0.5351210000000  0.5716120000000  0.4697990000000 1.0
C      1  0.5336750000000  0.5658100000000  0.5378970000000 1.0
C      1  0.5341480000000  0.5118130000000  0.5754750000000 1.0
C      1  0.5296860000000  0.4458180000000  0.5560570000000 1.0
C      1  0.5371040000000  0.4272770000000  0.4966420000000 1.0
C      1  0.5729990000000  0.4475390000000  0.5188470000000 1.0
C      1  0.5688910000000  0.4550200000000  0.4700790000000 1.0
C      1  0.5674320000000  0.4954930000000  0.4416440000000 1.0
C      1  0.5685790000000  0.5418800000000  0.4570200000000 1.0
C      1  0.5652630000000  0.5542680000000  0.5051860000000 1.0
C      1  0.5659940000000  0.5295320000000  0.5482740000000 1.0
C      1  0.5510660000000  0.4830860000000  0.5445390000000 1.0
C      1  0.4980390000000  0.5082530000000  0.4587210000000 1.0
C      1  0.5052610000000  0.5335820000000  0.4789040000000 1.0
C      1  0.4936580000000  0.5411460000000  0.5214400000000 1.0
C      1  0.4968810000000  0.5095410000000  0.5436270000000 1.0
C      1  0.5002610000000  0.4816310000000  0.5269090000000 1.0
C      1  0.4945340000000  0.4557260000000  0.4974260000000 1.0
C      1  0.4977930000000  0.4709760000000  0.4673660000000 1.0
C      1  0.4729920000000  0.5790750000000  0.5360270000000 1.0
C      1  0.4736850000000  0.5225630000000  0.5821520000000 1.0
C      1  0.4716660000000  0.4506070000000  0.5662850000000 1.0
C      1  0.4796570000000  0.4167780000000  0.5032870000000 1.0
C      1  0.4811040000000  0.4412140000000  0.4323170000000 1.0
C      1  0.4685730000000  0.5123800000000  0.4208850000000 1.0
C      1  0.4774820000000  0.5722860000000  0.4604820000000 1.0
C      1  0.5644520000000  0.4390810000000  0.4934660000000 1.0
C      1  0.5629140000000  0.4676270000000  0.4451500000000 1.0
C      1  0.5614550000000  0.5227730000000  0.4364390000000 1.0
C      1  0.5624970000000  0.5611990000000  0.4774810000000 1.0
C      1  0.5607870000000  0.5533480000000  0.5334590000000 1.0
C      1  0.5598990000000  0.5052490000000  0.5616460000000 1.0
C      1  0.5632660000000  0.4564820000000  0.5433530000000 1.0
C      1  0.4503150000000  0.4809370000000  0.4579100000000 1.0
C      1  0.4525900000000  0.5348650000000  0.4787780000000 1.0
C      1  0.4465950000000  0.5546890000000  0.5006420000000 1.0
C      1  0.4539060000000  0.5172900000000  0.5355750000000 1.0
C      1  0.4516430000000  0.4886440000000  0.5422580000000 1.0
C      1  0.4504700000000  0.4540540000000  0.5011920000000 1.0
C      1  0.4562850000000  0.4554910000000  0.4719050000000 1.0
C      1  0.4260480000000  0.5221980000000  0.4736000000000 1.0
C      1  0.4214410000000  0.5474300000000  0.5144080000000 1.0
C      1  0.4239490000000  0.5210720000000  0.5300720000000 1.0
C      1  0.4253810000000  0.4819730000000  0.5332890000000 1.0
C      1  0.4250460000000  0.4667360000000  0.5091650000000 1.0
C      1  0.4125180000000  0.4790470000000  0.4873340000000 1.0
C      1  0.4259090000000  0.4937420000000  0.4674300000000 1.0
C      1  0.5430200000000  0.5022210000000  0.4909030000000 1.0
C      1  0.5187710000000  0.5139670000000  0.4973610000000 1.0
C      1  0.5686550000000  0.5003160000000  0.4909230000000 1.0
C      1  0.4083810000000  0.5292200000000  0.4954000000000 1.0
C      1  0.4727320000000  0.5199510000000  0.5084810000000 1.0
C      1  0.4943540000000  0.4977420000000  0.5011710000000 1.0
END
