TITL C-3577082-504-754 -1.98461134706097e-07 125000 -621.969873650116 0 0 99 (C1) n - 1
REM
REM in /home/bkarasulu/work/CARBON/AIRSS/Generating-Clusters/EDIP-Nigel-Params/with-SteepDescent/Higher-Symm/SD-CG/HFTN-CG
REM
REM
REM
REM
REM
REM ./C.cell (12c818d87b63d06a65506943cc24bca4)
REM
REM compiler GCC version 9.2.1 20190827 (Red Hat 9.2.1-1)
REM options -cpp -mtune=generic -march=x86-64 -g -O0 -fpre-include=/usr/include/finclude/math-vector-fortran.h
REM seed 1419950583 1538846941 1539449491 -1391485496 -333822173 1597817446 1688396179 -1372294845 -663910383 -436440502 -1872073759 418145945 -931454107 -1632146681 -682950525 291095924 -366453687 -927732638 1392653031 -349933637 -21566518 1608101047 346155919 1060816942 1004245268 202728973 761233929 275498358 1300606812 640508304 -1345826792 -19438077 -290541339
REM
CELL 1.54180   50.00000   50.00000   50.00000   90.00000   90.00000   90.00000
LATT -1
SFAC C  
C      1  0.5042390000000  0.5931150000000  0.4622580000000 1.0
C      1  0.5026290000000  0.4207450000000  0.4380420000000 1.0
C      1  0.5025600000000  0.4866610000000  0.6011980000000 1.0
C      1  0.4828680000000  0.5181920000000  0.5375030000000 1.0
C      1  0.4832550000000  0.5201720000000  0.4656820000000 1.0
C      1  0.4860350000000  0.4595550000000  0.4998760000000 1.0
C      1  0.5520640000000  0.5137380000000  0.5445310000000 1.0
C      1  0.5641870000000  0.5317290000000  0.4606180000000 1.0
C      1  0.5557640000000  0.4563800000000  0.4890170000000 1.0
C      1  0.4723790000000  0.4823440000000  0.4850310000000 1.0
C      1  0.4699770000000  0.4936450000000  0.5276740000000 1.0
C      1  0.4695300000000  0.5214050000000  0.4936680000000 1.0
C      1  0.4510840000000  0.5633150000000  0.5296130000000 1.0
C      1  0.4524620000000  0.4936750000000  0.4318320000000 1.0
C      1  0.4514460000000  0.4421440000000  0.5407550000000 1.0
C      1  0.5417180000000  0.4725190000000  0.5753470000000 1.0
C      1  0.5414140000000  0.5783600000000  0.4864670000000 1.0
C      1  0.5409760000000  0.4485080000000  0.4390320000000 1.0
C      1  0.4486000000000  0.5464960000000  0.4608290000000 1.0
C      1  0.4445930000000  0.4400130000000  0.4801940000000 1.0
C      1  0.4418580000000  0.5132730000000  0.5646410000000 1.0
C      1  0.5595930000000  0.5143540000000  0.5154110000000 1.0
C      1  0.5682980000000  0.5034830000000  0.4737070000000 1.0
C      1  0.5700150000000  0.4806260000000  0.5051570000000 1.0
C      1  0.4590910000000  0.5699340000000  0.4769380000000 1.0
C      1  0.4567520000000  0.4447390000000  0.4513560000000 1.0
C      1  0.4548300000000  0.4868060000000  0.5751850000000 1.0
C      1  0.4719330000000  0.5167220000000  0.4284970000000 1.0
C      1  0.4687180000000  0.4239790000000  0.5240470000000 1.0
C      1  0.4683550000000  0.5585630000000  0.5537970000000 1.0
C      1  0.5058460000000  0.5869420000000  0.5348500000000 1.0
C      1  0.5070210000000  0.4871050000000  0.4077870000000 1.0
C      1  0.5063210000000  0.4272290000000  0.5580750000000 1.0
C      1  0.4308850000000  0.5402250000000  0.5226280000000 1.0
C      1  0.4322940000000  0.4974320000000  0.4547840000000 1.0
C      1  0.4315780000000  0.4607830000000  0.5245180000000 1.0
C      1  0.4418040000000  0.4847830000000  0.4822850000000 1.0
C      1  0.4409970000000  0.4910320000000  0.5229310000000 1.0
C      1  0.4389770000000  0.5230750000000  0.4971570000000 1.0
C      1  0.4273130000000  0.5133550000000  0.5388130000000 1.0
C      1  0.4289270000000  0.5251340000000  0.4683550000000 1.0
C      1  0.4282320000000  0.4603670000000  0.4936300000000 1.0
C      1  0.5132580000000  0.4786170000000  0.5371020000000 1.0
C      1  0.5111270000000  0.5435990000000  0.4996230000000 1.0
C      1  0.5161620000000  0.4823610000000  0.4636030000000 1.0
C      1  0.5197210000000  0.5493810000000  0.5664360000000 1.0
C      1  0.5214990000000  0.5330850000000  0.4242070000000 1.0
C      1  0.5190610000000  0.4228800000000  0.5086700000000 1.0
C      1  0.4616880000000  0.5435230000000  0.4351300000000 1.0
C      1  0.4691650000000  0.4334990000000  0.4959620000000 1.0
C      1  0.4667940000000  0.5299380000000  0.5610590000000 1.0
C      1  0.4712880000000  0.4708530000000  0.4384430000000 1.0
C      1  0.4703690000000  0.4599600000000  0.5571890000000 1.0
C      1  0.4704430000000  0.5690450000000  0.5061620000000 1.0
C      1  0.5289330000000  0.4568900000000  0.5531630000000 1.0
C      1  0.5275640000000  0.5667490000000  0.5109320000000 1.0
C      1  0.5293240000000  0.4758200000000  0.4361150000000 1.0
C      1  0.4845880000000  0.5405070000000  0.5112540000000 1.0
C      1  0.4866700000000  0.4888320000000  0.4600990000000 1.0
C      1  0.4852710000000  0.4694780000000  0.5306330000000 1.0
C      1  0.5106710000000  0.5330710000000  0.4706940000000 1.0
C      1  0.5172820000000  0.4616840000000  0.4883870000000 1.0
C      1  0.5085760000000  0.5071440000000  0.5485750000000 1.0
C      1  0.5478970000000  0.5227540000000  0.4352910000000 1.0
C      1  0.5457830000000  0.4354070000000  0.5101950000000 1.0
C      1  0.5460420000000  0.5425290000000  0.5527350000000 1.0
C      1  0.4995870000000  0.5139270000000  0.4153860000000 1.0
C      1  0.4983180000000  0.4242550000000  0.5306180000000 1.0
C      1  0.4980550000000  0.5644420000000  0.5507660000000 1.0
C      1  0.5104050000000  0.5220570000000  0.5755100000000 1.0
C      1  0.5106700000000  0.5536590000000  0.4429440000000 1.0
C      1  0.5108570000000  0.4183060000000  0.4814240000000 1.0
C      1  0.5523470000000  0.4463230000000  0.5368960000000 1.0
C      1  0.5512430000000  0.5586500000000  0.5282950000000 1.0
C      1  0.5529790000000  0.4938210000000  0.4314130000000 1.0
C      1  0.4914350000000  0.4645270000000  0.4164120000000 1.0
C      1  0.4913640000000  0.4455960000000  0.5739710000000 1.0
C      1  0.4910450000000  0.5916070000000  0.5108860000000 1.0
C      1  0.5085450000000  0.4414460000000  0.4192650000000 1.0
C      1  0.5088100000000  0.4604650000000  0.5916030000000 1.0
C      1  0.5094230000000  0.5996640000000  0.4896480000000 1.0
C      1  0.4752290000000  0.4978700000000  0.5947440000000 1.0
C      1  0.4771070000000  0.5826990000000  0.4563790000000 1.0
C      1  0.4758030000000  0.4210850000000  0.4510850000000 1.0
C      1  0.5299940000000  0.5081870000000  0.4728640000000 1.0
C      1  0.5260890000000  0.4804360000000  0.5107200000000 1.0
C      1  0.5342450000000  0.5060590000000  0.5018190000000 1.0
C      1  0.5665750000000  0.5431890000000  0.5084470000000 1.0
C      1  0.5713390000000  0.4834320000000  0.4519110000000 1.0
C      1  0.5703390000000  0.4697950000000  0.5349890000000 1.0
C      1  0.5607330000000  0.4880470000000  0.5575210000000 1.0
C      1  0.5588850000000  0.5535370000000  0.4816730000000 1.0
C      1  0.5622420000000  0.4557540000000  0.4587800000000 1.0
C      1  0.4826800000000  0.5633680000000  0.4346820000000 1.0
C      1  0.4830080000000  0.4146540000000  0.4787620000000 1.0
C      1  0.4824830000000  0.5248810000000  0.5852850000000 1.0
C      1  0.5235800000000  0.5064510000000  0.5971920000000 1.0
C      1  0.5246800000000  0.5796390000000  0.4462500000000 1.0
C      1  0.5233110000000  0.4119180000000  0.4564830000000 1.0
END
