TITL C-3578205-846-124 -5.24947061146753e-07 125000 -321.225093506746 0 0 54 (C1) n - 1
REM
REM in /home/bkarasulu/work/CARBON/AIRSS/Generating-Clusters/EDIP-Nigel-Params/with-SteepDescent/Higher-Symm/SD-CG/HFTN-CG
REM
REM
REM
REM
REM
REM ./C.cell (12c818d87b63d06a65506943cc24bca4)
REM
REM compiler GCC version 9.2.1 20190827 (Red Hat 9.2.1-1)
REM options -cpp -mtune=generic -march=x86-64 -g -O0 -fpre-include=/usr/include/finclude/math-vector-fortran.h
REM seed 1192678571 -1906557768 1402009848 -184787348 -1477522746 866342271 -1336556204 -1956461658 -1498612955 837708796 2121142341 1953587579 1962712287 -489566388 1900487838 -1171519403 -1941399438 543354365 -575811860 -927518899 -1939487488 507859585 302991454 -1230299391 135846544 1023704865 2105657423 -1278800046 -761033594 -1881497875 -1458093778 -645304682 -1439896280
REM
CELL 1.54180   50.00000   50.00000   50.00000   90.00000   90.00000   90.00000
LATT -1
SFAC C  
C      1  0.5215900000000  0.4459650000000  0.5495620000000 1.0
C      1  0.5353430000000  0.4435780000000  0.4559500000000 1.0
C      1  0.4437030000000  0.4437610000000  0.4904750000000 1.0
C      1  0.4394500000000  0.4694610000000  0.4997040000000 1.0
C      1  0.5216550000000  0.4737850000000  0.5445850000000 1.0
C      1  0.5322510000000  0.4715690000000  0.4577550000000 1.0
C      1  0.4826340000000  0.4636150000000  0.4533150000000 1.0
C      1  0.4681470000000  0.4606390000000  0.5409020000000 1.0
C      1  0.5517630000000  0.4663100000000  0.5046880000000 1.0
C      1  0.5403350000000  0.5247200000000  0.4913370000000 1.0
C      1  0.4788200000000  0.5219590000000  0.4753190000000 1.0
C      1  0.4849860000000  0.5181800000000  0.5353410000000 1.0
C      1  0.4335210000000  0.5147580000000  0.5007470000000 1.0
C      1  0.5337700000000  0.5151400000000  0.5556740000000 1.0
C      1  0.5336230000000  0.5155980000000  0.4416820000000 1.0
C      1  0.4559160000000  0.4806760000000  0.5217910000000 1.0
C      1  0.5365990000000  0.4856430000000  0.5216000000000 1.0
C      1  0.5049450000000  0.4825910000000  0.4583880000000 1.0
C      1  0.5651440000000  0.4837440000000  0.4848500000000 1.0
C      1  0.4589310000000  0.4814990000000  0.4549470000000 1.0
C      1  0.4810020000000  0.4781580000000  0.5613480000000 1.0
C      1  0.4971690000000  0.5516520000000  0.5505850000000 1.0
C      1  0.5466000000000  0.5584290000000  0.4738570000000 1.0
C      1  0.4560470000000  0.5533610000000  0.4733510000000 1.0
C      1  0.4575790000000  0.5338100000000  0.4971290000000 1.0
C      1  0.5160460000000  0.5314700000000  0.5371430000000 1.0
C      1  0.5274490000000  0.5359190000000  0.4637400000000 1.0
C      1  0.5178490000000  0.4340380000000  0.4761460000000 1.0
C      1  0.4706840000000  0.4380410000000  0.4951950000000 1.0
C      1  0.5109200000000  0.4352340000000  0.5258820000000 1.0
C      1  0.4769170000000  0.5708710000000  0.4829600000000 1.0
C      1  0.4966930000000  0.5700520000000  0.5284860000000 1.0
C      1  0.5256580000000  0.5721010000000  0.4888310000000 1.0
C      1  0.4963250000000  0.4986940000000  0.4879650000000 1.0
C      1  0.4788270000000  0.4985470000000  0.5127810000000 1.0
C      1  0.5215160000000  0.5050720000000  0.5028430000000 1.0
C      1  0.5219630000000  0.5637000000000  0.5160470000000 1.0
C      1  0.5029860000000  0.5651140000000  0.4724940000000 1.0
C      1  0.4741990000000  0.5660610000000  0.5113700000000 1.0
C      1  0.5165610000000  0.4928840000000  0.5654160000000 1.0
C      1  0.5508330000000  0.4928450000000  0.4507350000000 1.0
C      1  0.4340540000000  0.4913980000000  0.4822890000000 1.0
C      1  0.5737160000000  0.5155750000000  0.5212020000000 1.0
C      1  0.4838890000000  0.5153100000000  0.4290880000000 1.0
C      1  0.4438620000000  0.5082380000000  0.5522940000000 1.0
C      1  0.5291300000000  0.4375110000000  0.5029880000000 1.0
C      1  0.4884520000000  0.4401620000000  0.4717260000000 1.0
C      1  0.4834040000000  0.4440780000000  0.5210530000000 1.0
C      1  0.4712590000000  0.5059210000000  0.5590930000000 1.0
C      1  0.5675750000000  0.5120430000000  0.4936570000000 1.0
C      1  0.4664120000000  0.5098750000000  0.4506600000000 1.0
C      1  0.5075300000000  0.5018780000000  0.4359890000000 1.0
C      1  0.4283890000000  0.5065450000000  0.5290630000000 1.0
C      1  0.5553780000000  0.5022250000000  0.5379820000000 1.0
END
