TITL C-3578195-8548-244 8.24947432695644e-08 125000 -601.26058929102 0 0 97 (C1) n - 1
REM
REM in /home/bkarasulu/work/CARBON/AIRSS/Generating-Clusters/EDIP-Nigel-Params/with-SteepDescent/Higher-Symm/SD-CG/HFTN-CG
REM
REM
REM
REM
REM
REM ./C.cell (12c818d87b63d06a65506943cc24bca4)
REM
REM compiler GCC version 9.2.1 20190827 (Red Hat 9.2.1-1)
REM options -cpp -mtune=generic -march=x86-64 -g -O0 -fpre-include=/usr/include/finclude/math-vector-fortran.h
REM seed -487530740 -1034723020 -662250312 25262203 -469945891 1716393115 -721937793 -967036972 -1139680187 -1661885650 -1748397377 596378528 -301912937 -1807128051 -84817210 -476029086 1722530396 736309960 -1937960536 -764216434 1078858529 206695226 115110041 -874335393 -274417449 1460959313 -119662637 2144557542 -1252867096 591084051 1004415842 -2039446086 -527971523
REM
CELL 1.54180   50.00000   50.00000   50.00000   90.00000   90.00000   90.00000
LATT -1
SFAC C  
C      1  0.4472140000000  0.4448580000000  0.4414790000000 1.0
C      1  0.4407240000000  0.5464350000000  0.4441120000000 1.0
C      1  0.5342380000000  0.5679600000000  0.4533360000000 1.0
C      1  0.5810480000000  0.4958470000000  0.4441310000000 1.0
C      1  0.5068980000000  0.4251780000000  0.4505650000000 1.0
C      1  0.4360520000000  0.5662050000000  0.5271780000000 1.0
C      1  0.5356940000000  0.5728310000000  0.5232650000000 1.0
C      1  0.5919850000000  0.4780560000000  0.5122220000000 1.0
C      1  0.5144390000000  0.4164450000000  0.5314340000000 1.0
C      1  0.4314540000000  0.4648590000000  0.5352310000000 1.0
C      1  0.4788720000000  0.4776880000000  0.5273230000000 1.0
C      1  0.4692870000000  0.5066810000000  0.5351490000000 1.0
C      1  0.4924410000000  0.5270330000000  0.5241870000000 1.0
C      1  0.5148840000000  0.5069320000000  0.5400800000000 1.0
C      1  0.5063080000000  0.4770240000000  0.5401250000000 1.0
C      1  0.4500930000000  0.4995770000000  0.4678350000000 1.0
C      1  0.4894630000000  0.5487620000000  0.4712390000000 1.0
C      1  0.5464260000000  0.5237140000000  0.4692990000000 1.0
C      1  0.5440660000000  0.4589530000000  0.4633400000000 1.0
C      1  0.4874990000000  0.4592110000000  0.4676610000000 1.0
C      1  0.4602990000000  0.5616370000000  0.5679470000000 1.0
C      1  0.5385980000000  0.5505960000000  0.5641720000000 1.0
C      1  0.5630070000000  0.4733980000000  0.5532630000000 1.0
C      1  0.4922640000000  0.4384700000000  0.5717260000000 1.0
C      1  0.4236540000000  0.4951180000000  0.5749080000000 1.0
C      1  0.5448740000000  0.4621820000000  0.5099910000000 1.0
C      1  0.4675740000000  0.4308170000000  0.5315070000000 1.0
C      1  0.4368870000000  0.5129530000000  0.5326450000000 1.0
C      1  0.4828870000000  0.5647160000000  0.5271320000000 1.0
C      1  0.5496910000000  0.5263640000000  0.5223770000000 1.0
C      1  0.5104050000000  0.5874360000000  0.4904860000000 1.0
C      1  0.5873040000000  0.5097180000000  0.4910870000000 1.0
C      1  0.5387540000000  0.4197480000000  0.4882690000000 1.0
C      1  0.4467480000000  0.4451010000000  0.4900220000000 1.0
C      1  0.4282170000000  0.5375230000000  0.4898400000000 1.0
C      1  0.4339280000000  0.5377850000000  0.5532620000000 1.0
C      1  0.5063320000000  0.5622380000000  0.5463870000000 1.0
C      1  0.5528610000000  0.5099190000000  0.5490570000000 1.0
C      1  0.5260620000000  0.4532240000000  0.5317280000000 1.0
C      1  0.4601940000000  0.4574570000000  0.5422220000000 1.0
C      1  0.5316170000000  0.5231240000000  0.4387050000000 1.0
C      1  0.5415940000000  0.4698170000000  0.4361570000000 1.0
C      1  0.4984830000000  0.4774510000000  0.4404980000000 1.0
C      1  0.4464290000000  0.4914830000000  0.4352500000000 1.0
C      1  0.4870960000000  0.5364020000000  0.4402120000000 1.0
C      1  0.5918390000000  0.4714140000000  0.4846120000000 1.0
C      1  0.5145060000000  0.4211990000000  0.5033740000000 1.0
C      1  0.4340960000000  0.4664330000000  0.5053700000000 1.0
C      1  0.4460790000000  0.5552850000000  0.5027850000000 1.0
C      1  0.5450010000000  0.5716600000000  0.4963060000000 1.0
C      1  0.4917560000000  0.4245510000000  0.4854710000000 1.0
C      1  0.4291960000000  0.4905000000000  0.4892520000000 1.0
C      1  0.4676250000000  0.5662050000000  0.4856160000000 1.0
C      1  0.5599420000000  0.5490650000000  0.4844020000000 1.0
C      1  0.5725290000000  0.4519850000000  0.4752010000000 1.0
C      1  0.4390870000000  0.5279620000000  0.4654280000000 1.0
C      1  0.5106820000000  0.5697200000000  0.4685730000000 1.0
C      1  0.5704270000000  0.5062730000000  0.4675600000000 1.0
C      1  0.5329010000000  0.4310950000000  0.4620480000000 1.0
C      1  0.4575020000000  0.4557930000000  0.4655020000000 1.0
C      1  0.4977840000000  0.5236080000000  0.4924420000000 1.0
C      1  0.5284280000000  0.5124570000000  0.4923960000000 1.0
C      1  0.5260040000000  0.4809770000000  0.4898360000000 1.0
C      1  0.4942330000000  0.4768390000000  0.4914730000000 1.0
C      1  0.4797790000000  0.5011690000000  0.4822420000000 1.0
C      1  0.5233030000000  0.4577250000000  0.4180620000000 1.0
C      1  0.4809180000000  0.4671840000000  0.4170050000000 1.0
C      1  0.4524540000000  0.5115710000000  0.4168600000000 1.0
C      1  0.5018080000000  0.5548930000000  0.4229070000000 1.0
C      1  0.5473630000000  0.5125540000000  0.4163610000000 1.0
C      1  0.5664010000000  0.4763130000000  0.5246960000000 1.0
C      1  0.4906570000000  0.4210850000000  0.5470170000000 1.0
C      1  0.4228890000000  0.4906510000000  0.5468910000000 1.0
C      1  0.4588300000000  0.5723270000000  0.5421470000000 1.0
C      1  0.5478250000000  0.5523320000000  0.5374030000000 1.0
C      1  0.4524900000000  0.4654970000000  0.4228260000000 1.0
C      1  0.4601550000000  0.5358310000000  0.4274180000000 1.0
C      1  0.5279410000000  0.5516540000000  0.4318480000000 1.0
C      1  0.5595910000000  0.4904160000000  0.4274090000000 1.0
C      1  0.5032780000000  0.4377620000000  0.4246500000000 1.0
C      1  0.4850250000000  0.5826070000000  0.5029200000000 1.0
C      1  0.5741500000000  0.5323440000000  0.5053900000000 1.0
C      1  0.5597760000000  0.4375970000000  0.4984330000000 1.0
C      1  0.4673610000000  0.4287350000000  0.5022360000000 1.0
C      1  0.4230810000000  0.5138970000000  0.5056140000000 1.0
C      1  0.4401510000000  0.5181410000000  0.5768010000000 1.0
C      1  0.4884760000000  0.5554310000000  0.5707510000000 1.0
C      1  0.5408650000000  0.5236700000000  0.5733870000000 1.0
C      1  0.5421670000000  0.4537850000000  0.5571090000000 1.0
C      1  0.4683830000000  0.4568550000000  0.5715690000000 1.0
C      1  0.4771880000000  0.4833480000000  0.5821040000000 1.0
C      1  0.4679000000000  0.5090820000000  0.5684810000000 1.0
C      1  0.4900460000000  0.5274880000000  0.5776030000000 1.0
C      1  0.5139590000000  0.5110750000000  0.5706240000000 1.0
C      1  0.5157320000000  0.4580440000000  0.5733140000000 1.0
C      1  0.5069450000000  0.4845750000000  0.5835820000000 1.0
C      1  0.5035200000000  0.5095220000000  0.4397230000000 1.0
END
