TITL C-3577079-311-569 -3.16224321684495e-06 125000 -141.198607822737 0 0 27 (C2) n - 1
REM
REM in /home/bkarasulu/work/CARBON/AIRSS/Generating-Clusters/EDIP-Nigel-Params/with-SteepDescent/Higher-Symm/SD-CG/HFTN-CG
REM
REM
REM
REM
REM
REM ./C.cell (12c818d87b63d06a65506943cc24bca4)
REM
REM compiler GCC version 9.2.1 20190827 (Red Hat 9.2.1-1)
REM options -cpp -mtune=generic -march=x86-64 -g -O0 -fpre-include=/usr/include/finclude/math-vector-fortran.h
REM seed 969783838 -987135814 -257808242 -1735343966 -1457372189 1515730366 -1486548346 -1087326416 -164701406 -1694225087 -1908968061 119495465 -2061647381 1658091946 -1120941202 622177046 -1312665764 -56739406 -922812406 1389995511 326411473 1924854994 -1524716682 1896860884 455610254 -1986691 -878939747 433279596 -484743752 -1979605353 685619699 -624800778 -2032273575
REM
CELL 1.54180   50.00000   50.00000   50.00000   90.00000   90.00000   90.00000
LATT -1
SFAC C  
C      1  0.4696200000000  0.4712820000000  0.4617170000000 1.0
C      1  0.5293850000000  0.4698110000000  0.5408220000000 1.0
C      1  0.4700700000000  0.5275880000000  0.5407150000000 1.0
C      1  0.5301190000000  0.5261160000000  0.4618250000000 1.0
C      1  0.5139560000000  0.4867090000000  0.4513510000000 1.0
C      1  0.4851970000000  0.4871660000000  0.5479450000000 1.0
C      1  0.5142330000000  0.5102330000000  0.5479960000000 1.0
C      1  0.4858200000000  0.5106880000000  0.4513010000000 1.0
C      1  0.4984530000000  0.5492610000000  0.5238430000000 1.0
C      1  0.5012860000000  0.5479510000000  0.4770220000000 1.0
C      1  0.4983980000000  0.4494470000000  0.4770180000000 1.0
C      1  0.5010630000000  0.4481380000000  0.5238480000000 1.0
C      1  0.5329020000000  0.4897760000000  0.4743700000000 1.0
C      1  0.4656030000000  0.4917870000000  0.5259850000000 1.0
C      1  0.5339050000000  0.5056110000000  0.5261080000000 1.0
C      1  0.4667910000000  0.5076220000000  0.4742510000000 1.0
C      1  0.5021800000000  0.5348940000000  0.4506560000000 1.0
C      1  0.4987700000000  0.5349130000000  0.5494000000000 1.0
C      1  0.5006550000000  0.4624860000000  0.5494040000000 1.0
C      1  0.4975980000000  0.4625040000000  0.4506480000000 1.0
C      1  0.4785860000000  0.5304400000000  0.5100880000000 1.0
C      1  0.5175280000000  0.5270100000000  0.4914430000000 1.0
C      1  0.4821040000000  0.4703880000000  0.4913800000000 1.0
C      1  0.5209790000000  0.4669580000000  0.5101650000000 1.0
C      1  0.4541420000000  0.5025260000000  0.5005950000000 1.0
C      1  0.5454570000000  0.4948720000000  0.5007590000000 1.0
C      1  0.4997990000000  0.4986990000000  0.5007860000000 1.0
END
