TITL C-3578203-1966-590 -8.53309459346195e-07 125000 -558.858151614074 0 0 90 (Cs) n - 1
REM
REM in /home/bkarasulu/work/CARBON/AIRSS/Generating-Clusters/EDIP-Nigel-Params/with-SteepDescent/Higher-Symm/SD-CG/HFTN-CG
REM
REM
REM
REM
REM
REM ./C.cell (12c818d87b63d06a65506943cc24bca4)
REM
REM compiler GCC version 9.2.1 20190827 (Red Hat 9.2.1-1)
REM options -cpp -mtune=generic -march=x86-64 -g -O0 -fpre-include=/usr/include/finclude/math-vector-fortran.h
REM seed -1229745625 -1413014988 -1191029137 -1273560255 238619879 -729496496 -1128458949 362552796 -81875957 1788414882 1718906600 -1638792403 1840744248 688520383 -837213361 -283122539 886643822 1797887582 -766763839 340061152 776971714 -224135028 601552105 -1476685827 -1467619682 1670557212 1288616998 520601204 1637964799 1497313140 805296008 -2089386490 -1731677151
REM
CELL 1.54180   50.00000   50.00000   50.00000   90.00000   90.00000   90.00000
LATT -1
SFAC C  
C      1  0.5005230000000  0.4738580000000  0.5152220000000 1.0
C      1  0.5257850000000  0.5156670000000  0.5270250000000 1.0
C      1  0.4776350000000  0.5159740000000  0.5222340000000 1.0
C      1  0.5005010000000  0.4737720000000  0.4849270000000 1.0
C      1  0.5257460000000  0.5155120000000  0.4728480000000 1.0
C      1  0.4776030000000  0.5158470000000  0.4777080000000 1.0
C      1  0.5018660000000  0.5288180000000  0.5144830000000 1.0
C      1  0.5253250000000  0.4850500000000  0.5271810000000 1.0
C      1  0.4772190000000  0.4877270000000  0.5278100000000 1.0
C      1  0.5018450000000  0.5287350000000  0.4853500000000 1.0
C      1  0.5252860000000  0.4848950000000  0.4728690000000 1.0
C      1  0.4771790000000  0.4875690000000  0.4722930000000 1.0
C      1  0.5012330000000  0.5265210000000  0.6021960000000 1.0
C      1  0.4774530000000  0.4856300000000  0.6111370000000 1.0
C      1  0.5240090000000  0.4829250000000  0.6116250000000 1.0
C      1  0.5010850000000  0.5259370000000  0.3976530000000 1.0
C      1  0.4772920000000  0.4849960000000  0.3889800000000 1.0
C      1  0.5238480000000  0.4822880000000  0.3884400000000 1.0
C      1  0.5001080000000  0.4727140000000  0.6009110000000 1.0
C      1  0.4749220000000  0.5118650000000  0.6014440000000 1.0
C      1  0.5211690000000  0.5098750000000  0.6126960000000 1.0
C      1  0.4999620000000  0.4721380000000  0.3992460000000 1.0
C      1  0.4747760000000  0.5112860000000  0.3985260000000 1.0
C      1  0.5210060000000  0.5092320000000  0.3872190000000 1.0
C      1  0.5173950000000  0.4348210000000  0.4599710000000 1.0
C      1  0.5459910000000  0.5524920000000  0.4583440000000 1.0
C      1  0.4340910000000  0.5159290000000  0.4620330000000 1.0
C      1  0.5174530000000  0.4350510000000  0.5403760000000 1.0
C      1  0.5460510000000  0.5527290000000  0.5412900000000 1.0
C      1  0.4341460000000  0.5161460000000  0.5379710000000 1.0
C      1  0.5189460000000  0.5654550000000  0.4585640000000 1.0
C      1  0.5446320000000  0.4469590000000  0.4592250000000 1.0
C      1  0.4331330000000  0.4849070000000  0.4621580000000 1.0
C      1  0.5190060000000  0.5656900000000  0.5410340000000 1.0
C      1  0.5446910000000  0.4471930000000  0.5410130000000 1.0
C      1  0.4331880000000  0.4851230000000  0.5380240000000 1.0
C      1  0.4960610000000  0.4440650000000  0.5195820000000 1.0
C      1  0.5530620000000  0.5248860000000  0.5155990000000 1.0
C      1  0.4537500000000  0.5313140000000  0.5165490000000 1.0
C      1  0.4960330000000  0.4439540000000  0.4807440000000 1.0
C      1  0.5530390000000  0.5247960000000  0.4841820000000 1.0
C      1  0.4537260000000  0.5312190000000  0.4833400000000 1.0
C      1  0.4979900000000  0.5584510000000  0.5193760000000 1.0
C      1  0.5522620000000  0.4750370000000  0.5156310000000 1.0
C      1  0.4532170000000  0.4720750000000  0.5170530000000 1.0
C      1  0.4979620000000  0.5583400000000  0.4802930000000 1.0
C      1  0.5522400000000  0.4749480000000  0.4844360000000 1.0
C      1  0.4531930000000  0.4719780000000  0.4831740000000 1.0
C      1  0.5736920000000  0.5138220000000  0.5577000000000 1.0
C      1  0.4502020000000  0.5563920000000  0.5609530000000 1.0
C      1  0.4735080000000  0.4295760000000  0.5610550000000 1.0
C      1  0.5736090000000  0.5134920000000  0.4421150000000 1.0
C      1  0.4501140000000  0.5560430000000  0.4387990000000 1.0
C      1  0.4734200000000  0.4292280000000  0.4393860000000 1.0
C      1  0.5730990000000  0.4849950000000  0.5576100000000 1.0
C      1  0.4490370000000  0.4440620000000  0.5609830000000 1.0
C      1  0.4747040000000  0.5708900000000  0.5620890000000 1.0
C      1  0.5730160000000  0.4846660000000  0.4423710000000 1.0
C      1  0.4489490000000  0.4437150000000  0.4394110000000 1.0
C      1  0.4746150000000  0.5705340000000  0.4375440000000 1.0
C      1  0.5502810000000  0.4671680000000  0.4388460000000 1.0
C      1  0.5013380000000  0.5597280000000  0.4351890000000 1.0
C      1  0.4474020000000  0.4724580000000  0.4381450000000 1.0
C      1  0.5503700000000  0.4675170000000  0.5612680000000 1.0
C      1  0.5014320000000  0.5600980000000  0.5644670000000 1.0
C      1  0.4474920000000  0.4728110000000  0.5620880000000 1.0
C      1  0.5512990000000  0.5314790000000  0.4385700000000 1.0
C      1  0.4998450000000  0.4405270000000  0.4366300000000 1.0
C      1  0.4463830000000  0.5273900000000  0.4368580000000 1.0
C      1  0.5513870000000  0.5318290000000  0.5611750000000 1.0
C      1  0.4999370000000  0.4408890000000  0.5637080000000 1.0
C      1  0.4464740000000  0.5277500000000  0.5630620000000 1.0
C      1  0.5020040000000  0.5311650000000  0.5718400000000 1.0
C      1  0.4748440000000  0.4852690000000  0.5586430000000 1.0
C      1  0.5253000000000  0.4831480000000  0.5592210000000 1.0
C      1  0.5019000000000  0.5307540000000  0.4279800000000 1.0
C      1  0.4747600000000  0.4849350000000  0.4414780000000 1.0
C      1  0.5252150000000  0.4828100000000  0.4408400000000 1.0
C      1  0.4997220000000  0.4699530000000  0.5710350000000 1.0
C      1  0.4721150000000  0.5134970000000  0.5710400000000 1.0
C      1  0.5260280000000  0.5168170000000  0.5590330000000 1.0
C      1  0.4996190000000  0.4695480000000  0.4291380000000 1.0
C      1  0.4720120000000  0.5130910000000  0.4289240000000 1.0
C      1  0.5259420000000  0.5164800000000  0.4408350000000 1.0
C      1  0.4648070000000  0.4431820000000  0.5261970000000 1.0
C      1  0.4667960000000  0.5587580000000  0.4732620000000 1.0
C      1  0.5705310000000  0.4995380000000  0.4776580000000 1.0
C      1  0.4668350000000  0.5589090000000  0.5264500000000 1.0
C      1  0.5705630000000  0.4996650000000  0.5222420000000 1.0
C      1  0.4647690000000  0.4430340000000  0.4741790000000 1.0
END
