TITL C-3577080-309-59 -2.00083801347057e-06 125000 -1097.53243878018 0 0 175 (C1) n - 1
REM
REM in /home/bkarasulu/work/CARBON/AIRSS/Generating-Clusters/EDIP-Nigel-Params/with-SteepDescent/Higher-Symm/SD-CG/HFTN-CG
REM
REM
REM
REM
REM
REM ./C.cell (12c818d87b63d06a65506943cc24bca4)
REM
REM compiler GCC version 9.2.1 20190827 (Red Hat 9.2.1-1)
REM options -cpp -mtune=generic -march=x86-64 -g -O0 -fpre-include=/usr/include/finclude/math-vector-fortran.h
REM seed -988748900 -563246219 -470663544 -102642044 950289009 1767886497 -1521181387 -1639168299 31138789 1863924592 1453219176 -1634701940 1939220039 110884919 -165749613 1696105644 -1454035949 -1208525018 7574776 1558338750 -1435645308 494701848 -1368939952 1756586452 -2052943801 -500710239 1885473931 -140311735 1343581789 -1359111126 -1139145102 423812532 -1363933360
REM
CELL 1.54180   50.00000   50.00000   50.00000   90.00000   90.00000   90.00000
LATT -1
SFAC C  
C      1  0.4774960000000  0.5178920000000  0.4424640000000 1.0
C      1  0.4770960000000  0.4864140000000  0.4424470000000 1.0
C      1  0.5114230000000  0.4748040000000  0.4404690000000 1.0
C      1  0.5308590000000  0.5008920000000  0.4422330000000 1.0
C      1  0.5091600000000  0.5256060000000  0.4394190000000 1.0
C      1  0.5495650000000  0.4650480000000  0.5151130000000 1.0
C      1  0.5511730000000  0.5386150000000  0.5145970000000 1.0
C      1  0.4810320000000  0.5583690000000  0.5130340000000 1.0
C      1  0.4399060000000  0.4985830000000  0.5175250000000 1.0
C      1  0.4837450000000  0.4416980000000  0.5152550000000 1.0
C      1  0.5331010000000  0.4433090000000  0.6068140000000 1.0
C      1  0.5532990000000  0.5256120000000  0.6118200000000 1.0
C      1  0.5021290000000  0.5621110000000  0.6054710000000 1.0
C      1  0.4435130000000  0.5249400000000  0.6112880000000 1.0
C      1  0.4612600000000  0.4477110000000  0.6079600000000 1.0
C      1  0.5690870000000  0.5094810000000  0.4783650000000 1.0
C      1  0.5136700000000  0.5659790000000  0.4776880000000 1.0
C      1  0.4434380000000  0.5335320000000  0.4818400000000 1.0
C      1  0.4526830000000  0.4588560000000  0.4814190000000 1.0
C      1  0.5275630000000  0.4405680000000  0.4786640000000 1.0
C      1  0.6002130000000  0.4669990000000  0.4438620000000 1.0
C      1  0.5599750000000  0.5857500000000  0.4423710000000 1.0
C      1  0.4370970000000  0.5849990000000  0.4440130000000 1.0
C      1  0.4027430000000  0.4639480000000  0.4463160000000 1.0
C      1  0.5002130000000  0.3966490000000  0.4434420000000 1.0
C      1  0.4577430000000  0.5258570000000  0.4092780000000 1.0
C      1  0.4598430000000  0.4652710000000  0.4005720000000 1.0
C      1  0.5200920000000  0.4493960000000  0.4003180000000 1.0
C      1  0.5507480000000  0.5021060000000  0.4057250000000 1.0
C      1  0.5123980000000  0.5512380000000  0.4015980000000 1.0
C      1  0.5528470000000  0.4082520000000  0.5363510000000 1.0
C      1  0.6014330000000  0.5232720000000  0.5390470000000 1.0
C      1  0.5090070000000  0.6046380000000  0.5380460000000 1.0
C      1  0.4027420000000  0.5415920000000  0.5382810000000 1.0
C      1  0.4299610000000  0.4211460000000  0.5367880000000 1.0
C      1  0.3946850000000  0.5304140000000  0.4845570000000 1.0
C      1  0.4365440000000  0.4128430000000  0.4834680000000 1.0
C      1  0.5660180000000  0.4125490000000  0.4838250000000 1.0
C      1  0.6029720000000  0.5372980000000  0.4823730000000 1.0
C      1  0.4964990000000  0.6098110000000  0.4838920000000 1.0
C      1  0.5827590000000  0.4882480000000  0.4334660000000 1.0
C      1  0.5345640000000  0.5749340000000  0.4321310000000 1.0
C      1  0.4387980000000  0.5574420000000  0.4341590000000 1.0
C      1  0.4300010000000  0.4588500000000  0.4358840000000 1.0
C      1  0.5150150000000  0.4197600000000  0.4332550000000 1.0
C      1  0.5265270000000  0.5175220000000  0.6128780000000 1.0
C      1  0.5000800000000  0.5347380000000  0.6158820000000 1.0
C      1  0.4711700000000  0.5198720000000  0.6128370000000 1.0
C      1  0.4797690000000  0.4678310000000  0.6123470000000 1.0
C      1  0.5163120000000  0.4650050000000  0.6109420000000 1.0
C      1  0.5219290000000  0.5136900000000  0.4831610000000 1.0
C      1  0.4956170000000  0.5239330000000  0.4818010000000 1.0
C      1  0.4770040000000  0.5027590000000  0.4837860000000 1.0
C      1  0.4922390000000  0.4792930000000  0.4836230000000 1.0
C      1  0.5194250000000  0.4858740000000  0.4826360000000 1.0
C      1  0.4087860000000  0.4915450000000  0.5482250000000 1.0
C      1  0.4787240000000  0.4090910000000  0.5447570000000 1.0
C      1  0.5778800000000  0.4524810000000  0.5469300000000 1.0
C      1  0.5698720000000  0.5623290000000  0.5469370000000 1.0
C      1  0.4629830000000  0.5819970000000  0.5457480000000 1.0
C      1  0.4795110000000  0.4888350000000  0.5477920000000 1.0
C      1  0.5055410000000  0.4758160000000  0.5424740000000 1.0
C      1  0.5263700000000  0.4962550000000  0.5472390000000 1.0
C      1  0.5128370000000  0.5202460000000  0.5364910000000 1.0
C      1  0.4846270000000  0.5166690000000  0.5384510000000 1.0
C      1  0.4508040000000  0.5938320000000  0.4911740000000 1.0
C      1  0.3969430000000  0.4827220000000  0.4920220000000 1.0
C      1  0.4828540000000  0.3970890000000  0.4894380000000 1.0
C      1  0.5955870000000  0.4513150000000  0.4913570000000 1.0
C      1  0.5740170000000  0.5757700000000  0.4900320000000 1.0
C      1  0.5039310000000  0.3966140000000  0.5341810000000 1.0
C      1  0.5961600000000  0.4734880000000  0.5373350000000 1.0
C      1  0.5554950000000  0.5863010000000  0.5362000000000 1.0
C      1  0.4347820000000  0.5796180000000  0.5365160000000 1.0
C      1  0.4048910000000  0.4639210000000  0.5370090000000 1.0
C      1  0.4340400000000  0.4946040000000  0.4635120000000 1.0
C      1  0.4864410000000  0.4368250000000  0.4631960000000 1.0
C      1  0.5597160000000  0.4681480000000  0.4659520000000 1.0
C      1  0.5495550000000  0.5455800000000  0.4621970000000 1.0
C      1  0.4721690000000  0.5613250000000  0.4632860000000 1.0
C      1  0.4909200000000  0.5667980000000  0.4166600000000 1.0
C      1  0.4357180000000  0.5083340000000  0.4213400000000 1.0
C      1  0.4683050000000  0.4393210000000  0.4133610000000 1.0
C      1  0.5467850000000  0.4492200000000  0.4151700000000 1.0
C      1  0.5554050000000  0.5272940000000  0.4223710000000 1.0
C      1  0.4344080000000  0.5214910000000  0.5843630000000 1.0
C      1  0.4607980000000  0.4449010000000  0.5799310000000 1.0
C      1  0.5379970000000  0.4438370000000  0.5788480000000 1.0
C      1  0.5650400000000  0.5251650000000  0.5861260000000 1.0
C      1  0.4989610000000  0.5562480000000  0.5773460000000 1.0
C      1  0.4992030000000  0.4300070000000  0.4095550000000 1.0
C      1  0.5634160000000  0.4755100000000  0.4129970000000 1.0
C      1  0.5410140000000  0.5537550000000  0.4112110000000 1.0
C      1  0.4618920000000  0.5561730000000  0.4131160000000 1.0
C      1  0.4349850000000  0.4779630000000  0.4129240000000 1.0
C      1  0.4538100000000  0.4764150000000  0.5368140000000 1.0
C      1  0.5079530000000  0.4474170000000  0.5348450000000 1.0
C      1  0.5540500000000  0.4880310000000  0.5365030000000 1.0
C      1  0.5262780000000  0.5460220000000  0.5322010000000 1.0
C      1  0.4663560000000  0.5393660000000  0.5332650000000 1.0
C      1  0.4551660000000  0.4478150000000  0.5238040000000 1.0
C      1  0.5348290000000  0.4396310000000  0.5220780000000 1.0
C      1  0.5678200000000  0.5134320000000  0.5221100000000 1.0
C      1  0.5079330000000  0.5695710000000  0.5212380000000 1.0
C      1  0.4372890000000  0.5285990000000  0.5249960000000 1.0
C      1  0.5609860000000  0.5505720000000  0.5722800000000 1.0
C      1  0.4692890000000  0.5637060000000  0.5683670000000 1.0
C      1  0.4236540000000  0.4951350000000  0.5740260000000 1.0
C      1  0.4801960000000  0.4242800000000  0.5702450000000 1.0
C      1  0.5597020000000  0.4626410000000  0.5681610000000 1.0
C      1  0.5702470000000  0.5659130000000  0.4614780000000 1.0
C      1  0.4593250000000  0.5873570000000  0.4628490000000 1.0
C      1  0.4052230000000  0.4878380000000  0.4637930000000 1.0
C      1  0.4806180000000  0.4083300000000  0.4618400000000 1.0
C      1  0.5838730000000  0.4524590000000  0.4633490000000 1.0
C      1  0.4074640000000  0.4597400000000  0.5074840000000 1.0
C      1  0.5086520000000  0.3984960000000  0.5047740000000 1.0
C      1  0.5994310000000  0.4766810000000  0.5077970000000 1.0
C      1  0.5516490000000  0.5879710000000  0.5062810000000 1.0
C      1  0.4312280000000  0.5766690000000  0.5069150000000 1.0
C      1  0.4838910000000  0.4815870000000  0.5854780000000 1.0
C      1  0.5133070000000  0.4797500000000  0.5859860000000 1.0
C      1  0.5249400000000  0.5071260000000  0.5843960000000 1.0
C      1  0.5006170000000  0.5251250000000  0.5781340000000 1.0
C      1  0.4770550000000  0.5102690000000  0.5864930000000 1.0
C      1  0.4208680000000  0.4443800000000  0.5519340000000 1.0
C      1  0.5270850000000  0.4060590000000  0.5500280000000 1.0
C      1  0.5939240000000  0.4985460000000  0.5534830000000 1.0
C      1  0.5305030000000  0.5912530000000  0.5523620000000 1.0
C      1  0.4212280000000  0.5584870000000  0.5528010000000 1.0
C      1  0.5941940000000  0.5575880000000  0.5023190000000 1.0
C      1  0.4736200000000  0.6086140000000  0.5037340000000 1.0
C      1  0.3897160000000  0.5086080000000  0.5043820000000 1.0
C      1  0.4555110000000  0.3977860000000  0.5017770000000 1.0
C      1  0.5849320000000  0.4259620000000  0.5034720000000 1.0
C      1  0.3966060000000  0.5169120000000  0.4566700000000 1.0
C      1  0.4506960000000  0.4114300000000  0.4552160000000 1.0
C      1  0.5721290000000  0.4248830000000  0.4557760000000 1.0
C      1  0.5932000000000  0.5462450000000  0.4546340000000 1.0
C      1  0.4845580000000  0.6033280000000  0.4555930000000 1.0
C      1  0.5753510000000  0.4265980000000  0.5318740000000 1.0
C      1  0.5909310000000  0.5495960000000  0.5309170000000 1.0
C      1  0.4805210000000  0.6020710000000  0.5322110000000 1.0
C      1  0.3966860000000  0.5137490000000  0.5328180000000 1.0
C      1  0.4531930000000  0.4045850000000  0.5307160000000 1.0
C      1  0.4800660000000  0.4841800000000  0.4103130000000 1.0
C      1  0.5095450000000  0.4756260000000  0.4092170000000 1.0
C      1  0.5233420000000  0.4998680000000  0.3986970000000 1.0
C      1  0.5066500000000  0.5229080000000  0.4077710000000 1.0
C      1  0.4803200000000  0.5117610000000  0.3992940000000 1.0
C      1  0.4803170000000  0.4532330000000  0.4866430000000 1.0
C      1  0.5396970000000  0.4657670000000  0.4862780000000 1.0
C      1  0.5473030000000  0.5279610000000  0.4853360000000 1.0
C      1  0.4894720000000  0.5520560000000  0.4845870000000 1.0
C      1  0.4481160000000  0.5056460000000  0.4877120000000 1.0
C      1  0.5711550000000  0.4987950000000  0.5724760000000 1.0
C      1  0.5268570000000  0.5620390000000  0.5599970000000 1.0
C      1  0.4442030000000  0.5438840000000  0.5651490000000 1.0
C      1  0.4408200000000  0.4636450000000  0.5634030000000 1.0
C      1  0.5150870000000  0.4311170000000  0.5612840000000 1.0
C      1  0.4450270000000  0.4311270000000  0.4318490000000 1.0
C      1  0.5522730000000  0.4253410000000  0.4327490000000 1.0
C      1  0.5835500000000  0.5265050000000  0.4340680000000 1.0
C      1  0.5000040000000  0.5907510000000  0.4325570000000 1.0
C      1  0.4170870000000  0.5258120000000  0.4369230000000 1.0
C      1  0.4337660000000  0.4431150000000  0.4982140000000 1.0
C      1  0.5341510000000  0.4178990000000  0.4969660000000 1.0
C      1  0.5907420000000  0.5066220000000  0.4996120000000 1.0
C      1  0.5206670000000  0.5874290000000  0.4972560000000 1.0
C      1  0.4234590000000  0.5463240000000  0.4995890000000 1.0
C      1  0.5121390000000  0.4431640000000  0.4532170000000 1.0
C      1  0.5609840000000  0.4936010000000  0.4548190000000 1.0
C      1  0.5244280000000  0.5542190000000  0.4525450000000 1.0
C      1  0.4554820000000  0.5401500000000  0.4550900000000 1.0
C      1  0.4494690000000  0.4726010000000  0.4551210000000 1.0
END
