TITL C-3578197-9521-398 -4.26890701281651e-07 125000 -365.480097941874 0 0 61 (C1) n - 1
REM
REM in /home/bkarasulu/work/CARBON/AIRSS/Generating-Clusters/EDIP-Nigel-Params/with-SteepDescent/Higher-Symm/SD-CG/HFTN-CG
REM
REM
REM
REM
REM
REM ./C.cell (12c818d87b63d06a65506943cc24bca4)
REM
REM compiler GCC version 9.2.1 20190827 (Red Hat 9.2.1-1)
REM options -cpp -mtune=generic -march=x86-64 -g -O0 -fpre-include=/usr/include/finclude/math-vector-fortran.h
REM seed -809678738 -860964016 -1308862048 1801716379 -446331008 -314142144 1314497179 -1015424544 -1038548791 -1664407778 480774177 561191614 546898279 722170483 -97636490 -1203120203 -174551380 247673159 -1040954028 -879285392 2052952926 -1838387345 1194412664 -761191031 1734254613 -431796882 -2107335031 778171256 300226856 -1324005315 352088836 1444969361 -578223989
REM
CELL 1.54180   50.00000   50.00000   50.00000   90.00000   90.00000   90.00000
LATT -1
SFAC C  
C      1  0.4359250000000  0.4849300000000  0.4608100000000 1.0
C      1  0.4374750000000  0.5120170000000  0.4608130000000 1.0
C      1  0.4320950000000  0.4887690000000  0.5141170000000 1.0
C      1  0.4293890000000  0.5152330000000  0.5142830000000 1.0
C      1  0.5451550000000  0.4864910000000  0.5211350000000 1.0
C      1  0.5392700000000  0.5149340000000  0.5198260000000 1.0
C      1  0.5445130000000  0.4216290000000  0.4792860000000 1.0
C      1  0.5439410000000  0.5775910000000  0.4802180000000 1.0
C      1  0.4572060000000  0.4886560000000  0.5580750000000 1.0
C      1  0.4547580000000  0.5151190000000  0.5605780000000 1.0
C      1  0.5183410000000  0.4703860000000  0.5527370000000 1.0
C      1  0.5172610000000  0.5318500000000  0.5546510000000 1.0
C      1  0.5453030000000  0.4697260000000  0.5439920000000 1.0
C      1  0.5440260000000  0.5302230000000  0.5445730000000 1.0
C      1  0.5290590000000  0.5134640000000  0.4381150000000 1.0
C      1  0.5298150000000  0.4859460000000  0.4372700000000 1.0
C      1  0.5048070000000  0.5275070000000  0.5074740000000 1.0
C      1  0.5062060000000  0.4779950000000  0.5019320000000 1.0
C      1  0.4780650000000  0.4109440000000  0.4814560000000 1.0
C      1  0.4768920000000  0.5905340000000  0.4803790000000 1.0
C      1  0.5065850000000  0.4719950000000  0.4454690000000 1.0
C      1  0.5072130000000  0.5260590000000  0.4503510000000 1.0
C      1  0.5389250000000  0.4442170000000  0.4631270000000 1.0
C      1  0.5378750000000  0.5543890000000  0.4652120000000 1.0
C      1  0.4718870000000  0.5578330000000  0.5468040000000 1.0
C      1  0.4725630000000  0.4452100000000  0.5448720000000 1.0
C      1  0.4507490000000  0.4469800000000  0.5028290000000 1.0
C      1  0.4498470000000  0.5560770000000  0.5038830000000 1.0
C      1  0.5088380000000  0.5592840000000  0.5578320000000 1.0
C      1  0.5093450000000  0.4432850000000  0.5562090000000 1.0
C      1  0.5088650000000  0.4445750000000  0.5058440000000 1.0
C      1  0.5075440000000  0.5589630000000  0.5082870000000 1.0
C      1  0.4746120000000  0.5172870000000  0.4925400000000 1.0
C      1  0.4755040000000  0.4859800000000  0.4919360000000 1.0
C      1  0.5103200000000  0.4447740000000  0.4547940000000 1.0
C      1  0.5096640000000  0.5542860000000  0.4568880000000 1.0
C      1  0.5603280000000  0.4702530000000  0.5023040000000 1.0
C      1  0.5587440000000  0.5290470000000  0.5026560000000 1.0
C      1  0.4617320000000  0.4342030000000  0.4806020000000 1.0
C      1  0.4619480000000  0.5663730000000  0.4810160000000 1.0
C      1  0.4952050000000  0.5704370000000  0.5341620000000 1.0
C      1  0.4959990000000  0.4332290000000  0.5318730000000 1.0
C      1  0.5581040000000  0.4445910000000  0.5174200000000 1.0
C      1  0.5572400000000  0.5547640000000  0.5182040000000 1.0
C      1  0.4977450000000  0.5177920000000  0.5359230000000 1.0
C      1  0.4995310000000  0.4853510000000  0.5333050000000 1.0
C      1  0.4543970000000  0.5291720000000  0.5129820000000 1.0
C      1  0.4560590000000  0.4737490000000  0.5120330000000 1.0
C      1  0.4947100000000  0.5668480000000  0.4810880000000 1.0
C      1  0.4951130000000  0.4350620000000  0.4798290000000 1.0
C      1  0.5435030000000  0.5269600000000  0.4775510000000 1.0
C      1  0.5478640000000  0.4714350000000  0.4752050000000 1.0
C      1  0.4621440000000  0.5251090000000  0.4650730000000 1.0
C      1  0.4625470000000  0.4756000000000  0.4651430000000 1.0
C      1  0.4805580000000  0.4851050000000  0.4441120000000 1.0
C      1  0.4812710000000  0.5152760000000  0.4451610000000 1.0
C      1  0.4689260000000  0.5294740000000  0.5401910000000 1.0
C      1  0.4708900000000  0.4735100000000  0.5382840000000 1.0
C      1  0.5362090000000  0.5707150000000  0.5064120000000 1.0
C      1  0.5365420000000  0.4301130000000  0.5050120000000 1.0
C      1  0.5282610000000  0.4961230000000  0.4752040000000 1.0
END
