TITL C-3578209-2550-319 1.77735680796786e-08 125000 -773.594905129699 0 0 126 (C1) n - 1
REM
REM in /home/bkarasulu/work/CARBON/AIRSS/Generating-Clusters/EDIP-Nigel-Params/with-SteepDescent/Higher-Symm/SD-CG/HFTN-CG
REM
REM
REM
REM
REM
REM ./C.cell (12c818d87b63d06a65506943cc24bca4)
REM
REM compiler GCC version 9.2.1 20190827 (Red Hat 9.2.1-1)
REM options -cpp -mtune=generic -march=x86-64 -g -O0 -fpre-include=/usr/include/finclude/math-vector-fortran.h
REM seed -1457202389 352731434 -108877686 -914300795 1358059350 -465038705 182158186 -1653105458 -261963631 -1181967980 -252322735 32167498 969740826 2004813279 -70844250 -1902492598 -874207752 -2091844793 -1027251865 1382853356 661632479 -1947574088 201738746 89347518 219304720 1292075000 428831141 476461304 768526143 -1184684885 -1387936371 -499833756 -749772451
REM
CELL 1.54180   50.00000   50.00000   50.00000   90.00000   90.00000   90.00000
LATT -1
SFAC C  
C      1  0.4956990000000  0.4618630000000  0.5531180000000 1.0
C      1  0.4766880000000  0.5394450000000  0.4479820000000 1.0
C      1  0.5034610000000  0.4608910000000  0.4504340000000 1.0
C      1  0.5021050000000  0.5395160000000  0.5390770000000 1.0
C      1  0.4921470000000  0.5567720000000  0.4677870000000 1.0
C      1  0.4799930000000  0.4445010000000  0.5346430000000 1.0
C      1  0.5116520000000  0.4454620000000  0.4756640000000 1.0
C      1  0.5184170000000  0.5537470000000  0.5167360000000 1.0
C      1  0.5075570000000  0.5478650000000  0.5692150000000 1.0
C      1  0.5123490000000  0.4446000000000  0.4174870000000 1.0
C      1  0.4899850000000  0.5516060000000  0.4155710000000 1.0
C      1  0.4908200000000  0.4498560000000  0.5815830000000 1.0
C      1  0.5044380000000  0.5958340000000  0.5563930000000 1.0
C      1  0.5071340000000  0.3960660000000  0.4428080000000 1.0
C      1  0.4904810000000  0.4110650000000  0.5500000000000 1.0
C      1  0.4912570000000  0.5890670000000  0.4469720000000 1.0
C      1  0.5515970000000  0.4171150000000  0.4763690000000 1.0
C      1  0.5541010000000  0.5820070000000  0.5204890000000 1.0
C      1  0.4414960000000  0.4206290000000  0.5291970000000 1.0
C      1  0.4453870000000  0.5848020000000  0.4794650000000 1.0
C      1  0.5524400000000  0.4809930000000  0.4283250000000 1.0
C      1  0.5548820000000  0.5304480000000  0.5819870000000 1.0
C      1  0.4392300000000  0.5320110000000  0.4227680000000 1.0
C      1  0.4459380000000  0.4724250000000  0.5880780000000 1.0
C      1  0.4116210000000  0.5237350000000  0.5465150000000 1.0
C      1  0.4093010000000  0.4700370000000  0.4517860000000 1.0
C      1  0.6036360000000  0.5284030000000  0.4554530000000 1.0
C      1  0.5822180000000  0.4741940000000  0.5417400000000 1.0
C      1  0.4102390000000  0.5458860000000  0.5316620000000 1.0
C      1  0.4107530000000  0.4485430000000  0.4676900000000 1.0
C      1  0.5865460000000  0.4536820000000  0.5253470000000 1.0
C      1  0.6018110000000  0.5493700000000  0.4720980000000 1.0
C      1  0.4160290000000  0.5510760000000  0.5050140000000 1.0
C      1  0.4191330000000  0.4459180000000  0.4939000000000 1.0
C      1  0.5885160000000  0.5514880000000  0.4962770000000 1.0
C      1  0.5837390000000  0.4459350000000  0.4990460000000 1.0
C      1  0.4240690000000  0.5000180000000  0.5530850000000 1.0
C      1  0.4182660000000  0.4962680000000  0.4505010000000 1.0
C      1  0.5704890000000  0.4979620000000  0.5493830000000 1.0
C      1  0.5921080000000  0.5035360000000  0.4507830000000 1.0
C      1  0.4645440000000  0.5367590000000  0.5665190000000 1.0
C      1  0.4664600000000  0.4539130000000  0.4181150000000 1.0
C      1  0.5294720000000  0.5392700000000  0.4358680000000 1.0
C      1  0.5348620000000  0.4589760000000  0.5766220000000 1.0
C      1  0.4634690000000  0.5770780000000  0.5376310000000 1.0
C      1  0.4701800000000  0.4259860000000  0.4559140000000 1.0
C      1  0.5316740000000  0.4251650000000  0.5386100000000 1.0
C      1  0.5345530000000  0.5818440000000  0.4605030000000 1.0
C      1  0.5214210000000  0.5985880000000  0.4814000000000 1.0
C      1  0.5180730000000  0.4151460000000  0.5139950000000 1.0
C      1  0.4777790000000  0.5929470000000  0.5177890000000 1.0
C      1  0.4882060000000  0.4206610000000  0.4786870000000 1.0
C      1  0.5206360000000  0.4817790000000  0.5891070000000 1.0
C      1  0.5144030000000  0.5157570000000  0.4257780000000 1.0
C      1  0.4803410000000  0.5110300000000  0.5735000000000 1.0
C      1  0.4782630000000  0.4786210000000  0.4064690000000 1.0
C      1  0.5675660000000  0.5199190000000  0.5320310000000 1.0
C      1  0.5932420000000  0.4850870000000  0.4715780000000 1.0
C      1  0.4190060000000  0.5114950000000  0.4756820000000 1.0
C      1  0.4279820000000  0.4788500000000  0.5343150000000 1.0
C      1  0.5804930000000  0.5257060000000  0.5069080000000 1.0
C      1  0.5752120000000  0.4667510000000  0.4813960000000 1.0
C      1  0.4230380000000  0.4710050000000  0.5071640000000 1.0
C      1  0.4328440000000  0.5293800000000  0.4951370000000 1.0
C      1  0.5172870000000  0.5614230000000  0.4194740000000 1.0
C      1  0.5167820000000  0.4347480000000  0.5838800000000 1.0
C      1  0.4812170000000  0.5600430000000  0.5783150000000 1.0
C      1  0.4868570000000  0.4308740000000  0.4134170000000 1.0
C      1  0.5166300000000  0.4142660000000  0.5619470000000 1.0
C      1  0.5177270000000  0.5865560000000  0.4353980000000 1.0
C      1  0.4783150000000  0.5850840000000  0.5626340000000 1.0
C      1  0.4832310000000  0.4097960000000  0.4343160000000 1.0
C      1  0.4694420000000  0.4915070000000  0.5952510000000 1.0
C      1  0.4669680000000  0.5069820000000  0.4112880000000 1.0
C      1  0.5267830000000  0.4909040000000  0.4167640000000 1.0
C      1  0.5307210000000  0.5099400000000  0.5924320000000 1.0
C      1  0.4722150000000  0.5889690000000  0.4899650000000 1.0
C      1  0.4710200000000  0.4138770000000  0.5047480000000 1.0
C      1  0.5289650000000  0.4022140000000  0.4892890000000 1.0
C      1  0.5283360000000  0.5955700000000  0.5104700000000 1.0
C      1  0.4313660000000  0.5053720000000  0.4265380000000 1.0
C      1  0.4336830000000  0.4964840000000  0.5794630000000 1.0
C      1  0.5656490000000  0.5043210000000  0.5763700000000 1.0
C      1  0.5633420000000  0.5040570000000  0.4449830000000 1.0
C      1  0.4335660000000  0.4227650000000  0.5023320000000 1.0
C      1  0.4264410000000  0.5759160000000  0.4977580000000 1.0
C      1  0.5749420000000  0.5752360000000  0.5028410000000 1.0
C      1  0.5741470000000  0.4204320000000  0.4928310000000 1.0
C      1  0.5465850000000  0.5144550000000  0.4945490000000 1.0
C      1  0.5308330000000  0.4704500000000  0.5196370000000 1.0
C      1  0.4574070000000  0.5274030000000  0.5157000000000 1.0
C      1  0.4597530000000  0.4806470000000  0.5041700000000 1.0
C      1  0.5353460000000  0.5003470000000  0.5228600000000 1.0
C      1  0.5493160000000  0.4934350000000  0.4704300000000 1.0
C      1  0.4604410000000  0.4992360000000  0.5281740000000 1.0
C      1  0.4538500000000  0.4953430000000  0.4760180000000 1.0
C      1  0.5445250000000  0.5576110000000  0.5340190000000 1.0
C      1  0.5405680000000  0.4426900000000  0.4674880000000 1.0
C      1  0.4424810000000  0.5738990000000  0.4537190000000 1.0
C      1  0.4523390000000  0.4431440000000  0.5433280000000 1.0
C      1  0.5507480000000  0.5489150000000  0.5606860000000 1.0
C      1  0.5497940000000  0.4567270000000  0.4440540000000 1.0
C      1  0.4480100000000  0.4507900000000  0.5700500000000 1.0
C      1  0.4488960000000  0.5480090000000  0.4447370000000 1.0
C      1  0.4882140000000  0.5421860000000  0.4968670000000 1.0
C      1  0.4808260000000  0.4595820000000  0.5088260000000 1.0
C      1  0.5306250000000  0.5396690000000  0.4905190000000 1.0
C      1  0.5082540000000  0.4655400000000  0.4992390000000 1.0
C      1  0.4864380000000  0.4947680000000  0.5471360000000 1.0
C      1  0.4760570000000  0.5113020000000  0.4601760000000 1.0
C      1  0.5085700000000  0.5107120000000  0.5347240000000 1.0
C      1  0.5182160000000  0.4883160000000  0.4602480000000 1.0
C      1  0.4935560000000  0.4734070000000  0.5987120000000 1.0
C      1  0.4914070000000  0.5238460000000  0.4097690000000 1.0
C      1  0.5074820000000  0.4712140000000  0.4078360000000 1.0
C      1  0.5056040000000  0.5236160000000  0.5852290000000 1.0
C      1  0.4925470000000  0.6001000000000  0.4730280000000 1.0
C      1  0.4925250000000  0.4044020000000  0.5225560000000 1.0
C      1  0.5052310000000  0.3974530000000  0.4709510000000 1.0
C      1  0.5047720000000  0.5941600000000  0.5282440000000 1.0
C      1  0.5266320000000  0.4551300000000  0.5452900000000 1.0
C      1  0.5231100000000  0.5526770000000  0.4638540000000 1.0
C      1  0.4723150000000  0.4547770000000  0.4478390000000 1.0
C      1  0.4701400000000  0.5463950000000  0.5373510000000 1.0
C      1  0.5091500000000  0.4925320000000  0.4878390000000 1.0
C      1  0.4868970000000  0.5114300000000  0.4882980000000 1.0
END
