TITL C-3577077-324-106 -2.39970725470071e-06 125000 -738.088789393662 0 0 118 (C1) n - 1
REM
REM in /home/bkarasulu/work/CARBON/AIRSS/Generating-Clusters/EDIP-Nigel-Params/with-SteepDescent/Higher-Symm/SD-CG/HFTN-CG
REM
REM
REM
REM
REM
REM ./C.cell (12c818d87b63d06a65506943cc24bca4)
REM
REM compiler GCC version 9.2.1 20190827 (Red Hat 9.2.1-1)
REM options -cpp -mtune=generic -march=x86-64 -g -O0 -fpre-include=/usr/include/finclude/math-vector-fortran.h
REM seed 882853103 -616640906 490985880 743560412 1102837010 -1318747295 -474945839 -223314756 783276240 960950395 -358894586 -1727298135 406296264 1146125280 1580950087 966224818 986868224 -417085185 -1003300032 478376397 1933225979 -560914748 1444383509 -1217619924 613020847 -2026700375 814729776 905598219 1211102009 -1490781503 610182422 1972221952 -1959590292
REM
CELL 1.54180   50.00000   50.00000   50.00000   90.00000   90.00000   90.00000
LATT -1
SFAC C  
C      1  0.5689690000000  0.5384300000000  0.4823300000000 1.0
C      1  0.5025950000000  0.4649160000000  0.4793890000000 1.0
C      1  0.4878510000000  0.5186320000000  0.5861860000000 1.0
C      1  0.5147150000000  0.4847060000000  0.5964920000000 1.0
C      1  0.4443140000000  0.5420810000000  0.4268250000000 1.0
C      1  0.5628520000000  0.5733490000000  0.5144180000000 1.0
C      1  0.4518310000000  0.4984350000000  0.4266460000000 1.0
C      1  0.5663820000000  0.4798140000000  0.4363580000000 1.0
C      1  0.4242450000000  0.5556450000000  0.5080580000000 1.0
C      1  0.5022930000000  0.4404980000000  0.5707210000000 1.0
C      1  0.4541920000000  0.5667920000000  0.5143360000000 1.0
C      1  0.5075030000000  0.5569800000000  0.4403800000000 1.0
C      1  0.4815180000000  0.4940490000000  0.4314950000000 1.0
C      1  0.4291780000000  0.5325690000000  0.5517500000000 1.0
C      1  0.5016980000000  0.4369020000000  0.4949320000000 1.0
C      1  0.4258620000000  0.4760460000000  0.4558250000000 1.0
C      1  0.4640470000000  0.5633540000000  0.4599530000000 1.0
C      1  0.4802800000000  0.4721200000000  0.4579800000000 1.0
C      1  0.4085980000000  0.5096160000000  0.4876820000000 1.0
C      1  0.5410780000000  0.5278940000000  0.5663170000000 1.0
C      1  0.4996090000000  0.4046970000000  0.5350940000000 1.0
C      1  0.5410480000000  0.4292560000000  0.4555010000000 1.0
C      1  0.5080580000000  0.5104580000000  0.5079090000000 1.0
C      1  0.5428830000000  0.5257620000000  0.4323370000000 1.0
C      1  0.4516320000000  0.4900970000000  0.5017820000000 1.0
C      1  0.4670910000000  0.4737430000000  0.5775050000000 1.0
C      1  0.4961940000000  0.5353220000000  0.4233600000000 1.0
C      1  0.5394600000000  0.5343030000000  0.5365450000000 1.0
C      1  0.5559510000000  0.5612280000000  0.5409020000000 1.0
C      1  0.4902200000000  0.5741540000000  0.4578370000000 1.0
C      1  0.4943190000000  0.4737080000000  0.4022620000000 1.0
C      1  0.5014560000000  0.4395220000000  0.4363750000000 1.0
C      1  0.4416380000000  0.5068080000000  0.5520860000000 1.0
C      1  0.4351390000000  0.4575090000000  0.5418770000000 1.0
C      1  0.5478950000000  0.5551150000000  0.4723430000000 1.0
C      1  0.4760510000000  0.5317970000000  0.5423350000000 1.0
C      1  0.5014210000000  0.5063810000000  0.6075030000000 1.0
C      1  0.4955490000000  0.4674440000000  0.5810360000000 1.0
C      1  0.5280160000000  0.5017510000000  0.4597780000000 1.0
C      1  0.4922640000000  0.3952110000000  0.5081740000000 1.0
C      1  0.5962700000000  0.4930520000000  0.5158640000000 1.0
C      1  0.4699460000000  0.4199580000000  0.4695240000000 1.0
C      1  0.4440840000000  0.5660620000000  0.4408920000000 1.0
C      1  0.4497220000000  0.5205340000000  0.4995390000000 1.0
C      1  0.5993380000000  0.5410780000000  0.5215390000000 1.0
C      1  0.4952130000000  0.4853270000000  0.5462820000000 1.0
C      1  0.5671670000000  0.5091230000000  0.4413330000000 1.0
C      1  0.4181180000000  0.5376000000000  0.4863490000000 1.0
C      1  0.5194450000000  0.4869610000000  0.4108810000000 1.0
C      1  0.5099550000000  0.5706530000000  0.5380570000000 1.0
C      1  0.4141240000000  0.5422910000000  0.5305070000000 1.0
C      1  0.4548450000000  0.4494140000000  0.4304170000000 1.0
C      1  0.4783500000000  0.5878520000000  0.5051220000000 1.0
C      1  0.5165080000000  0.3938290000000  0.4914070000000 1.0
C      1  0.4689260000000  0.5392990000000  0.5140230000000 1.0
C      1  0.5491460000000  0.4835200000000  0.4893690000000 1.0
C      1  0.5777420000000  0.5178720000000  0.5590980000000 1.0
C      1  0.5798280000000  0.5150430000000  0.4675550000000 1.0
C      1  0.4796500000000  0.4736350000000  0.5219020000000 1.0
C      1  0.4263320000000  0.4853560000000  0.5384150000000 1.0
C      1  0.5821110000000  0.4711610000000  0.5276180000000 1.0
C      1  0.4368560000000  0.4728910000000  0.4275760000000 1.0
C      1  0.4250660000000  0.4489190000000  0.4717550000000 1.0
C      1  0.5781480000000  0.4660450000000  0.4607780000000 1.0
C      1  0.5378170000000  0.5103780000000  0.4973760000000 1.0
C      1  0.5532990000000  0.5126500000000  0.5223090000000 1.0
C      1  0.5659660000000  0.4923020000000  0.5671940000000 1.0
C      1  0.4569890000000  0.4518330000000  0.5601020000000 1.0
C      1  0.5006060000000  0.5133310000000  0.5378760000000 1.0
C      1  0.4889400000000  0.5565450000000  0.5552320000000 1.0
C      1  0.4851110000000  0.5320940000000  0.4685820000000 1.0
C      1  0.4716250000000  0.5914560000000  0.5516980000000 1.0
C      1  0.5181080000000  0.5153740000000  0.4186390000000 1.0
C      1  0.4222290000000  0.4855890000000  0.5077940000000 1.0
C      1  0.5346480000000  0.5493930000000  0.4477410000000 1.0
C      1  0.4953460000000  0.4848690000000  0.4998430000000 1.0
C      1  0.5624840000000  0.4339480000000  0.4980840000000 1.0
C      1  0.5630850000000  0.4414470000000  0.4702010000000 1.0
C      1  0.4797980000000  0.4315890000000  0.5521480000000 1.0
C      1  0.5383150000000  0.5710270000000  0.4956490000000 1.0
C      1  0.4706600000000  0.4137270000000  0.4981430000000 1.0
C      1  0.5380490000000  0.4713160000000  0.4291780000000 1.0
C      1  0.5304010000000  0.4705040000000  0.4675530000000 1.0
C      1  0.4694420000000  0.5372460000000  0.4146740000000 1.0
C      1  0.4119310000000  0.5031640000000  0.4590640000000 1.0
C      1  0.5577270000000  0.4856770000000  0.5370540000000 1.0
C      1  0.5251900000000  0.4733990000000  0.5486790000000 1.0
C      1  0.5955040000000  0.5166870000000  0.5346320000000 1.0
C      1  0.5279410000000  0.5522660000000  0.5790270000000 1.0
C      1  0.5182310000000  0.5546640000000  0.5126800000000 1.0
C      1  0.4268920000000  0.4391630000000  0.5217370000000 1.0
C      1  0.4827030000000  0.4430190000000  0.5213200000000 1.0
C      1  0.5359760000000  0.4231850000000  0.5067280000000 1.0
C      1  0.4977340000000  0.5065350000000  0.4568610000000 1.0
C      1  0.4512910000000  0.4393850000000  0.4587280000000 1.0
C      1  0.5212390000000  0.4243130000000  0.5324250000000 1.0
C      1  0.5796360000000  0.4470220000000  0.5149380000000 1.0
C      1  0.4916950000000  0.5939220000000  0.5309970000000 1.0
C      1  0.4984860000000  0.5467510000000  0.5810290000000 1.0
C      1  0.4466440000000  0.5520470000000  0.5606110000000 1.0
C      1  0.4540360000000  0.4819500000000  0.4715290000000 1.0
C      1  0.4828100000000  0.4520470000000  0.4190890000000 1.0
C      1  0.5251590000000  0.4436140000000  0.5538010000000 1.0
C      1  0.5296980000000  0.4433050000000  0.4331040000000 1.0
C      1  0.5245470000000  0.5953650000000  0.4870090000000 1.0
C      1  0.5831260000000  0.5542820000000  0.5028470000000 1.0
C      1  0.5348160000000  0.4907890000000  0.5744830000000 1.0
C      1  0.4949930000000  0.5367400000000  0.4979460000000 1.0
C      1  0.5795570000000  0.4883580000000  0.4826540000000 1.0
C      1  0.4948920000000  0.4189670000000  0.4551150000000 1.0
C      1  0.4196690000000  0.4561680000000  0.5003240000000 1.0
C      1  0.4386040000000  0.5185300000000  0.4451110000000 1.0
C      1  0.5336600000000  0.5734120000000  0.5572430000000 1.0
C      1  0.5197720000000  0.4109450000000  0.4676000000000 1.0
C      1  0.4505040000000  0.5744660000000  0.5434480000000 1.0
C      1  0.4574380000000  0.5207360000000  0.4702420000000 1.0
C      1  0.4982270000000  0.5855520000000  0.4833920000000 1.0
C      1  0.4639700000000  0.5023940000000  0.5721150000000 1.0
END
