TITL C-3578198-8939-658 -3.07313078849057e-06 125000 -654.997169057941 0 0 106 (C1) n - 1
REM
REM in /home/bkarasulu/work/CARBON/AIRSS/Generating-Clusters/EDIP-Nigel-Params/with-SteepDescent/Higher-Symm/SD-CG/HFTN-CG
REM
REM
REM
REM
REM
REM ./C.cell (12c818d87b63d06a65506943cc24bca4)
REM
REM compiler GCC version 9.2.1 20190827 (Red Hat 9.2.1-1)
REM options -cpp -mtune=generic -march=x86-64 -g -O0 -fpre-include=/usr/include/finclude/math-vector-fortran.h
REM seed 573456741 -1801559428 -924841899 -846718654 152939417 2042526712 109838703 -378108425 1727861040 -1958463482 658812845 570141367 700289132 -736764403 -526459128 783594328 1959538962 1575784264 -626954121 712730412 766539779 1012104049 -1572833502 504819805 -1391266879 879153283 -172599226 1953805531 1725787600 1994500795 -404948729 -1692371127 105072529
REM
CELL 1.54180   50.00000   50.00000   50.00000   90.00000   90.00000   90.00000
LATT -1
SFAC C  
C      1  0.4658220000000  0.5762000000000  0.5273730000000 1.0
C      1  0.4650380000000  0.4920680000000  0.5833110000000 1.0
C      1  0.4615600000000  0.4112200000000  0.5187860000000 1.0
C      1  0.4651340000000  0.4508750000000  0.4386530000000 1.0
C      1  0.4716110000000  0.5502570000000  0.4338730000000 1.0
C      1  0.5334500000000  0.4212320000000  0.5264340000000 1.0
C      1  0.5352930000000  0.5042260000000  0.5826670000000 1.0
C      1  0.5404800000000  0.5826420000000  0.5185030000000 1.0
C      1  0.5440950000000  0.5483980000000  0.4252890000000 1.0
C      1  0.5352980000000  0.4559080000000  0.4358100000000 1.0
C      1  0.4349230000000  0.5049920000000  0.4723410000000 1.0
C      1  0.4348910000000  0.5278120000000  0.4930970000000 1.0
C      1  0.4285840000000  0.5048450000000  0.5381690000000 1.0
C      1  0.4192270000000  0.4677990000000  0.5353210000000 1.0
C      1  0.4314760000000  0.4691900000000  0.4849620000000 1.0
C      1  0.5688360000000  0.4947850000000  0.4712060000000 1.0
C      1  0.5698800000000  0.4650100000000  0.4948550000000 1.0
C      1  0.5676420000000  0.4934150000000  0.5315480000000 1.0
C      1  0.5679010000000  0.5275490000000  0.5137240000000 1.0
C      1  0.5761620000000  0.5367010000000  0.4832200000000 1.0
C      1  0.4939060000000  0.4842820000000  0.5137750000000 1.0
C      1  0.4834390000000  0.4823550000000  0.4753730000000 1.0
C      1  0.4901620000000  0.5325890000000  0.4746630000000 1.0
C      1  0.4813240000000  0.5306430000000  0.5233210000000 1.0
C      1  0.4742490000000  0.4816480000000  0.5357080000000 1.0
C      1  0.5335430000000  0.5407620000000  0.4935560000000 1.0
C      1  0.5152600000000  0.5178840000000  0.4835490000000 1.0
C      1  0.5167940000000  0.4746220000000  0.4789310000000 1.0
C      1  0.5169150000000  0.4670600000000  0.5226700000000 1.0
C      1  0.5239410000000  0.5147140000000  0.5364170000000 1.0
C      1  0.5350800000000  0.4233820000000  0.5540270000000 1.0
C      1  0.5322440000000  0.4284250000000  0.4395020000000 1.0
C      1  0.5391970000000  0.5285160000000  0.4062270000000 1.0
C      1  0.5416660000000  0.6000560000000  0.4970850000000 1.0
C      1  0.5376040000000  0.5313630000000  0.5878380000000 1.0
C      1  0.4644590000000  0.5743530000000  0.5550300000000 1.0
C      1  0.4708970000000  0.5766430000000  0.4425750000000 1.0
C      1  0.4702680000000  0.4636420000000  0.4146930000000 1.0
C      1  0.4654740000000  0.3924120000000  0.4982820000000 1.0
C      1  0.4610000000000  0.4648690000000  0.5865650000000 1.0
C      1  0.6028550000000  0.5240010000000  0.4867080000000 1.0
C      1  0.6055390000000  0.5199820000000  0.5155240000000 1.0
C      1  0.5953770000000  0.4940190000000  0.5234740000000 1.0
C      1  0.5970860000000  0.4763800000000  0.4994020000000 1.0
C      1  0.5980330000000  0.4962710000000  0.4761720000000 1.0
C      1  0.4038300000000  0.4775930000000  0.4887120000000 1.0
C      1  0.3980740000000  0.4797710000000  0.5182970000000 1.0
C      1  0.4027150000000  0.5090380000000  0.5249060000000 1.0
C      1  0.4056350000000  0.5238270000000  0.4988070000000 1.0
C      1  0.3971720000000  0.5041540000000  0.4780450000000 1.0
C      1  0.5594030000000  0.4694650000000  0.4326120000000 1.0
C      1  0.5700320000000  0.5539110000000  0.4351370000000 1.0
C      1  0.5651570000000  0.5746600000000  0.5291980000000 1.0
C      1  0.5593880000000  0.4902850000000  0.5786810000000 1.0
C      1  0.5573700000000  0.4214010000000  0.5119470000000 1.0
C      1  0.4478520000000  0.5356110000000  0.4353100000000 1.0
C      1  0.4391650000000  0.4433360000000  0.4460680000000 1.0
C      1  0.4354100000000  0.4198270000000  0.5254940000000 1.0
C      1  0.4421160000000  0.5083150000000  0.5832000000000 1.0
C      1  0.4420020000000  0.5722180000000  0.5127450000000 1.0
C      1  0.5301990000000  0.5875080000000  0.4753310000000 1.0
C      1  0.5276630000000  0.5503240000000  0.5702410000000 1.0
C      1  0.5230850000000  0.4450600000000  0.5664790000000 1.0
C      1  0.5177940000000  0.4255470000000  0.4631470000000 1.0
C      1  0.5206650000000  0.5115340000000  0.4194080000000 1.0
C      1  0.4734340000000  0.4076050000000  0.4763090000000 1.0
C      1  0.4718880000000  0.4462380000000  0.5691910000000 1.0
C      1  0.4767170000000  0.5526050000000  0.5671940000000 1.0
C      1  0.4804180000000  0.5811210000000  0.4682760000000 1.0
C      1  0.4834400000000  0.4871590000000  0.4208170000000 1.0
C      1  0.5130230000000  0.4390500000000  0.5136290000000 1.0
C      1  0.5150000000000  0.4735630000000  0.4476920000000 1.0
C      1  0.5232590000000  0.5474210000000  0.4455330000000 1.0
C      1  0.5220250000000  0.5586580000000  0.5168260000000 1.0
C      1  0.5160940000000  0.4977120000000  0.5602100000000 1.0
C      1  0.4871570000000  0.5587660000000  0.5148030000000 1.0
C      1  0.4938070000000  0.5338630000000  0.4457510000000 1.0
C      1  0.4838290000000  0.4532740000000  0.4619620000000 1.0
C      1  0.4807020000000  0.4345650000000  0.5191240000000 1.0
C      1  0.4825550000000  0.4988070000000  0.5597930000000 1.0
C      1  0.5274840000000  0.4703730000000  0.5505920000000 1.0
C      1  0.5251810000000  0.4444810000000  0.4852420000000 1.0
C      1  0.5268690000000  0.5033310000000  0.4488360000000 1.0
C      1  0.5376860000000  0.5589530000000  0.4695850000000 1.0
C      1  0.5329080000000  0.5426060000000  0.5415900000000 1.0
C      1  0.4714080000000  0.5271090000000  0.5517040000000 1.0
C      1  0.4767320000000  0.5570650000000  0.4859730000000 1.0
C      1  0.4779920000000  0.5007800000000  0.4471040000000 1.0
C      1  0.4678000000000  0.4359360000000  0.4823840000000 1.0
C      1  0.4670320000000  0.4530610000000  0.5402730000000 1.0
C      1  0.5567550000000  0.4781710000000  0.5533870000000 1.0
C      1  0.5545440000000  0.4408440000000  0.4920400000000 1.0
C      1  0.5557740000000  0.4938880000000  0.4463500000000 1.0
C      1  0.5663920000000  0.5560970000000  0.4629870000000 1.0
C      1  0.5618480000000  0.5474860000000  0.5352330000000 1.0
C      1  0.4421800000000  0.5204590000000  0.5577560000000 1.0
C      1  0.4469420000000  0.5543970000000  0.4913790000000 1.0
C      1  0.4494970000000  0.5101130000000  0.4467550000000 1.0
C      1  0.4398350000000  0.4439160000000  0.4742600000000 1.0
C      1  0.4389220000000  0.4467680000000  0.5331140000000 1.0
C      1  0.5033590000000  0.4963370000000  0.4040800000000 1.0
C      1  0.4992210000000  0.4052890000000  0.4667510000000 1.0
C      1  0.5020630000000  0.5577090000000  0.5759650000000 1.0
C      1  0.5042380000000  0.5944710000000  0.4700980000000 1.0
C      1  0.4977460000000  0.4398960000000  0.5754380000000 1.0
C      1  0.5037770000000  0.5123960000000  0.5144590000000 1.0
END
