TITL C-3578201-9217-371 -4.83276830195017e-06 125000 -884.920663409697 0 0 143 (C1) n - 1
REM
REM in /home/bkarasulu/work/CARBON/AIRSS/Generating-Clusters/EDIP-Nigel-Params/with-SteepDescent/Higher-Symm/SD-CG/HFTN-CG
REM
REM
REM
REM
REM
REM ./C.cell (12c818d87b63d06a65506943cc24bca4)
REM
REM compiler GCC version 9.2.1 20190827 (Red Hat 9.2.1-1)
REM options -cpp -mtune=generic -march=x86-64 -g -O0 -fpre-include=/usr/include/finclude/math-vector-fortran.h
REM seed 366118191 1713864268 493914265 -1264912505 -1713902498 -2018665666 542008283 -530815413 1819722526 1907041956 -1230303896 -2005685178 1903990726 508137608 653540284 1736573841 1394501115 -1172615751 1258586808 421347500 397259165 -1184721294 1430412735 2070781340 168640731 -801889345 -602730179 562794277 1971944159 688571210 1661499824 523479712 548048016
REM
CELL 1.54180   50.00000   50.00000   50.00000   90.00000   90.00000   90.00000
LATT -1
SFAC C  
C      1  0.4942820000000  0.5153290000000  0.5676930000000 1.0
C      1  0.5575520000000  0.5093010000000  0.4745420000000 1.0
C      1  0.4403130000000  0.5135020000000  0.4665490000000 1.0
C      1  0.4170250000000  0.5412550000000  0.5004540000000 1.0
C      1  0.5330600000000  0.5419330000000  0.5697850000000 1.0
C      1  0.5419260000000  0.5351220000000  0.4347270000000 1.0
C      1  0.4646950000000  0.4198360000000  0.4580720000000 1.0
C      1  0.4830710000000  0.4156960000000  0.5529900000000 1.0
C      1  0.5594160000000  0.4153670000000  0.4874870000000 1.0
C      1  0.5851690000000  0.5137160000000  0.4610800000000 1.0
C      1  0.4156210000000  0.5269060000000  0.4536000000000 1.0
C      1  0.4965800000000  0.5252560000000  0.5970390000000 1.0
C      1  0.4868740000000  0.5025070000000  0.3953040000000 1.0
C      1  0.4131430000000  0.4972070000000  0.5662800000000 1.0
C      1  0.5969990000000  0.5019980000000  0.5422170000000 1.0
C      1  0.5094370000000  0.5279880000000  0.5276010000000 1.0
C      1  0.5132610000000  0.5252890000000  0.4771570000000 1.0
C      1  0.4686870000000  0.5277510000000  0.4986050000000 1.0
C      1  0.4755120000000  0.5177770000000  0.4498470000000 1.0
C      1  0.4620940000000  0.5168590000000  0.5447770000000 1.0
C      1  0.5506250000000  0.5134660000000  0.5069970000000 1.0
C      1  0.4456010000000  0.4166910000000  0.5067150000000 1.0
C      1  0.5381840000000  0.4138160000000  0.5452630000000 1.0
C      1  0.5204490000000  0.4155820000000  0.4451050000000 1.0
C      1  0.5375910000000  0.4889290000000  0.5687800000000 1.0
C      1  0.5299180000000  0.4866540000000  0.4432470000000 1.0
C      1  0.4285310000000  0.4896290000000  0.5022040000000 1.0
C      1  0.4798210000000  0.4881830000000  0.4417620000000 1.0
C      1  0.4573690000000  0.4867800000000  0.5448190000000 1.0
C      1  0.5551270000000  0.4888860000000  0.5220660000000 1.0
C      1  0.5360890000000  0.4372320000000  0.4334640000000 1.0
C      1  0.4280920000000  0.4398660000000  0.5009090000000 1.0
C      1  0.5413750000000  0.4365560000000  0.5623080000000 1.0
C      1  0.4629490000000  0.4451590000000  0.5267370000000 1.0
C      1  0.5394200000000  0.4474240000000  0.5197470000000 1.0
C      1  0.4991110000000  0.4467750000000  0.4549760000000 1.0
C      1  0.5574230000000  0.5500280000000  0.5562700000000 1.0
C      1  0.5200320000000  0.5458390000000  0.4187830000000 1.0
C      1  0.4167170000000  0.5500080000000  0.5284920000000 1.0
C      1  0.5650350000000  0.5406490000000  0.5265340000000 1.0
C      1  0.4899780000000  0.5396510000000  0.4269470000000 1.0
C      1  0.4362490000000  0.5350740000000  0.5467860000000 1.0
C      1  0.4933910000000  0.4538680000000  0.4084490000000 1.0
C      1  0.4256740000000  0.4508930000000  0.5514800000000 1.0
C      1  0.5830760000000  0.4535150000000  0.5368270000000 1.0
C      1  0.5644370000000  0.4388260000000  0.4422720000000 1.0
C      1  0.4264000000000  0.4505660000000  0.4737610000000 1.0
C      1  0.5175990000000  0.4470780000000  0.5758800000000 1.0
C      1  0.4825170000000  0.4464620000000  0.4811700000000 1.0
C      1  0.4935820000000  0.4467020000000  0.5296660000000 1.0
C      1  0.5249880000000  0.4626060000000  0.4957020000000 1.0
C      1  0.5149970000000  0.5011070000000  0.3966100000000 1.0
C      1  0.3981020000000  0.4962510000000  0.5427920000000 1.0
C      1  0.5870660000000  0.4982220000000  0.5681780000000 1.0
C      1  0.4855810000000  0.5168880000000  0.4767250000000 1.0
C      1  0.4805030000000  0.5220380000000  0.5239130000000 1.0
C      1  0.5208150000000  0.5132830000000  0.5043670000000 1.0
C      1  0.4910230000000  0.5533130000000  0.5899650000000 1.0
C      1  0.5809010000000  0.5443770000000  0.4602650000000 1.0
C      1  0.4261440000000  0.5540210000000  0.4554020000000 1.0
C      1  0.5822860000000  0.4888080000000  0.4395670000000 1.0
C      1  0.4132880000000  0.4907230000000  0.4412070000000 1.0
C      1  0.4938240000000  0.4868040000000  0.5994540000000 1.0
C      1  0.4703170000000  0.4522810000000  0.5851710000000 1.0
C      1  0.5878670000000  0.4573680000000  0.4816210000000 1.0
C      1  0.4418470000000  0.4549070000000  0.4293790000000 1.0
C      1  0.4764830000000  0.5914040000000  0.5453200000000 1.0
C      1  0.5622490000000  0.5734440000000  0.4993320000000 1.0
C      1  0.4713020000000  0.5747420000000  0.4448210000000 1.0
C      1  0.4890070000000  0.5781000000000  0.4231330000000 1.0
C      1  0.4590170000000  0.5712110000000  0.5544230000000 1.0
C      1  0.5708370000000  0.5793120000000  0.5254580000000 1.0
C      1  0.5940020000000  0.5295660000000  0.5304560000000 1.0
C      1  0.4747650000000  0.5287910000000  0.4032020000000 1.0
C      1  0.4235270000000  0.5242910000000  0.5723840000000 1.0
C      1  0.5821620000000  0.5532230000000  0.4877490000000 1.0
C      1  0.4503920000000  0.5528130000000  0.4397900000000 1.0
C      1  0.4665540000000  0.5490850000000  0.5745130000000 1.0
C      1  0.5182480000000  0.6009790000000  0.5216300000000 1.0
C      1  0.5174560000000  0.5984690000000  0.4702430000000 1.0
C      1  0.4708870000000  0.6006880000000  0.4958400000000 1.0
C      1  0.4384910000000  0.5717330000000  0.5314660000000 1.0
C      1  0.5539310000000  0.5775660000000  0.5482010000000 1.0
C      1  0.5172880000000  0.5741310000000  0.4260680000000 1.0
C      1  0.4715850000000  0.5564780000000  0.4974130000000 1.0
C      1  0.5148440000000  0.5566600000000  0.5229940000000 1.0
C      1  0.5141980000000  0.5545380000000  0.4751380000000 1.0
C      1  0.4152700000000  0.4773070000000  0.4681980000000 1.0
C      1  0.5190440000000  0.4738210000000  0.5870020000000 1.0
C      1  0.5794500000000  0.4610560000000  0.4308290000000 1.0
C      1  0.5955600000000  0.4802400000000  0.4972200000000 1.0
C      1  0.4479980000000  0.4766120000000  0.4126650000000 1.0
C      1  0.4503660000000  0.4721820000000  0.5881210000000 1.0
C      1  0.4255790000000  0.5644770000000  0.4837350000000 1.0
C      1  0.5142280000000  0.5637000000000  0.5757790000000 1.0
C      1  0.5592950000000  0.5557810000000  0.4451190000000 1.0
C      1  0.4142540000000  0.4538580000000  0.5239750000000 1.0
C      1  0.5670890000000  0.4530690000000  0.5626300000000 1.0
C      1  0.5239380000000  0.4553300000000  0.4114210000000 1.0
C      1  0.4362410000000  0.5004000000000  0.4245670000000 1.0
C      1  0.4627880000000  0.4972240000000  0.5956050000000 1.0
C      1  0.6018200000000  0.5068760000000  0.4849150000000 1.0
C      1  0.4480120000000  0.5293410000000  0.4180480000000 1.0
C      1  0.4505050000000  0.5249680000000  0.5865400000000 1.0
C      1  0.5999670000000  0.5322890000000  0.5013540000000 1.0
C      1  0.5280330000000  0.5738350000000  0.4548310000000 1.0
C      1  0.4494310000000  0.5760170000000  0.5016900000000 1.0
C      1  0.5241210000000  0.5785140000000  0.5424050000000 1.0
C      1  0.5215800000000  0.5184540000000  0.5562280000000 1.0
C      1  0.5331080000000  0.5154380000000  0.4553590000000 1.0
C      1  0.4379320000000  0.5190170000000  0.4961920000000 1.0
C      1  0.4848960000000  0.4369380000000  0.4300110000000 1.0
C      1  0.4488560000000  0.4340150000000  0.5507230000000 1.0
C      1  0.5681910000000  0.4390290000000  0.5160650000000 1.0
C      1  0.5838150000000  0.4815440000000  0.5247050000000 1.0
C      1  0.4771620000000  0.4800970000000  0.4121900000000 1.0
C      1  0.4351040000000  0.4769570000000  0.5634900000000 1.0
C      1  0.5689650000000  0.4383250000000  0.4716600000000 1.0
C      1  0.4429210000000  0.4403540000000  0.4531840000000 1.0
C      1  0.4907130000000  0.4371510000000  0.5725830000000 1.0
C      1  0.5661500000000  0.4807540000000  0.5752790000000 1.0
C      1  0.5315050000000  0.4843680000000  0.4123920000000 1.0
C      1  0.4047090000000  0.4820540000000  0.5195410000000 1.0
C      1  0.5577720000000  0.4787510000000  0.4585380000000 1.0
C      1  0.4543340000000  0.4819840000000  0.4610870000000 1.0
C      1  0.4856210000000  0.4843030000000  0.5601200000000 1.0
C      1  0.5349540000000  0.4747760000000  0.5410360000000 1.0
C      1  0.5040440000000  0.4761030000000  0.4537380000000 1.0
C      1  0.4537510000000  0.4738890000000  0.5131450000000 1.0
C      1  0.4877090000000  0.6031960000000  0.5217110000000 1.0
C      1  0.5340010000000  0.5959550000000  0.4959780000000 1.0
C      1  0.4855590000000  0.5967620000000  0.4690650000000 1.0
C      1  0.5039590000000  0.4752160000000  0.5351130000000 1.0
C      1  0.5060070000000  0.4851530000000  0.5046470000000 1.0
C      1  0.4732360000000  0.4759700000000  0.4882060000000 1.0
C      1  0.5319950000000  0.4070710000000  0.4939460000000 1.0
C      1  0.4829910000000  0.4033000000000  0.4767740000000 1.0
C      1  0.4929970000000  0.4035790000000  0.5267190000000 1.0
C      1  0.4738770000000  0.4090680000000  0.5038700000000 1.0
C      1  0.5225240000000  0.4065810000000  0.5224160000000 1.0
C      1  0.5121720000000  0.4083240000000  0.4720370000000 1.0
C      1  0.5003380000000  0.5674780000000  0.4984970000000 1.0
C      1  0.5047600000000  0.4400590000000  0.5013730000000 1.0
END
