TITL C-3578196-9646-217 -4.46022124913842e-06 125000 -566.236607178241 0 0 94 (C1) n - 1
REM
REM in /home/bkarasulu/work/CARBON/AIRSS/Generating-Clusters/EDIP-Nigel-Params/with-SteepDescent/Higher-Symm/SD-CG/HFTN-CG
REM
REM
REM
REM
REM
REM ./C.cell (12c818d87b63d06a65506943cc24bca4)
REM
REM compiler GCC version 9.2.1 20190827 (Red Hat 9.2.1-1)
REM options -cpp -mtune=generic -march=x86-64 -g -O0 -fpre-include=/usr/include/finclude/math-vector-fortran.h
REM seed 1211484391 -650376034 1908380016 -2014770622 -1204971682 985140807 -1621197899 274195879 -488864357 1453630513 513567967 -1406245383 1017410561 595580672 513592253 -2043464555 -1002218608 1446237519 -1421204857 513382679 1150747564 1705306794 1828343039 635439771 1867609050 -754704500 -322211791 -1129407690 -580389851 379146419 939363953 1687876699 834350686
REM
CELL 1.54180   50.00000   50.00000   50.00000   90.00000   90.00000   90.00000
LATT -1
SFAC C  
C      1  0.5181430000000  0.5354050000000  0.5691460000000 1.0
C      1  0.5198100000000  0.5894640000000  0.5342470000000 1.0
C      1  0.5188320000000  0.5861530000000  0.4827590000000 1.0
C      1  0.5148050000000  0.5757870000000  0.4370100000000 1.0
C      1  0.5221810000000  0.5181820000000  0.4195740000000 1.0
C      1  0.5156700000000  0.4683540000000  0.4067690000000 1.0
C      1  0.5210460000000  0.4334320000000  0.4452720000000 1.0
C      1  0.5166640000000  0.4062290000000  0.4867860000000 1.0
C      1  0.5191150000000  0.4244060000000  0.5436640000000 1.0
C      1  0.5097800000000  0.4437240000000  0.5903930000000 1.0
C      1  0.5095650000000  0.4983280000000  0.5990720000000 1.0
C      1  0.4817140000000  0.5005440000000  0.5948010000000 1.0
C      1  0.4916990000000  0.5461750000000  0.5757300000000 1.0
C      1  0.4919940000000  0.5846360000000  0.5364250000000 1.0
C      1  0.4900050000000  0.5894540000000  0.4851650000000 1.0
C      1  0.4871160000000  0.5697260000000  0.4382570000000 1.0
C      1  0.4946300000000  0.5230480000000  0.4126260000000 1.0
C      1  0.4882340000000  0.4716140000000  0.4099250000000 1.0
C      1  0.4923480000000  0.4314250000000  0.4420210000000 1.0
C      1  0.4889290000000  0.4102270000000  0.4890460000000 1.0
C      1  0.4908830000000  0.4230490000000  0.5388720000000 1.0
C      1  0.4840360000000  0.4510750000000  0.5807490000000 1.0
C      1  0.5693800000000  0.4822860000000  0.5422340000000 1.0
C      1  0.5720690000000  0.5092940000000  0.5405540000000 1.0
C      1  0.5663900000000  0.5358220000000  0.5327600000000 1.0
C      1  0.5732010000000  0.5454610000000  0.5071680000000 1.0
C      1  0.5617720000000  0.5490400000000  0.4816060000000 1.0
C      1  0.5672620000000  0.5286400000000  0.4627970000000 1.0
C      1  0.5602000000000  0.5034720000000  0.4519090000000 1.0
C      1  0.5708520000000  0.4793070000000  0.4626990000000 1.0
C      1  0.5607880000000  0.4569150000000  0.4770980000000 1.0
C      1  0.5634690000000  0.4543730000000  0.5054240000000 1.0
C      1  0.5591790000000  0.4577160000000  0.5334290000000 1.0
C      1  0.5042480000000  0.5538710000000  0.5068560000000 1.0
C      1  0.4916710000000  0.5386900000000  0.4821370000000 1.0
C      1  0.5044210000000  0.5327530000000  0.4559240000000 1.0
C      1  0.4957710000000  0.5015870000000  0.4511820000000 1.0
C      1  0.5065540000000  0.4723690000000  0.4504680000000 1.0
C      1  0.4949150000000  0.4674140000000  0.4792560000000 1.0
C      1  0.5062780000000  0.4514150000000  0.5033070000000 1.0
C      1  0.5135810000000  0.4684800000000  0.5292540000000 1.0
C      1  0.5028940000000  0.4911880000000  0.5490410000000 1.0
C      1  0.5118120000000  0.5216470000000  0.5434590000000 1.0
C      1  0.4915440000000  0.5409890000000  0.5317730000000 1.0
C      1  0.5265330000000  0.5540440000000  0.4510010000000 1.0
C      1  0.5417570000000  0.5000920000000  0.4297360000000 1.0
C      1  0.5353360000000  0.4728630000000  0.4254550000000 1.0
C      1  0.5362460000000  0.4441860000000  0.4675340000000 1.0
C      1  0.5273640000000  0.4321310000000  0.4924940000000 1.0
C      1  0.5311670000000  0.4510820000000  0.5456420000000 1.0
C      1  0.5274040000000  0.4594880000000  0.5747920000000 1.0
C      1  0.5190670000000  0.4874340000000  0.5746030000000 1.0
C      1  0.5409490000000  0.5474570000000  0.5406490000000 1.0
C      1  0.5294090000000  0.5665550000000  0.5209380000000 1.0
C      1  0.5359650000000  0.5631540000000  0.4771480000000 1.0
C      1  0.4236030000000  0.4789640000000  0.4943430000000 1.0
C      1  0.4273840000000  0.4540200000000  0.5104360000000 1.0
C      1  0.4285020000000  0.4608030000000  0.5398740000000 1.0
C      1  0.4171880000000  0.4856800000000  0.5458170000000 1.0
C      1  0.4254970000000  0.5121290000000  0.5470130000000 1.0
C      1  0.4151760000000  0.5296720000000  0.5279880000000 1.0
C      1  0.4233200000000  0.5453970000000  0.5064360000000 1.0
C      1  0.4135290000000  0.5392600000000  0.4812160000000 1.0
C      1  0.4224240000000  0.5264380000000  0.4582830000000 1.0
C      1  0.4127610000000  0.5007300000000  0.4535430000000 1.0
C      1  0.4231910000000  0.4771900000000  0.4646560000000 1.0
C      1  0.4518850000000  0.4735340000000  0.4549580000000 1.0
C      1  0.4679730000000  0.4554830000000  0.4748610000000 1.0
C      1  0.4576550000000  0.4483230000000  0.5037300000000 1.0
C      1  0.4590440000000  0.4614150000000  0.5405670000000 1.0
C      1  0.4712000000000  0.4879900000000  0.5537410000000 1.0
C      1  0.4551910000000  0.5153080000000  0.5493090000000 1.0
C      1  0.4659860000000  0.5297030000000  0.5246370000000 1.0
C      1  0.4527490000000  0.5504870000000  0.5064590000000 1.0
C      1  0.4646250000000  0.5484010000000  0.4768860000000 1.0
C      1  0.4518550000000  0.5287440000000  0.4549400000000 1.0
C      1  0.4655130000000  0.5011070000000  0.4468390000000 1.0
C      1  0.4717270000000  0.5241770000000  0.5793840000000 1.0
C      1  0.4824620000000  0.5677560000000  0.5581070000000 1.0
C      1  0.4766210000000  0.5809320000000  0.5108740000000 1.0
C      1  0.4733210000000  0.5752780000000  0.4644950000000 1.0
C      1  0.4783760000000  0.5425010000000  0.4293730000000 1.0
C      1  0.4781100000000  0.4989260000000  0.4108520000000 1.0
C      1  0.4772980000000  0.4550510000000  0.4315490000000 1.0
C      1  0.4767970000000  0.4205230000000  0.4643070000000 1.0
C      1  0.4844080000000  0.4309450000000  0.5105830000000 1.0
C      1  0.4730590000000  0.4394790000000  0.5559700000000 1.0
C      1  0.4691400000000  0.4748900000000  0.5896570000000 1.0
C      1  0.4724800000000  0.4888810000000  0.5100500000000 1.0
C      1  0.5228680000000  0.5039410000000  0.5047450000000 1.0
C      1  0.5474800000000  0.5006520000000  0.4945040000000 1.0
C      1  0.5736970000000  0.5036430000000  0.4977860000000 1.0
C      1  0.4959390000000  0.5022360000000  0.5065010000000 1.0
C      1  0.4475750000000  0.4921390000000  0.5000950000000 1.0
END
