TITL C-3578202-4305-423 -2.93573945487956e-07 125000 -168.828722326945 0 0 30 (C1) n - 1
REM
REM in /home/bkarasulu/work/CARBON/AIRSS/Generating-Clusters/EDIP-Nigel-Params/with-SteepDescent/Higher-Symm/SD-CG/HFTN-CG
REM
REM
REM
REM
REM
REM ./C.cell (12c818d87b63d06a65506943cc24bca4)
REM
REM compiler GCC version 9.2.1 20190827 (Red Hat 9.2.1-1)
REM options -cpp -mtune=generic -march=x86-64 -g -O0 -fpre-include=/usr/include/finclude/math-vector-fortran.h
REM seed -734633988 -578033034 -135253696 -1177917515 -1132567001 -1332052723 -953824080 487312855 897732463 -966519859 -1589976583 1511467994 1674508427 2000983734 -1160708237 848790204 -423890391 -1929003210 -2046541368 1508021117 1497802139 -1593948261 869233648 -1646143788 1878397990 1284980075 1133144950 -1418428638 655616404 -1478525366 -779853308 1781190789 1955152456
REM
CELL 1.54180   50.00000   50.00000   50.00000   90.00000   90.00000   90.00000
LATT -1
SFAC C  
C      1  0.5458520000000  0.4957280000000  0.4600190000000 1.0
C      1  0.5076390000000  0.4388420000000  0.4667170000000 1.0
C      1  0.4446290000000  0.5038090000000  0.4548090000000 1.0
C      1  0.5009380000000  0.5600130000000  0.4764670000000 1.0
C      1  0.5405730000000  0.5042220000000  0.5331010000000 1.0
C      1  0.5242350000000  0.5678960000000  0.5366560000000 1.0
C      1  0.4469490000000  0.4937510000000  0.5276320000000 1.0
C      1  0.4967050000000  0.4443970000000  0.5358890000000 1.0
C      1  0.4871810000000  0.4673950000000  0.5225110000000 1.0
C      1  0.4728880000000  0.4884850000000  0.5350820000000 1.0
C      1  0.5167660000000  0.5425380000000  0.5448300000000 1.0
C      1  0.5164510000000  0.5153130000000  0.5402910000000 1.0
C      1  0.5047640000000  0.5363620000000  0.4635090000000 1.0
C      1  0.4718030000000  0.5030190000000  0.4579620000000 1.0
C      1  0.5106710000000  0.4633900000000  0.4571780000000 1.0
C      1  0.5180920000000  0.4895890000000  0.4607330000000 1.0
C      1  0.5574230000000  0.5187290000000  0.4703350000000 1.0
C      1  0.5074500000000  0.4218320000000  0.4870230000000 1.0
C      1  0.4279370000000  0.4833140000000  0.4632530000000 1.0
C      1  0.4895740000000  0.5616330000000  0.5012630000000 1.0
C      1  0.5596600000000  0.5004910000000  0.5150240000000 1.0
C      1  0.5381980000000  0.5703750000000  0.5123020000000 1.0
C      1  0.4283220000000  0.4980510000000  0.5092120000000 1.0
C      1  0.4865040000000  0.4190360000000  0.5307120000000 1.0
C      1  0.4197720000000  0.5006080000000  0.4833760000000 1.0
C      1  0.5105950000000  0.5800870000000  0.5088430000000 1.0
C      1  0.5692220000000  0.5025150000000  0.4895260000000 1.0
C      1  0.5083770000000  0.4161220000000  0.5137960000000 1.0
C      1  0.4983080000000  0.5100700000000  0.4587200000000 1.0
C      1  0.4939310000000  0.5054130000000  0.5261410000000 1.0
END
