TITL C-3578197-9521-668 -2.73528211636422e-07 125000 -327.494766583303 0 0 54 (C1) n - 1
REM
REM in /home/bkarasulu/work/CARBON/AIRSS/Generating-Clusters/EDIP-Nigel-Params/with-SteepDescent/Higher-Symm/SD-CG/HFTN-CG
REM
REM
REM
REM
REM
REM ./C.cell (12c818d87b63d06a65506943cc24bca4)
REM
REM compiler GCC version 9.2.1 20190827 (Red Hat 9.2.1-1)
REM options -cpp -mtune=generic -march=x86-64 -g -O0 -fpre-include=/usr/include/finclude/math-vector-fortran.h
REM seed 1593626558 -2010354973 1885638605 -371573472 -2028306334 1840082601 543636400 -649511739 1950605678 -2107686902 934007383 1031732865 1829337444 1990717183 -677370178 -2020319282 2038954023 -319806951 -1163572274 146991998 -849101019 1114544093 -1501574651 1584869801 812587045 843828307 -15265853 2132190345 1639335897 -455649244 856753065 655835256 -21773465
REM
CELL 1.54180   50.00000   50.00000   50.00000   90.00000   90.00000   90.00000
LATT -1
SFAC C  
C      1  0.4872910000000  0.4485610000000  0.5476830000000 1.0
C      1  0.5072820000000  0.4476610000000  0.5263680000000 1.0
C      1  0.5083580000000  0.5695110000000  0.5132330000000 1.0
C      1  0.5124940000000  0.5516330000000  0.5346760000000 1.0
C      1  0.4997500000000  0.5359290000000  0.4450830000000 1.0
C      1  0.4314130000000  0.4876720000000  0.5041620000000 1.0
C      1  0.4717940000000  0.4665190000000  0.4880300000000 1.0
C      1  0.5494900000000  0.5243030000000  0.4826630000000 1.0
C      1  0.4714550000000  0.5152900000000  0.4919890000000 1.0
C      1  0.5460940000000  0.4838390000000  0.4418500000000 1.0
C      1  0.4538890000000  0.5407010000000  0.4559280000000 1.0
C      1  0.4500280000000  0.5146340000000  0.4701960000000 1.0
C      1  0.4732730000000  0.4968770000000  0.5312520000000 1.0
C      1  0.4247560000000  0.5317450000000  0.5058470000000 1.0
C      1  0.4929220000000  0.5515250000000  0.5541800000000 1.0
C      1  0.4690830000000  0.5586970000000  0.4751780000000 1.0
C      1  0.4879540000000  0.5120160000000  0.5790380000000 1.0
C      1  0.5671170000000  0.4792530000000  0.5120210000000 1.0
C      1  0.4582000000000  0.5204550000000  0.5425010000000 1.0
C      1  0.4753640000000  0.5323740000000  0.5641840000000 1.0
C      1  0.5226400000000  0.5245970000000  0.5260090000000 1.0
C      1  0.5235840000000  0.5300650000000  0.4314480000000 1.0
C      1  0.4256710000000  0.5101180000000  0.4882110000000 1.0
C      1  0.5239530000000  0.4746690000000  0.4594610000000 1.0
C      1  0.4650580000000  0.4317810000000  0.5457510000000 1.0
C      1  0.4608930000000  0.4887610000000  0.5050770000000 1.0
C      1  0.5184680000000  0.4346460000000  0.4777570000000 1.0
C      1  0.4632110000000  0.4394030000000  0.4944010000000 1.0
C      1  0.5414470000000  0.5098330000000  0.4315970000000 1.0
C      1  0.4688800000000  0.5512630000000  0.5041180000000 1.0
C      1  0.5520590000000  0.4976740000000  0.5519220000000 1.0
C      1  0.5090390000000  0.4498760000000  0.4547730000000 1.0
C      1  0.5445070000000  0.4434540000000  0.4840260000000 1.0
C      1  0.4796870000000  0.4744940000000  0.4593650000000 1.0
C      1  0.4602490000000  0.4959880000000  0.4482990000000 1.0
C      1  0.5674160000000  0.4833910000000  0.4628910000000 1.0
C      1  0.5154100000000  0.5563470000000  0.4892220000000 1.0
C      1  0.5041840000000  0.4968920000000  0.5375350000000 1.0
C      1  0.4732790000000  0.5280780000000  0.4350920000000 1.0
C      1  0.4559490000000  0.4325840000000  0.5203410000000 1.0
C      1  0.5026750000000  0.4914660000000  0.5671890000000 1.0
C      1  0.4973580000000  0.5579600000000  0.4653010000000 1.0
C      1  0.5205380000000  0.4737990000000  0.5246810000000 1.0
C      1  0.5725040000000  0.5104100000000  0.4725310000000 1.0
C      1  0.5693110000000  0.5092820000000  0.5110660000000 1.0
C      1  0.5001370000000  0.4350600000000  0.5007350000000 1.0
C      1  0.5486000000000  0.4751270000000  0.5345970000000 1.0
C      1  0.4927490000000  0.4652460000000  0.5697260000000 1.0
C      1  0.5514910000000  0.5192660000000  0.5337920000000 1.0
C      1  0.5026960000000  0.4942360000000  0.4605280000000 1.0
C      1  0.5221520000000  0.5277770000000  0.4947480000000 1.0
C      1  0.5583600000000  0.4678080000000  0.4864850000000 1.0
C      1  0.4476610000000  0.5399330000000  0.5204970000000 1.0
C      1  0.5001740000000  0.5095240000000  0.4847680000000 1.0
END
