TITL C-3577078-809-107 -2.45530049339598e-06 125000 -386.467799048893 0 0 62 (C1) n - 1
REM
REM in /home/bkarasulu/work/CARBON/AIRSS/Generating-Clusters/EDIP-Nigel-Params/with-SteepDescent/Higher-Symm/SD-CG/HFTN-CG
REM
REM
REM
REM
REM
REM ./C.cell (12c818d87b63d06a65506943cc24bca4)
REM
REM compiler GCC version 9.2.1 20190827 (Red Hat 9.2.1-1)
REM options -cpp -mtune=generic -march=x86-64 -g -O0 -fpre-include=/usr/include/finclude/math-vector-fortran.h
REM seed 2091628722 1961989978 -675856075 -1268504839 1850547723 -1385537316 -2028597602 -880541880 -530395956 -1558600288 931462397 2025050317 -778810482 -132074596 870945447 -394701785 -1889733502 -493196768 30646626 547400322 -1757492967 -305289818 -1839286001 -1677361403 817284955 -676607024 -1611829478 -655272477 1197604292 736705776 428615753 2019816802 40176089
REM
CELL 1.54180   50.00000   50.00000   50.00000   90.00000   90.00000   90.00000
LATT -1
SFAC C  
C      1  0.5230720000000  0.5651380000000  0.5381920000000 1.0
C      1  0.5439160000000  0.4481840000000  0.5388250000000 1.0
C      1  0.4302160000000  0.4868200000000  0.5393690000000 1.0
C      1  0.5142600000000  0.4556190000000  0.4503000000000 1.0
C      1  0.4559420000000  0.5087490000000  0.4532280000000 1.0
C      1  0.5309320000000  0.5328570000000  0.4504090000000 1.0
C      1  0.5431230000000  0.4618070000000  0.4524230000000 1.0
C      1  0.4475190000000  0.4806550000000  0.4563430000000 1.0
C      1  0.5111770000000  0.5542570000000  0.4548140000000 1.0
C      1  0.4741990000000  0.4424340000000  0.4733350000000 1.0
C      1  0.4662170000000  0.5503650000000  0.4759750000000 1.0
C      1  0.5638480000000  0.5035140000000  0.4699340000000 1.0
C      1  0.5140510000000  0.5621300000000  0.4834130000000 1.0
C      1  0.5508550000000  0.4563010000000  0.4809880000000 1.0
C      1  0.4421340000000  0.4775090000000  0.4855130000000 1.0
C      1  0.5284780000000  0.5100890000000  0.4308930000000 1.0
C      1  0.4946470000000  0.4692600000000  0.4322140000000 1.0
C      1  0.4761140000000  0.5189940000000  0.4334100000000 1.0
C      1  0.5040790000000  0.4388530000000  0.4724950000000 1.0
C      1  0.4498910000000  0.5252730000000  0.4768020000000 1.0
C      1  0.5523070000000  0.5315480000000  0.4711580000000 1.0
C      1  0.4685240000000  0.4601240000000  0.4484440000000 1.0
C      1  0.4822360000000  0.5465610000000  0.4494060000000 1.0
C      1  0.5503240000000  0.4907080000000  0.4451040000000 1.0
C      1  0.5207650000000  0.4865210000000  0.5564450000000 1.0
C      1  0.4725160000000  0.4867060000000  0.5615820000000 1.0
C      1  0.4986450000000  0.5292540000000  0.5610240000000 1.0
C      1  0.4691200000000  0.4598610000000  0.5491610000000 1.0
C      1  0.4781380000000  0.5464670000000  0.5489110000000 1.0
C      1  0.5457710000000  0.4959410000000  0.5453110000000 1.0
C      1  0.5587040000000  0.4832160000000  0.4942010000000 1.0
C      1  0.4615470000000  0.4577090000000  0.4981950000000 1.0
C      1  0.4885690000000  0.5546850000000  0.4987990000000 1.0
C      1  0.4489620000000  0.5034170000000  0.5559100000000 1.0
C      1  0.5256910000000  0.5418080000000  0.5570600000000 1.0
C      1  0.5193090000000  0.4576050000000  0.5532460000000 1.0
C      1  0.5132120000000  0.4713580000000  0.5082300000000 1.0
C      1  0.4767490000000  0.5036480000000  0.5159060000000 1.0
C      1  0.5221860000000  0.5207230000000  0.5081490000000 1.0
C      1  0.4925980000000  0.5644970000000  0.5288980000000 1.0
C      1  0.5587850000000  0.4735870000000  0.5307970000000 1.0
C      1  0.4455280000000  0.4617990000000  0.5318480000000 1.0
C      1  0.5490450000000  0.5254550000000  0.5477330000000 1.0
C      1  0.4949680000000  0.4475260000000  0.5409760000000 1.0
C      1  0.4541800000000  0.5297780000000  0.5431220000000 1.0
C      1  0.4952040000000  0.5171310000000  0.4716910000000 1.0
C      1  0.5202440000000  0.4947070000000  0.4699190000000 1.0
C      1  0.4881460000000  0.4845630000000  0.4717770000000 1.0
C      1  0.5287190000000  0.4292410000000  0.5190380000000 1.0
C      1  0.4244200000000  0.5087470000000  0.5185990000000 1.0
C      1  0.5476750000000  0.5591320000000  0.5190680000000 1.0
C      1  0.5244430000000  0.4470600000000  0.4949750000000 1.0
C      1  0.4473360000000  0.5044630000000  0.4995530000000 1.0
C      1  0.5359850000000  0.5441520000000  0.4954760000000 1.0
C      1  0.4851210000000  0.4776760000000  0.5014050000000 1.0
C      1  0.4941410000000  0.5244900000000  0.5011450000000 1.0
C      1  0.5299650000000  0.4936460000000  0.4981520000000 1.0
C      1  0.5024990000000  0.4224870000000  0.5296580000000 1.0
C      1  0.4295570000000  0.5351140000000  0.5297090000000 1.0
C      1  0.5664700000000  0.5421450000000  0.5326260000000 1.0
C      1  0.4996740000000  0.4994360000000  0.4303350000000 1.0
C      1  0.4954660000000  0.5014430000000  0.5502220000000 1.0
END
