TITL C-3578196-9646-230 -2.90186801395629e-06 125000 -614.604200209644 0 0 95 (C1) n - 1
REM
REM in /home/bkarasulu/work/CARBON/AIRSS/Generating-Clusters/EDIP-Nigel-Params/with-SteepDescent/Higher-Symm/SD-CG/HFTN-CG
REM
REM
REM
REM
REM
REM ./C.cell (12c818d87b63d06a65506943cc24bca4)
REM
REM compiler GCC version 9.2.1 20190827 (Red Hat 9.2.1-1)
REM options -cpp -mtune=generic -march=x86-64 -g -O0 -fpre-include=/usr/include/finclude/math-vector-fortran.h
REM seed 423070077 155023532 1298731283 -1122653881 517110632 1055803210 1307240627 -1516937474 71541626 -1901478062 -1746216460 546821072 249223044 -364437947 1460764678 726094158 -354836999 1091794846 250080264 -782817452 954887908 639495410 -719971161 939599810 1543462332 1410902843 -1668329317 1819535516 -286450467 322546829 238541825 1666960003 323380515
REM
CELL 1.54180   50.00000   50.00000   50.00000   90.00000   90.00000   90.00000
LATT -1
SFAC C  
C      1  0.5645130000000  0.5148870000000  0.5595440000000 1.0
C      1  0.5342720000000  0.4442660000000  0.5586780000000 1.0
C      1  0.4574750000000  0.4508660000000  0.5581050000000 1.0
C      1  0.4401390000000  0.5266060000000  0.5586780000000 1.0
C      1  0.5075980000000  0.5659710000000  0.5577050000000 1.0
C      1  0.4267260000000  0.4640210000000  0.4879510000000 1.0
C      1  0.4435990000000  0.5580930000000  0.4890340000000 1.0
C      1  0.5379900000000  0.5726610000000  0.4876170000000 1.0
C      1  0.5768440000000  0.4906460000000  0.4913960000000 1.0
C      1  0.5120410000000  0.4231110000000  0.4894260000000 1.0
C      1  0.5038210000000  0.4754220000000  0.5848810000000 1.0
C      1  0.4776570000000  0.4894050000000  0.5846000000000 1.0
C      1  0.4830630000000  0.5187070000000  0.5845590000000 1.0
C      1  0.5125150000000  0.5229860000000  0.5846500000000 1.0
C      1  0.5251730000000  0.4961300000000  0.5851340000000 1.0
C      1  0.4360030000000  0.5121750000000  0.5167690000000 1.0
C      1  0.4931250000000  0.5697360000000  0.5126700000000 1.0
C      1  0.5549510000000  0.5247190000000  0.5094650000000 1.0
C      1  0.5597060000000  0.4406860000000  0.5176850000000 1.0
C      1  0.4605560000000  0.4246500000000  0.5173190000000 1.0
C      1  0.5678790000000  0.4685200000000  0.4753570000000 1.0
C      1  0.4885180000000  0.4251530000000  0.4734390000000 1.0
C      1  0.4187100000000  0.4871240000000  0.4709110000000 1.0
C      1  0.4649470000000  0.5705800000000  0.4726050000000 1.0
C      1  0.5556880000000  0.5573300000000  0.4703900000000 1.0
C      1  0.4462440000000  0.5349350000000  0.4468230000000 1.0
C      1  0.5162980000000  0.5662390000000  0.4452210000000 1.0
C      1  0.5651100000000  0.5055410000000  0.4468570000000 1.0
C      1  0.5249710000000  0.4393900000000  0.4451210000000 1.0
C      1  0.4484460000000  0.4576810000000  0.4457750000000 1.0
C      1  0.5771660000000  0.5129390000000  0.4729930000000 1.0
C      1  0.5349270000000  0.4294730000000  0.4725130000000 1.0
C      1  0.4409770000000  0.4443640000000  0.4715100000000 1.0
C      1  0.4313190000000  0.5374030000000  0.4721340000000 1.0
C      1  0.5145930000000  0.5811260000000  0.4712250000000 1.0
C      1  0.5179350000000  0.4824110000000  0.4175110000000 1.0
C      1  0.4881230000000  0.4778050000000  0.4168230000000 1.0
C      1  0.4735220000000  0.5038230000000  0.4148520000000 1.0
C      1  0.4958370000000  0.5234720000000  0.4221290000000 1.0
C      1  0.5233700000000  0.5117620000000  0.4175450000000 1.0
C      1  0.5818410000000  0.5102850000000  0.5375170000000 1.0
C      1  0.5366840000000  0.4293440000000  0.5328630000000 1.0
C      1  0.4433470000000  0.4433660000000  0.5328080000000 1.0
C      1  0.4278240000000  0.5430100000000  0.5373180000000 1.0
C      1  0.5150390000000  0.5798830000000  0.5313240000000 1.0
C      1  0.4918330000000  0.5546020000000  0.4312570000000 1.0
C      1  0.5395140000000  0.5207160000000  0.4416980000000 1.0
C      1  0.5316280000000  0.4688730000000  0.4410500000000 1.0
C      1  0.4758790000000  0.4533230000000  0.4317840000000 1.0
C      1  0.4472800000000  0.5082440000000  0.4309200000000 1.0
C      1  0.4838370000000  0.4369550000000  0.5582380000000 1.0
C      1  0.4348820000000  0.4965270000000  0.5582200000000 1.0
C      1  0.4776410000000  0.5612400000000  0.5569830000000 1.0
C      1  0.5512940000000  0.5411500000000  0.5568190000000 1.0
C      1  0.5554570000000  0.4653950000000  0.5587960000000 1.0
C      1  0.4228770000000  0.4897790000000  0.5314800000000 1.0
C      1  0.4685120000000  0.5694510000000  0.5298920000000 1.0
C      1  0.5567860000000  0.5495260000000  0.5286640000000 1.0
C      1  0.5700940000000  0.4635210000000  0.5331290000000 1.0
C      1  0.4860970000000  0.4219020000000  0.5326510000000 1.0
C      1  0.4584680000000  0.4950800000000  0.4856720000000 1.0
C      1  0.5006000000000  0.5409950000000  0.5041880000000 1.0
C      1  0.5269740000000  0.5305330000000  0.4908190000000 1.0
C      1  0.5276960000000  0.4645640000000  0.4882000000000 1.0
C      1  0.4755770000000  0.4648060000000  0.4876260000000 1.0
C      1  0.4619990000000  0.4284790000000  0.4867890000000 1.0
C      1  0.4235010000000  0.5131360000000  0.4870740000000 1.0
C      1  0.4886720000000  0.5834190000000  0.4859720000000 1.0
C      1  0.5760850000000  0.5402120000000  0.4811630000000 1.0
C      1  0.5593530000000  0.4423130000000  0.4873630000000 1.0
C      1  0.4885030000000  0.4750820000000  0.4609070000000 1.0
C      1  0.4730100000000  0.5016830000000  0.4588640000000 1.0
C      1  0.4937520000000  0.5232930000000  0.4548910000000 1.0
C      1  0.5207850000000  0.5133890000000  0.4648110000000 1.0
C      1  0.5177780000000  0.4811760000000  0.4648210000000 1.0
C      1  0.5230950000000  0.5057780000000  0.5194660000000 1.0
C      1  0.5162230000000  0.4778800000000  0.5124130000000 1.0
C      1  0.4870960000000  0.4759860000000  0.5130000000000 1.0
C      1  0.4737090000000  0.5025320000000  0.5196670000000 1.0
C      1  0.4972030000000  0.5203230000000  0.5231340000000 1.0
C      1  0.5116550000000  0.4241970000000  0.5182650000000 1.0
C      1  0.4308180000000  0.4651510000000  0.5174410000000 1.0
C      1  0.4462470000000  0.5551450000000  0.5184160000000 1.0
C      1  0.5409830000000  0.5729490000000  0.5177480000000 1.0
C      1  0.5779680000000  0.4885910000000  0.5202080000000 1.0
C      1  0.5604880000000  0.4761810000000  0.4474790000000 1.0
C      1  0.4954050000000  0.4341730000000  0.4461660000000 1.0
C      1  0.4347350000000  0.4839590000000  0.4453270000000 1.0
C      1  0.4662260000000  0.5568550000000  0.4466350000000 1.0
C      1  0.5420820000000  0.5507450000000  0.4448850000000 1.0
C      1  0.5231360000000  0.5421320000000  0.5648960000000 1.0
C      1  0.5473190000000  0.4924070000000  0.5666170000000 1.0
C      1  0.5072050000000  0.4528090000000  0.5664690000000 1.0
C      1  0.4574910000000  0.4792880000000  0.5658110000000 1.0
C      1  0.4674700000000  0.5348490000000  0.5657900000000 1.0
END
