TITL C-3577088-510-211 5.04126318693385e-06 125000 -927.456543678724 0 0 152 (C1) n - 1
REM
REM in /home/bkarasulu/work/CARBON/AIRSS/Generating-Clusters/EDIP-Nigel-Params/with-SteepDescent/Higher-Symm/SD-CG/HFTN-CG
REM
REM
REM
REM
REM
REM ./C.cell (12c818d87b63d06a65506943cc24bca4)
REM
REM compiler GCC version 9.2.1 20190827 (Red Hat 9.2.1-1)
REM options -cpp -mtune=generic -march=x86-64 -g -O0 -fpre-include=/usr/include/finclude/math-vector-fortran.h
REM seed -1724339128 1431816643 892691369 2133814717 -1543995087 1033754001 1887655769 -2121879505 2088656452 751764779 -586939869 866845276 -864716444 -2116023235 831976585 -1008125046 2133668994 -545154656 1263051087 1429183695 299008753 -286059558 2089343124 925022519 -2109153317 817033451 1473145612 -1931209286 1950850976 -831596744 -1440152641 -720881874 1593252287
REM
CELL 1.54180   50.00000   50.00000   50.00000   90.00000   90.00000   90.00000
LATT -1
SFAC C  
C      1  0.4025800000000  0.5157950000000  0.4927710000000 1.0
C      1  0.5977890000000  0.5158760000000  0.5083630000000 1.0
C      1  0.4019710000000  0.4852370000000  0.4923330000000 1.0
C      1  0.5972850000000  0.4853940000000  0.5065370000000 1.0
C      1  0.5412240000000  0.5850610000000  0.4872000000000 1.0
C      1  0.4598050000000  0.5863380000000  0.5128260000000 1.0
C      1  0.5442210000000  0.4138360000000  0.4815040000000 1.0
C      1  0.4550290000000  0.4138030000000  0.5176320000000 1.0
C      1  0.5690310000000  0.4755880000000  0.4590690000000 1.0
C      1  0.4288090000000  0.4753340000000  0.5406210000000 1.0
C      1  0.5708290000000  0.5272990000000  0.4602300000000 1.0
C      1  0.4310640000000  0.5269190000000  0.5405340000000 1.0
C      1  0.4862410000000  0.4623530000000  0.4201660000000 1.0
C      1  0.5132240000000  0.4619890000000  0.5797250000000 1.0
C      1  0.4862380000000  0.5335440000000  0.4189510000000 1.0
C      1  0.5139350000000  0.5335360000000  0.5809110000000 1.0
C      1  0.5474200000000  0.5263170000000  0.4411650000000 1.0
C      1  0.4557250000000  0.5283860000000  0.5592880000000 1.0
C      1  0.5447310000000  0.4737270000000  0.4399190000000 1.0
C      1  0.4520750000000  0.4761210000000  0.5597500000000 1.0
C      1  0.5560720000000  0.5146450000000  0.4153670000000 1.0
C      1  0.4517400000000  0.5168830000000  0.5866900000000 1.0
C      1  0.5486190000000  0.4868460000000  0.4131160000000 1.0
C      1  0.4436880000000  0.4892040000000  0.5851400000000 1.0
C      1  0.5904770000000  0.5368160000000  0.5578350000000 1.0
C      1  0.4096550000000  0.5371000000000  0.4429870000000 1.0
C      1  0.5903440000000  0.4605880000000  0.5543580000000 1.0
C      1  0.4091570000000  0.4607620000000  0.4449580000000 1.0
C      1  0.4216010000000  0.5540890000000  0.5365360000000 1.0
C      1  0.5801200000000  0.5546920000000  0.4602070000000 1.0
C      1  0.4198210000000  0.4480360000000  0.5409600000000 1.0
C      1  0.5785830000000  0.4485490000000  0.4633350000000 1.0
C      1  0.4314940000000  0.5581810000000  0.4799570000000 1.0
C      1  0.5690440000000  0.5583720000000  0.5210690000000 1.0
C      1  0.4310420000000  0.4420320000000  0.4827420000000 1.0
C      1  0.5681540000000  0.4424280000000  0.5164640000000 1.0
C      1  0.5549540000000  0.4828940000000  0.5393030000000 1.0
C      1  0.4445710000000  0.4829340000000  0.4604540000000 1.0
C      1  0.5550000000000  0.5156980000000  0.5407580000000 1.0
C      1  0.4451310000000  0.5157970000000  0.4594640000000 1.0
C      1  0.4571930000000  0.4273880000000  0.4895750000000 1.0
C      1  0.5421720000000  0.4275000000000  0.5096950000000 1.0
C      1  0.4578340000000  0.5737300000000  0.4845300000000 1.0
C      1  0.5425890000000  0.5734940000000  0.5158860000000 1.0
C      1  0.5074240000000  0.5569550000000  0.4864490000000 1.0
C      1  0.4923090000000  0.5569000000000  0.5142960000000 1.0
C      1  0.5111330000000  0.4425280000000  0.4841880000000 1.0
C      1  0.4881570000000  0.4425520000000  0.5152330000000 1.0
C      1  0.4951070000000  0.4185800000000  0.4460020000000 1.0
C      1  0.5041510000000  0.4184670000000  0.5533460000000 1.0
C      1  0.4971410000000  0.5767420000000  0.4423930000000 1.0
C      1  0.5038220000000  0.5772470000000  0.5576600000000 1.0
C      1  0.4732150000000  0.4721160000000  0.4660520000000 1.0
C      1  0.5260200000000  0.4719910000000  0.5338770000000 1.0
C      1  0.4738510000000  0.5270690000000  0.4652910000000 1.0
C      1  0.5265400000000  0.5269110000000  0.5347320000000 1.0
C      1  0.5246500000000  0.6053780000000  0.5224250000000 1.0
C      1  0.4775730000000  0.6054790000000  0.4775830000000 1.0
C      1  0.5240820000000  0.3931210000000  0.5150030000000 1.0
C      1  0.4751220000000  0.3930360000000  0.4841600000000 1.0
C      1  0.4399340000000  0.5401640000000  0.5980760000000 1.0
C      1  0.5549970000000  0.5383690000000  0.3999180000000 1.0
C      1  0.4440850000000  0.4661410000000  0.6015360000000 1.0
C      1  0.5619240000000  0.4649870000000  0.4008740000000 1.0
C      1  0.5548640000000  0.4432990000000  0.4177700000000 1.0
C      1  0.4508130000000  0.4455080000000  0.5830890000000 1.0
C      1  0.5482010000000  0.5581200000000  0.4193190000000 1.0
C      1  0.4483930000000  0.5604850000000  0.5800420000000 1.0
C      1  0.6042010000000  0.4451890000000  0.4755580000000 1.0
C      1  0.3996940000000  0.4436270000000  0.5208820000000 1.0
C      1  0.5989010000000  0.5587190000000  0.4815630000000 1.0
C      1  0.3972830000000  0.5574280000000  0.5217430000000 1.0
C      1  0.5218070000000  0.6052080000000  0.4927860000000 1.0
C      1  0.4801790000000  0.6053190000000  0.5069720000000 1.0
C      1  0.5234350000000  0.3948790000000  0.4859110000000 1.0
C      1  0.4757470000000  0.3947030000000  0.5133200000000 1.0
C      1  0.4804180000000  0.5139510000000  0.4902400000000 1.0
C      1  0.5200400000000  0.5138840000000  0.5097500000000 1.0
C      1  0.4796680000000  0.4858930000000  0.4905210000000 1.0
C      1  0.5194110000000  0.4858310000000  0.5095200000000 1.0
C      1  0.5573730000000  0.4859000000000  0.4870370000000 1.0
C      1  0.4415070000000  0.4845430000000  0.5127690000000 1.0
C      1  0.5582580000000  0.5173990000000  0.4879650000000 1.0
C      1  0.4423640000000  0.5160080000000  0.5124540000000 1.0
C      1  0.4288850000000  0.4727800000000  0.4865460000000 1.0
C      1  0.5703830000000  0.4732390000000  0.5128210000000 1.0
C      1  0.4294290000000  0.5275170000000  0.4856670000000 1.0
C      1  0.5709640000000  0.5279040000000  0.5150620000000 1.0
C      1  0.5230770000000  0.4348440000000  0.5694330000000 1.0
C      1  0.4763280000000  0.4350900000000  0.4299850000000 1.0
C      1  0.5234350000000  0.5610550000000  0.5726730000000 1.0
C      1  0.4770210000000  0.5610430000000  0.4274590000000 1.0
C      1  0.4649260000000  0.4788150000000  0.4081350000000 1.0
C      1  0.5346380000000  0.4784570000000  0.5916270000000 1.0
C      1  0.4645570000000  0.5166180000000  0.4087330000000 1.0
C      1  0.5353290000000  0.5162660000000  0.5912710000000 1.0
C      1  0.5203930000000  0.4846020000000  0.4556230000000 1.0
C      1  0.4783120000000  0.4850350000000  0.5446280000000 1.0
C      1  0.5215420000000  0.5158470000000  0.4558530000000 1.0
C      1  0.4795230000000  0.5160900000000  0.5439800000000 1.0
C      1  0.4416320000000  0.5696250000000  0.5528980000000 1.0
C      1  0.5574210000000  0.5688100000000  0.4454840000000 1.0
C      1  0.4411170000000  0.4337060000000  0.5576510000000 1.0
C      1  0.5606080000000  0.4329390000000  0.4447540000000 1.0
C      1  0.5002370000000  0.5977650000000  0.4626820000000 1.0
C      1  0.5014570000000  0.5982330000000  0.5371430000000 1.0
C      1  0.4983050000000  0.4022590000000  0.4709020000000 1.0
C      1  0.5009060000000  0.4022090000000  0.5283540000000 1.0
C      1  0.4651780000000  0.5730550000000  0.5367630000000 1.0
C      1  0.5354460000000  0.5712200000000  0.4637530000000 1.0
C      1  0.4631370000000  0.4276780000000  0.5404170000000 1.0
C      1  0.5361770000000  0.4278020000000  0.4587810000000 1.0
C      1  0.3742650000000  0.5141730000000  0.5328620000000 1.0
C      1  0.6200740000000  0.5179730000000  0.4634490000000 1.0
C      1  0.3793920000000  0.4852020000000  0.5371830000000 1.0
C      1  0.6260980000000  0.4890920000000  0.4669190000000 1.0
C      1  0.5736400000000  0.5577100000000  0.5500040000000 1.0
C      1  0.4269340000000  0.5575630000000  0.4510010000000 1.0
C      1  0.5728050000000  0.4407780000000  0.5453250000000 1.0
C      1  0.4264860000000  0.4406720000000  0.4538160000000 1.0
C      1  0.6006330000000  0.5120320000000  0.5613140000000 1.0
C      1  0.3993720000000  0.5124260000000  0.4391520000000 1.0
C      1  0.6000190000000  0.4850830000000  0.5604140000000 1.0
C      1  0.3996130000000  0.4854500000000  0.4394070000000 1.0
C      1  0.5505930000000  0.5623390000000  0.5651860000000 1.0
C      1  0.4500750000000  0.5620840000000  0.4358530000000 1.0
C      1  0.5499110000000  0.4352900000000  0.5605650000000 1.0
C      1  0.4494330000000  0.4353420000000  0.4386270000000 1.0
C      1  0.3903960000000  0.5303600000000  0.5152310000000 1.0
C      1  0.6119390000000  0.5335360000000  0.4881820000000 1.0
C      1  0.3871760000000  0.4686620000000  0.5130310000000 1.0
C      1  0.6106960000000  0.4717550000000  0.4840800000000 1.0
C      1  0.4787820000000  0.5289650000000  0.5158050000000 1.0
C      1  0.5216590000000  0.5290980000000  0.4842620000000 1.0
C      1  0.4778040000000  0.4716860000000  0.5164860000000 1.0
C      1  0.5212790000000  0.4716670000000  0.4835710000000 1.0
C      1  0.4418410000000  0.5118120000000  0.4270000000000 1.0
C      1  0.5580680000000  0.5113640000000  0.5730800000000 1.0
C      1  0.4411500000000  0.4825220000000  0.4245970000000 1.0
C      1  0.5584550000000  0.4820610000000  0.5752000000000 1.0
C      1  0.4046400000000  0.4882570000000  0.5523980000000 1.0
C      1  0.5931780000000  0.4869220000000  0.4464230000000 1.0
C      1  0.4069610000000  0.5159250000000  0.5536410000000 1.0
C      1  0.5949860000000  0.5146090000000  0.4481230000000 1.0
C      1  0.5079750000000  0.5176820000000  0.5561050000000 1.0
C      1  0.4925310000000  0.5178540000000  0.4437540000000 1.0
C      1  0.5075700000000  0.4803140000000  0.5562210000000 1.0
C      1  0.4915270000000  0.4806080000000  0.4438540000000 1.0
C      1  0.4808800000000  0.5569690000000  0.4710240000000 1.0
C      1  0.5194440000000  0.5567280000000  0.5291240000000 1.0
C      1  0.4803740000000  0.4426310000000  0.4730820000000 1.0
C      1  0.5189040000000  0.4425640000000  0.5263810000000 1.0
END
