TITL C-3577083-591-634 -5.5105174041454e-07 125000 -915.443677754345 0 0 146 (C1) n - 1
REM
REM in /home/bkarasulu/work/CARBON/AIRSS/Generating-Clusters/EDIP-Nigel-Params/with-SteepDescent/Higher-Symm/SD-CG/HFTN-CG
REM
REM
REM
REM
REM
REM ./C.cell (12c818d87b63d06a65506943cc24bca4)
REM
REM compiler GCC version 9.2.1 20190827 (Red Hat 9.2.1-1)
REM options -cpp -mtune=generic -march=x86-64 -g -O0 -fpre-include=/usr/include/finclude/math-vector-fortran.h
REM seed -1840508095 248038334 -829539049 659619764 -2083549633 -645506252 1276416326 322948469 -25305091 1288755406 511974252 -1967501393 32233493 -1312343477 -403664657 -285101748 1618492547 746534888 -1633345275 1432426327 1294370943 2116314822 -1868672817 1453464271 2098149448 -1087046568 1459111034 -1804285818 1459509834 -797472989 481016477 -2048350524 -1960452564
REM
CELL 1.54180   50.00000   50.00000   50.00000   90.00000   90.00000   90.00000
LATT -1
SFAC C  
C      1  0.4580680000000  0.4553120000000  0.5925500000000 1.0
C      1  0.4659160000000  0.3892430000000  0.5005380000000 1.0
C      1  0.4656280000000  0.4671890000000  0.4028930000000 1.0
C      1  0.4675960000000  0.5856780000000  0.4453100000000 1.0
C      1  0.4696900000000  0.5894110000000  0.5453600000000 1.0
C      1  0.4819880000000  0.3945640000000  0.4758100000000 1.0
C      1  0.4798940000000  0.4915030000000  0.3981540000000 1.0
C      1  0.4839100000000  0.5994220000000  0.4648810000000 1.0
C      1  0.4780440000000  0.5759890000000  0.5697830000000 1.0
C      1  0.4784500000000  0.4355370000000  0.5851890000000 1.0
C      1  0.6289570000000  0.5178120000000  0.5198050000000 1.0
C      1  0.6210070000000  0.4896710000000  0.5241070000000 1.0
C      1  0.6312710000000  0.4757790000000  0.5014290000000 1.0
C      1  0.6240810000000  0.4930920000000  0.4799640000000 1.0
C      1  0.6259270000000  0.5219660000000  0.4906460000000 1.0
C      1  0.4313290000000  0.5615630000000  0.5735960000000 1.0
C      1  0.4318580000000  0.4507850000000  0.5774990000000 1.0
C      1  0.4367950000000  0.4066780000000  0.4812450000000 1.0
C      1  0.4371320000000  0.4927780000000  0.4101990000000 1.0
C      1  0.4426710000000  0.5831660000000  0.4754780000000 1.0
C      1  0.4309490000000  0.5581280000000  0.4611020000000 1.0
C      1  0.4244210000000  0.5601860000000  0.5455640000000 1.0
C      1  0.4219860000000  0.4787940000000  0.5745450000000 1.0
C      1  0.4261360000000  0.4244250000000  0.5042240000000 1.0
C      1  0.4263200000000  0.4771190000000  0.4345360000000 1.0
C      1  0.5601290000000  0.5818430000000  0.5207520000000 1.0
C      1  0.5461570000000  0.5069400000000  0.5735790000000 1.0
C      1  0.5596280000000  0.4258710000000  0.5272410000000 1.0
C      1  0.5610390000000  0.4502820000000  0.4340320000000 1.0
C      1  0.5557590000000  0.5435860000000  0.4351540000000 1.0
C      1  0.5909110000000  0.5217400000000  0.5180350000000 1.0
C      1  0.5901390000000  0.4909680000000  0.5242370000000 1.0
C      1  0.5798120000000  0.4797830000000  0.4984610000000 1.0
C      1  0.5926590000000  0.4959810000000  0.4763780000000 1.0
C      1  0.5954950000000  0.5263490000000  0.4874090000000 1.0
C      1  0.4929180000000  0.4511530000000  0.4589640000000 1.0
C      1  0.4951900000000  0.5306560000000  0.4639780000000 1.0
C      1  0.5151990000000  0.5636760000000  0.4981620000000 1.0
C      1  0.4999570000000  0.4934010000000  0.5454050000000 1.0
C      1  0.4886510000000  0.4458750000000  0.5202990000000 1.0
C      1  0.5119280000000  0.4580440000000  0.4822240000000 1.0
C      1  0.4968420000000  0.5001910000000  0.4709900000000 1.0
C      1  0.5224870000000  0.5430770000000  0.4754640000000 1.0
C      1  0.5000950000000  0.5126060000000  0.5225050000000 1.0
C      1  0.5032500000000  0.4699130000000  0.5083010000000 1.0
C      1  0.4999910000000  0.4110910000000  0.5370210000000 1.0
C      1  0.5028860000000  0.4344750000000  0.4352830000000 1.0
C      1  0.4952150000000  0.5476730000000  0.4235610000000 1.0
C      1  0.5175920000000  0.6142320000000  0.5121350000000 1.0
C      1  0.4924520000000  0.5196820000000  0.5801150000000 1.0
C      1  0.4650690000000  0.4444100000000  0.5010020000000 1.0
C      1  0.4723830000000  0.4892960000000  0.4545110000000 1.0
C      1  0.4742210000000  0.5411210000000  0.4822740000000 1.0
C      1  0.4725070000000  0.5329010000000  0.5362210000000 1.0
C      1  0.4719800000000  0.4804010000000  0.5516060000000 1.0
C      1  0.5027770000000  0.4474820000000  0.5742840000000 1.0
C      1  0.5091290000000  0.4072610000000  0.4759560000000 1.0
C      1  0.5021080000000  0.4943160000000  0.4157570000000 1.0
C      1  0.5126820000000  0.5935070000000  0.4659310000000 1.0
C      1  0.5023030000000  0.5634700000000  0.5606870000000 1.0
C      1  0.4659700000000  0.4400730000000  0.4702350000000 1.0
C      1  0.4692140000000  0.5151660000000  0.4369300000000 1.0
C      1  0.4834700000000  0.5648040000000  0.4994200000000 1.0
C      1  0.4662090000000  0.5287200000000  0.5671840000000 1.0
C      1  0.4701760000000  0.4500020000000  0.5445330000000 1.0
C      1  0.4383990000000  0.4506440000000  0.4372390000000 1.0
C      1  0.4415570000000  0.5489270000000  0.4358550000000 1.0
C      1  0.4375340000000  0.5792100000000  0.5281230000000 1.0
C      1  0.4400300000000  0.4991130000000  0.5862710000000 1.0
C      1  0.4368090000000  0.4172480000000  0.5307100000000 1.0
C      1  0.5150080000000  0.3923860000000  0.5220730000000 1.0
C      1  0.5101800000000  0.4452030000000  0.4100110000000 1.0
C      1  0.5107850000000  0.5709630000000  0.4229500000000 1.0
C      1  0.5103730000000  0.6046390000000  0.5363240000000 1.0
C      1  0.4920530000000  0.4926170000000  0.5940730000000 1.0
C      1  0.5820500000000  0.4510140000000  0.4955750000000 1.0
C      1  0.5812180000000  0.4905950000000  0.4487820000000 1.0
C      1  0.5867960000000  0.5495880000000  0.4690360000000 1.0
C      1  0.5749130000000  0.5416390000000  0.5322180000000 1.0
C      1  0.5740860000000  0.4825210000000  0.5489750000000 1.0
C      1  0.5460120000000  0.4222460000000  0.5020350000000 1.0
C      1  0.5420800000000  0.4720310000000  0.4316130000000 1.0
C      1  0.5416600000000  0.5591210000000  0.4557190000000 1.0
C      1  0.5347740000000  0.5656210000000  0.5250430000000 1.0
C      1  0.5263280000000  0.4869900000000  0.5621510000000 1.0
C      1  0.5518400000000  0.4297250000000  0.4538350000000 1.0
C      1  0.5410680000000  0.5201270000000  0.4274900000000 1.0
C      1  0.5572360000000  0.5890960000000  0.4928900000000 1.0
C      1  0.5392220000000  0.5333620000000  0.5646830000000 1.0
C      1  0.5428800000000  0.4415790000000  0.5459860000000 1.0
C      1  0.5395950000000  0.4685600000000  0.4836690000000 1.0
C      1  0.5352080000000  0.4955900000000  0.4690130000000 1.0
C      1  0.5369710000000  0.5198270000000  0.4868180000000 1.0
C      1  0.5318420000000  0.5138350000000  0.5156480000000 1.0
C      1  0.5391970000000  0.4822290000000  0.5156110000000 1.0
C      1  0.5112050000000  0.5213700000000  0.4241070000000 1.0
C      1  0.5289640000000  0.5997380000000  0.4902440000000 1.0
C      1  0.5127120000000  0.5405470000000  0.5743710000000 1.0
C      1  0.5156940000000  0.4321220000000  0.5526090000000 1.0
C      1  0.5223030000000  0.4184820000000  0.4512150000000 1.0
C      1  0.5849710000000  0.4636130000000  0.4413550000000 1.0
C      1  0.5825800000000  0.5396950000000  0.4429380000000 1.0
C      1  0.5832950000000  0.5676910000000  0.5272640000000 1.0
C      1  0.5732760000000  0.5003850000000  0.5701040000000 1.0
C      1  0.5840990000000  0.4386930000000  0.5208860000000 1.0
C      1  0.4486730000000  0.4711240000000  0.5041030000000 1.0
C      1  0.4501710000000  0.4911280000000  0.4774000000000 1.0
C      1  0.4512430000000  0.5220760000000  0.4898540000000 1.0
C      1  0.4489840000000  0.5203140000000  0.5215050000000 1.0
C      1  0.4483880000000  0.4900140000000  0.5313420000000 1.0
C      1  0.4125000000000  0.5147600000000  0.4605760000000 1.0
C      1  0.4120800000000  0.5476940000000  0.5024380000000 1.0
C      1  0.4097280000000  0.5149210000000  0.5476140000000 1.0
C      1  0.4102430000000  0.4617190000000  0.5310940000000 1.0
C      1  0.4108740000000  0.4617000000000  0.4766950000000 1.0
C      1  0.5515800000000  0.4966290000000  0.4433720000000 1.0
C      1  0.5628570000000  0.5660670000000  0.4751690000000 1.0
C      1  0.5453250000000  0.5377670000000  0.5349370000000 1.0
C      1  0.5465050000000  0.4717130000000  0.5436140000000 1.0
C      1  0.5569250000000  0.4414350000000  0.4820960000000 1.0
C      1  0.4612690000000  0.4113510000000  0.4630520000000 1.0
C      1  0.4616480000000  0.5109110000000  0.4074140000000 1.0
C      1  0.4704910000000  0.5899290000000  0.4889510000000 1.0
C      1  0.4587730000000  0.5553030000000  0.5796160000000 1.0
C      1  0.4672830000000  0.4238420000000  0.5623410000000 1.0
C      1  0.4252430000000  0.5350780000000  0.4789330000000 1.0
C      1  0.4219500000000  0.5350350000000  0.5289910000000 1.0
C      1  0.4203980000000  0.4866060000000  0.5453540000000 1.0
C      1  0.4219730000000  0.4554890000000  0.5038680000000 1.0
C      1  0.4228900000000  0.4865910000000  0.4632590000000 1.0
C      1  0.4306000000000  0.5210820000000  0.4361810000000 1.0
C      1  0.4249630000000  0.5755600000000  0.5013510000000 1.0
C      1  0.4290960000000  0.5230780000000  0.5714300000000 1.0
C      1  0.4314540000000  0.4432480000000  0.5464260000000 1.0
C      1  0.4278000000000  0.4398340000000  0.4627090000000 1.0
C      1  0.5262400000000  0.5812450000000  0.4436190000000 1.0
C      1  0.5198540000000  0.5801270000000  0.5457640000000 1.0
C      1  0.5136730000000  0.4726720000000  0.5853570000000 1.0
C      1  0.5260260000000  0.4020190000000  0.4984890000000 1.0
C      1  0.5192200000000  0.4709700000000  0.4153440000000 1.0
C      1  0.4648230000000  0.4104360000000  0.5208590000000 1.0
C      1  0.4665890000000  0.4597030000000  0.4316370000000 1.0
C      1  0.4705680000000  0.5564090000000  0.4411400000000 1.0
C      1  0.4727930000000  0.5628010000000  0.5276980000000 1.0
C      1  0.4658000000000  0.4827310000000  0.5821120000000 1.0
C      1  0.4894830000000  0.4953220000000  0.5002540000000 1.0
END
