TITL C-3577091-527-687 -6.71273782677693e-07 125000 -609.948175218166 0 0 97 (C1) n - 1
REM
REM in /home/bkarasulu/work/CARBON/AIRSS/Generating-Clusters/EDIP-Nigel-Params/with-SteepDescent/Higher-Symm/SD-CG/HFTN-CG
REM
REM
REM
REM
REM
REM ./C.cell (12c818d87b63d06a65506943cc24bca4)
REM
REM compiler GCC version 9.2.1 20190827 (Red Hat 9.2.1-1)
REM options -cpp -mtune=generic -march=x86-64 -g -O0 -fpre-include=/usr/include/finclude/math-vector-fortran.h
REM seed -1384512738 -365822145 1639817421 679216653 -1355760638 -806603066 1151218432 -198253092 466860179 -1203793260 -786906762 1954936174 2121004131 1743656644 -1345560847 340080048 1685056686 937330839 -2119697983 -850421281 1535327439 1889133095 -135120440 268347627 1796201295 -1465492778 -1640757842 1217920121 912343589 -1996807845 64126848 1540528812 926245736
REM
CELL 1.54180   50.00000   50.00000   50.00000   90.00000   90.00000   90.00000
LATT -1
SFAC C  
C      1  0.5408840000000  0.4902270000000  0.4967950000000 1.0
C      1  0.5170780000000  0.5402910000000  0.4904520000000 1.0
C      1  0.4878260000000  0.5514510000000  0.4876450000000 1.0
C      1  0.4617880000000  0.5290700000000  0.4958320000000 1.0
C      1  0.4654530000000  0.4986900000000  0.5008970000000 1.0
C      1  0.4924630000000  0.4588090000000  0.4866150000000 1.0
C      1  0.5257440000000  0.4619870000000  0.4936820000000 1.0
C      1  0.4369990000000  0.4129650000000  0.5118470000000 1.0
C      1  0.5230410000000  0.3969310000000  0.5205370000000 1.0
C      1  0.5965250000000  0.4540300000000  0.5241960000000 1.0
C      1  0.5784910000000  0.5378420000000  0.5237050000000 1.0
C      1  0.5205630000000  0.5791470000000  0.5251440000000 1.0
C      1  0.4475760000000  0.5897210000000  0.5206510000000 1.0
C      1  0.3991470000000  0.5109460000000  0.5295620000000 1.0
C      1  0.5288240000000  0.4470990000000  0.5215460000000 1.0
C      1  0.5597360000000  0.4888450000000  0.5225690000000 1.0
C      1  0.5332280000000  0.5537630000000  0.5149840000000 1.0
C      1  0.4858560000000  0.5791050000000  0.5020800000000 1.0
C      1  0.4545520000000  0.5395800000000  0.5250360000000 1.0
C      1  0.4387690000000  0.4823370000000  0.5137700000000 1.0
C      1  0.4768340000000  0.4433570000000  0.5120040000000 1.0
C      1  0.4235920000000  0.4984630000000  0.5344910000000 1.0
C      1  0.4646780000000  0.4149090000000  0.5069300000000 1.0
C      1  0.5411990000000  0.4182540000000  0.5177190000000 1.0
C      1  0.5892880000000  0.4804230000000  0.5182740000000 1.0
C      1  0.5621130000000  0.5601250000000  0.5123450000000 1.0
C      1  0.4915470000000  0.5740140000000  0.5319540000000 1.0
C      1  0.4358810000000  0.5642850000000  0.5206250000000 1.0
C      1  0.4520650000000  0.6064190000000  0.4999370000000 1.0
C      1  0.3860490000000  0.5296620000000  0.5153980000000 1.0
C      1  0.4175230000000  0.4248860000000  0.4973330000000 1.0
C      1  0.5072370000000  0.3843140000000  0.5025140000000 1.0
C      1  0.5984070000000  0.4295980000000  0.5130680000000 1.0
C      1  0.6040970000000  0.5329760000000  0.5124410000000 1.0
C      1  0.5205070000000  0.5967350000000  0.4994770000000 1.0
C      1  0.4894300000000  0.4551580000000  0.5570850000000 1.0
C      1  0.5303490000000  0.4834240000000  0.5591760000000 1.0
C      1  0.5404300000000  0.5085570000000  0.5699850000000 1.0
C      1  0.5252690000000  0.5324140000000  0.5600530000000 1.0
C      1  0.4960030000000  0.5290810000000  0.5562890000000 1.0
C      1  0.4648610000000  0.4970330000000  0.5557940000000 1.0
C      1  0.4620450000000  0.4669300000000  0.5532060000000 1.0
C      1  0.6003450000000  0.4892700000000  0.4916180000000 1.0
C      1  0.5649500000000  0.5699830000000  0.4844460000000 1.0
C      1  0.4931280000000  0.6046640000000  0.4731490000000 1.0
C      1  0.4187220000000  0.5628820000000  0.4955860000000 1.0
C      1  0.4170680000000  0.4732290000000  0.4939480000000 1.0
C      1  0.4695000000000  0.4056220000000  0.4788940000000 1.0
C      1  0.5566810000000  0.4125980000000  0.4919590000000 1.0
C      1  0.4578350000000  0.5771570000000  0.4616860000000 1.0
C      1  0.4165360000000  0.5193270000000  0.4759510000000 1.0
C      1  0.4505210000000  0.4520980000000  0.4736910000000 1.0
C      1  0.5109950000000  0.4185430000000  0.4688780000000 1.0
C      1  0.5697310000000  0.4532540000000  0.4786910000000 1.0
C      1  0.5709080000000  0.5220320000000  0.4777010000000 1.0
C      1  0.5281580000000  0.5748570000000  0.4555680000000 1.0
C      1  0.4607470000000  0.5215240000000  0.4462340000000 1.0
C      1  0.4674880000000  0.4930770000000  0.4473890000000 1.0
C      1  0.5054250000000  0.4621450000000  0.4404430000000 1.0
C      1  0.5341860000000  0.4670130000000  0.4444560000000 1.0
C      1  0.5402730000000  0.4964700000000  0.4463810000000 1.0
C      1  0.5175350000000  0.5242840000000  0.4402890000000 1.0
C      1  0.4860570000000  0.5369710000000  0.4404760000000 1.0
C      1  0.4647280000000  0.4797940000000  0.4747660000000 1.0
C      1  0.4942180000000  0.4416680000000  0.4613800000000 1.0
C      1  0.5423230000000  0.4510110000000  0.4696610000000 1.0
C      1  0.5581200000000  0.4969470000000  0.4712460000000 1.0
C      1  0.5306690000000  0.5454360000000  0.4622360000000 1.0
C      1  0.4832760000000  0.5612140000000  0.4586230000000 1.0
C      1  0.4433800000000  0.5311600000000  0.4704980000000 1.0
C      1  0.5979110000000  0.5189300000000  0.4887220000000 1.0
C      1  0.5416070000000  0.5889940000000  0.4780150000000 1.0
C      1  0.4628940000000  0.6039470000000  0.4743040000000 1.0
C      1  0.4030790000000  0.5375490000000  0.4943740000000 1.0
C      1  0.4228800000000  0.4476080000000  0.4816290000000 1.0
C      1  0.4975290000000  0.3947880000000  0.4781710000000 1.0
C      1  0.5815980000000  0.4292380000000  0.4904710000000 1.0
C      1  0.5446090000000  0.4681610000000  0.5385930000000 1.0
C      1  0.5596110000000  0.5167480000000  0.5369900000000 1.0
C      1  0.5335000000000  0.5307280000000  0.5325980000000 1.0
C      1  0.4820810000000  0.5470470000000  0.5370050000000 1.0
C      1  0.4443890000000  0.5157560000000  0.5438640000000 1.0
C      1  0.4536910000000  0.4592560000000  0.5261440000000 1.0
C      1  0.4996310000000  0.4431970000000  0.5318980000000 1.0
C      1  0.5602540000000  0.5460390000000  0.4668730000000 1.0
C      1  0.5010920000000  0.5840380000000  0.4531820000000 1.0
C      1  0.4357780000000  0.5598520000000  0.4701770000000 1.0
C      1  0.4099530000000  0.4926840000000  0.4756640000000 1.0
C      1  0.4664140000000  0.4307300000000  0.4612030000000 1.0
C      1  0.5393620000000  0.4219230000000  0.4685650000000 1.0
C      1  0.5813650000000  0.4781130000000  0.4713730000000 1.0
C      1  0.5146690000000  0.5083950000000  0.4969870000000 1.0
C      1  0.4925240000000  0.4985870000000  0.5159720000000 1.0
C      1  0.5064570000000  0.4737800000000  0.5707290000000 1.0
C      1  0.4927870000000  0.5009560000000  0.5470770000000 1.0
C      1  0.5044940000000  0.4987270000000  0.4724980000000 1.0
C      1  0.4968210000000  0.4912030000000  0.4457750000000 1.0
END
