TITL C-3578203-1966-150 -2.23448674103562e-07 125000 -328.87195050843 0 0 54 (C1) n - 1
REM
REM in /home/bkarasulu/work/CARBON/AIRSS/Generating-Clusters/EDIP-Nigel-Params/with-SteepDescent/Higher-Symm/SD-CG/HFTN-CG
REM
REM
REM
REM
REM
REM ./C.cell (12c818d87b63d06a65506943cc24bca4)
REM
REM compiler GCC version 9.2.1 20190827 (Red Hat 9.2.1-1)
REM options -cpp -mtune=generic -march=x86-64 -g -O0 -fpre-include=/usr/include/finclude/math-vector-fortran.h
REM seed 1500321382 2145789312 -184128581 1123824811 1323747459 556745144 1862579541 -1213121095 1142565291 1961174121 1879037003 543783693 -853878107 -1564599599 479470516 -1327212088 1031354307 250825340 386393317 -1497288712 -1939513311 -107669863 837390327 -545724252 1473477152 -706796954 -1863849070 -557385596 2054430085 1622771156 -2141155006 1353345313 -1783445834
REM
CELL 1.54180   50.00000   50.00000   50.00000   90.00000   90.00000   90.00000
LATT -1
SFAC C  
C      1  0.5270000000000  0.5300560000000  0.5486500000000 1.0
C      1  0.4675950000000  0.5295740000000  0.5528460000000 1.0
C      1  0.5147000000000  0.5197720000000  0.5077830000000 1.0
C      1  0.4829410000000  0.5142060000000  0.5094640000000 1.0
C      1  0.5150200000000  0.4401750000000  0.5199240000000 1.0
C      1  0.4851910000000  0.4396670000000  0.5196430000000 1.0
C      1  0.5569310000000  0.4899960000000  0.5368020000000 1.0
C      1  0.4416140000000  0.4883560000000  0.5356920000000 1.0
C      1  0.4366430000000  0.4796860000000  0.4746930000000 1.0
C      1  0.5635890000000  0.4786650000000  0.4758320000000 1.0
C      1  0.5258660000000  0.4661630000000  0.5084340000000 1.0
C      1  0.4739860000000  0.4652400000000  0.5077960000000 1.0
C      1  0.4312000000000  0.5088730000000  0.4729790000000 1.0
C      1  0.5697110000000  0.5074570000000  0.4737270000000 1.0
C      1  0.5572470000000  0.5317740000000  0.5086450000000 1.0
C      1  0.4423870000000  0.5316130000000  0.5094990000000 1.0
C      1  0.5495190000000  0.5195250000000  0.5342950000000 1.0
C      1  0.4476820000000  0.5183660000000  0.5352710000000 1.0
C      1  0.5149110000000  0.4767530000000  0.4817110000000 1.0
C      1  0.4854980000000  0.4758290000000  0.4812750000000 1.0
C      1  0.5430340000000  0.5172300000000  0.4633560000000 1.0
C      1  0.4584780000000  0.5178510000000  0.4635770000000 1.0
C      1  0.5142790000000  0.5588230000000  0.5050430000000 1.0
C      1  0.4874020000000  0.5519980000000  0.5132210000000 1.0
C      1  0.5394820000000  0.5004130000000  0.4379340000000 1.0
C      1  0.4622200000000  0.5015930000000  0.4376500000000 1.0
C      1  0.4620410000000  0.5509880000000  0.4977510000000 1.0
C      1  0.5407600000000  0.5524290000000  0.4940610000000 1.0
C      1  0.4442510000000  0.4717070000000  0.5098720000000 1.0
C      1  0.5553030000000  0.4726400000000  0.5114840000000 1.0
C      1  0.5236450000000  0.4369830000000  0.5468470000000 1.0
C      1  0.4759920000000  0.4363400000000  0.5463370000000 1.0
C      1  0.4883880000000  0.5579520000000  0.4572260000000 1.0
C      1  0.5150700000000  0.5575290000000  0.4543190000000 1.0
C      1  0.5142340000000  0.4873110000000  0.5262970000000 1.0
C      1  0.4848670000000  0.4871620000000  0.5257320000000 1.0
C      1  0.4807370000000  0.4614100000000  0.4557710000000 1.0
C      1  0.5198660000000  0.4613910000000  0.4565890000000 1.0
C      1  0.4724330000000  0.4843570000000  0.5535370000000 1.0
C      1  0.5260370000000  0.4849830000000  0.5543820000000 1.0
C      1  0.5134890000000  0.5106150000000  0.5643590000000 1.0
C      1  0.4833600000000  0.5096450000000  0.5653180000000 1.0
C      1  0.5463190000000  0.4733110000000  0.4506080000000 1.0
C      1  0.4545380000000  0.4743020000000  0.4495830000000 1.0
C      1  0.4203820000000  0.5225050000000  0.4946900000000 1.0
C      1  0.5798740000000  0.5210650000000  0.4958660000000 1.0
C      1  0.4644870000000  0.5480030000000  0.4678640000000 1.0
C      1  0.5393360000000  0.5478610000000  0.4644110000000 1.0
C      1  0.5143140000000  0.5010620000000  0.4258570000000 1.0
C      1  0.4875520000000  0.5018560000000  0.4259200000000 1.0
C      1  0.5142470000000  0.4582350000000  0.5632680000000 1.0
C      1  0.4844150000000  0.4578810000000  0.5628820000000 1.0
C      1  0.5220470000000  0.5062070000000  0.4815960000000 1.0
C      1  0.4778920000000  0.5046160000000  0.4818330000000 1.0
END
