TITL C-3577080-309-507 -6.16695313563144e-07 125000 -471.262583437732 0 0 77 (C3) n - 1
REM
REM in /home/bkarasulu/work/CARBON/AIRSS/Generating-Clusters/EDIP-Nigel-Params/with-SteepDescent/Higher-Symm/SD-CG/HFTN-CG
REM
REM
REM
REM
REM
REM ./C.cell (12c818d87b63d06a65506943cc24bca4)
REM
REM compiler GCC version 9.2.1 20190827 (Red Hat 9.2.1-1)
REM options -cpp -mtune=generic -march=x86-64 -g -O0 -fpre-include=/usr/include/finclude/math-vector-fortran.h
REM seed -340028597 -68842538 2153171 640580419 -145189267 -1902931714 140850705 225573324 -1766506402 1834089189 72865814 183033533 1543592235 1561010217 638116070 -926343307 642821832 1941072553 -773833720 806692292 -597294702 169593491 -504667572 -1727996276 797008767 1431528709 2106283927 -133338951 -1114676683 1683539047 866186435 1100932909 -534906470
REM
CELL 1.54180   50.00000   50.00000   50.00000   90.00000   90.00000   90.00000
LATT -1
SFAC C  
C      1  0.5708020000000  0.4839930000000  0.4481940000000 1.0
C      1  0.4784710000000  0.5694290000000  0.4483890000000 1.0
C      1  0.4506470000000  0.4467500000000  0.4482590000000 1.0
C      1  0.4292680000000  0.4837640000000  0.5500850000000 1.0
C      1  0.5214700000000  0.5693260000000  0.5501070000000 1.0
C      1  0.5494670000000  0.4466950000000  0.5499250000000 1.0
C      1  0.5087320000000  0.4735820000000  0.5115560000000 1.0
C      1  0.5185410000000  0.5207080000000  0.5116070000000 1.0
C      1  0.4728240000000  0.5056410000000  0.5116300000000 1.0
C      1  0.4913980000000  0.4736080000000  0.4866880000000 1.0
C      1  0.4814510000000  0.5206660000000  0.4867560000000 1.0
C      1  0.5271780000000  0.5057520000000  0.4866950000000 1.0
C      1  0.4552610000000  0.4757030000000  0.5561140000000 1.0
C      1  0.5434540000000  0.4732200000000  0.5560290000000 1.0
C      1  0.5015070000000  0.5508390000000  0.5561660000000 1.0
C      1  0.5448630000000  0.4759120000000  0.4421080000000 1.0
C      1  0.4566030000000  0.4732610000000  0.4421870000000 1.0
C      1  0.4984370000000  0.5510220000000  0.4422470000000 1.0
C      1  0.4480900000000  0.5634560000000  0.5083120000000 1.0
C      1  0.4710280000000  0.4232640000000  0.5081130000000 1.0
C      1  0.5809690000000  0.5132240000000  0.5081250000000 1.0
C      1  0.5521390000000  0.5637620000000  0.4901930000000 1.0
C      1  0.5291650000000  0.4229830000000  0.4900350000000 1.0
C      1  0.4187330000000  0.5132680000000  0.4902530000000 1.0
C      1  0.4656830000000  0.4522340000000  0.5442420000000 1.0
C      1  0.5585630000000  0.4940130000000  0.5442090000000 1.0
C      1  0.4759420000000  0.5535600000000  0.5443610000000 1.0
C      1  0.5344040000000  0.4524070000000  0.4539070000000 1.0
C      1  0.4415060000000  0.4940580000000  0.4540460000000 1.0
C      1  0.5240260000000  0.5536850000000  0.4540450000000 1.0
C      1  0.4935780000000  0.4481810000000  0.5539730000000 1.0
C      1  0.5481300000000  0.5201700000000  0.5540130000000 1.0
C      1  0.4585090000000  0.5314190000000  0.5541110000000 1.0
C      1  0.5065620000000  0.4482900000000  0.4441490000000 1.0
C      1  0.4518370000000  0.5202390000000  0.4442910000000 1.0
C      1  0.5415090000000  0.5316580000000  0.4442220000000 1.0
C      1  0.4189230000000  0.4829950000000  0.5230740000000 1.0
C      1  0.5552970000000  0.4381950000000  0.5228900000000 1.0
C      1  0.5259090000000  0.5786980000000  0.5230960000000 1.0
C      1  0.5809910000000  0.4834710000000  0.4750610000000 1.0
C      1  0.4451670000000  0.4381580000000  0.4751300000000 1.0
C      1  0.4738370000000  0.5784410000000  0.4752810000000 1.0
C      1  0.4726080000000  0.5129140000000  0.4228770000000 1.0
C      1  0.5025140000000  0.4699990000000  0.4227950000000 1.0
C      1  0.5247260000000  0.5173550000000  0.4228340000000 1.0
C      1  0.5274120000000  0.5127730000000  0.5754740000000 1.0
C      1  0.4975840000000  0.4697980000000  0.5754470000000 1.0
C      1  0.4752800000000  0.5171170000000  0.5755280000000 1.0
C      1  0.5791440000000  0.5126860000000  0.4807040000000 1.0
C      1  0.4494610000000  0.5622190000000  0.4808880000000 1.0
C      1  0.4714050000000  0.4251430000000  0.4806930000000 1.0
C      1  0.4207380000000  0.5126440000000  0.5177260000000 1.0
C      1  0.5506650000000  0.5623070000000  0.5176680000000 1.0
C      1  0.5287110000000  0.4249560000000  0.5175140000000 1.0
C      1  0.4575020000000  0.4460870000000  0.5170990000000 1.0
C      1  0.5679700000000  0.4900750000000  0.5170520000000 1.0
C      1  0.4746410000000  0.5637490000000  0.5172330000000 1.0
C      1  0.5424030000000  0.4458870000000  0.4810180000000 1.0
C      1  0.4319270000000  0.4903620000000  0.4811780000000 1.0
C      1  0.5256820000000  0.5637990000000  0.4811830000000 1.0
C      1  0.4643910000000  0.5377880000000  0.4665820000000 1.0
C      1  0.4850950000000  0.4503280000000  0.4664520000000 1.0
C      1  0.5504850000000  0.5119880000000  0.4664690000000 1.0
C      1  0.5355140000000  0.5378560000000  0.5319010000000 1.0
C      1  0.5151470000000  0.4502880000000  0.5318090000000 1.0
C      1  0.4494930000000  0.5117100000000  0.5319480000000 1.0
C      1  0.5025630000000  0.5296560000000  0.5759000000000 1.0
C      1  0.4730840000000  0.4871550000000  0.5758740000000 1.0
C      1  0.5246300000000  0.4828760000000  0.5758200000000 1.0
C      1  0.4974160000000  0.5298470000000  0.4225190000000 1.0
C      1  0.5269860000000  0.4874050000000  0.4224370000000 1.0
C      1  0.4754460000000  0.4830180000000  0.4224800000000 1.0
C      1  0.5638220000000  0.4622670000000  0.4996870000000 1.0
C      1  0.5007920000000  0.5741080000000  0.4998870000000 1.0
C      1  0.4354500000000  0.4636020000000  0.4998080000000 1.0
C      1  0.5000430000000  0.4999620000000  0.5232750000000 1.0
C      1  0.4999980000000  0.5000230000000  0.4750070000000 1.0
END
