TITL C-3577088-510-670 7.16969251741457e-07 125000 -971.808018204405 0 0 154 (C1) n - 1
REM
REM in /home/bkarasulu/work/CARBON/AIRSS/Generating-Clusters/EDIP-Nigel-Params/with-SteepDescent/Higher-Symm/SD-CG/HFTN-CG
REM
REM
REM
REM
REM
REM ./C.cell (12c818d87b63d06a65506943cc24bca4)
REM
REM compiler GCC version 9.2.1 20190827 (Red Hat 9.2.1-1)
REM options -cpp -mtune=generic -march=x86-64 -g -O0 -fpre-include=/usr/include/finclude/math-vector-fortran.h
REM seed -1818062804 1211166739 -249191133 -849369816 -2063917846 -335755826 -1587305202 -663445901 -435728842 153558012 -430323014 1718570936 1911677417 2147113288 1953457586 -2059495000 -197280604 900122266 -1716884232 2026871923 1914880336 -468677000 -307618992 -461997264 -1185446612 -2007258112 -1976873174 1874877823 2003689356 1302417171 -1872659795 2096078456 -960081808
REM
CELL 1.54180   50.00000   50.00000   50.00000   90.00000   90.00000   90.00000
LATT -1
SFAC C  
C      1  0.4181870000000  0.5329120000000  0.4963240000000 1.0
C      1  0.4192650000000  0.5152280000000  0.4720190000000 1.0
C      1  0.4204690000000  0.4857830000000  0.4708990000000 1.0
C      1  0.4165050000000  0.4654720000000  0.4921840000000 1.0
C      1  0.4202120000000  0.4713320000000  0.5229720000000 1.0
C      1  0.4121870000000  0.4978210000000  0.5382220000000 1.0
C      1  0.4161480000000  0.5252940000000  0.5259140000000 1.0
C      1  0.5767550000000  0.5281870000000  0.4917580000000 1.0
C      1  0.5451600000000  0.5107930000000  0.4665230000000 1.0
C      1  0.5699700000000  0.5000860000000  0.4817050000000 1.0
C      1  0.5466430000000  0.4612300000000  0.5034270000000 1.0
C      1  0.5661040000000  0.4850280000000  0.5079270000000 1.0
C      1  0.5641610000000  0.5052410000000  0.5313380000000 1.0
C      1  0.5759740000000  0.5301060000000  0.5207500000000 1.0
C      1  0.5733570000000  0.5621850000000  0.5509740000000 1.0
C      1  0.5666020000000  0.5677780000000  0.4758340000000 1.0
C      1  0.5697770000000  0.5307620000000  0.4236090000000 1.0
C      1  0.5606420000000  0.4694610000000  0.4399950000000 1.0
C      1  0.5652600000000  0.4361320000000  0.4922910000000 1.0
C      1  0.5738070000000  0.4374060000000  0.5514930000000 1.0
C      1  0.5653110000000  0.4988470000000  0.5748640000000 1.0
C      1  0.4345310000000  0.4894260000000  0.4211930000000 1.0
C      1  0.4309840000000  0.4286420000000  0.4570060000000 1.0
C      1  0.4289930000000  0.4193970000000  0.5299810000000 1.0
C      1  0.4288580000000  0.4713400000000  0.5808270000000 1.0
C      1  0.4257410000000  0.5463740000000  0.5737970000000 1.0
C      1  0.4284170000000  0.5813170000000  0.5095610000000 1.0
C      1  0.4266570000000  0.5558130000000  0.4414940000000 1.0
C      1  0.5080250000000  0.5096370000000  0.4049250000000 1.0
C      1  0.5099660000000  0.4384380000000  0.4399830000000 1.0
C      1  0.5090160000000  0.4161540000000  0.5161070000000 1.0
C      1  0.5081090000000  0.4504830000000  0.5825920000000 1.0
C      1  0.5108900000000  0.5273970000000  0.5823240000000 1.0
C      1  0.5105470000000  0.5806770000000  0.5228170000000 1.0
C      1  0.5084060000000  0.5810760000000  0.4426080000000 1.0
C      1  0.6006660000000  0.5536270000000  0.5528270000000 1.0
C      1  0.5944600000000  0.5628410000000  0.4704150000000 1.0
C      1  0.5950580000000  0.5279150000000  0.4354660000000 1.0
C      1  0.5882990000000  0.4729710000000  0.4438520000000 1.0
C      1  0.5925500000000  0.4447680000000  0.4865420000000 1.0
C      1  0.5905300000000  0.4515470000000  0.5337330000000 1.0
C      1  0.5935120000000  0.4997330000000  0.5717010000000 1.0
C      1  0.4419670000000  0.5639650000000  0.4651550000000 1.0
C      1  0.4386050000000  0.5180830000000  0.4212870000000 1.0
C      1  0.4376850000000  0.4481940000000  0.4369950000000 1.0
C      1  0.4416290000000  0.4210080000000  0.5033650000000 1.0
C      1  0.4441090000000  0.4527610000000  0.5627430000000 1.0
C      1  0.4346860000000  0.5189540000000  0.5797880000000 1.0
C      1  0.4420670000000  0.5654580000000  0.5301500000000 1.0
C      1  0.5259040000000  0.5814760000000  0.4964680000000 1.0
C      1  0.5213070000000  0.5549310000000  0.4333020000000 1.0
C      1  0.5194170000000  0.4897380000000  0.4249250000000 1.0
C      1  0.5236120000000  0.4366880000000  0.4674430000000 1.0
C      1  0.5265050000000  0.4292200000000  0.5376480000000 1.0
C      1  0.5223430000000  0.4762290000000  0.5766610000000 1.0
C      1  0.5281820000000  0.5378460000000  0.5591120000000 1.0
C      1  0.6015850000000  0.5321600000000  0.5344060000000 1.0
C      1  0.6027370000000  0.5367840000000  0.4792380000000 1.0
C      1  0.6075370000000  0.5166370000000  0.4582020000000 1.0
C      1  0.5953600000000  0.4893540000000  0.4674880000000 1.0
C      1  0.6051260000000  0.4699450000000  0.4899700000000 1.0
C      1  0.5939760000000  0.4756010000000  0.5182240000000 1.0
C      1  0.6014650000000  0.5030720000000  0.5439150000000 1.0
C      1  0.4706510000000  0.6048460000000  0.5011690000000 1.0
C      1  0.4646380000000  0.5703490000000  0.4122490000000 1.0
C      1  0.4718540000000  0.4763200000000  0.3883400000000 1.0
C      1  0.4713370000000  0.4103750000000  0.4548280000000 1.0
C      1  0.4712190000000  0.4004090000000  0.5465100000000 1.0
C      1  0.4675730000000  0.4731230000000  0.6024820000000 1.0
C      1  0.4742380000000  0.5631250000000  0.5828820000000 1.0
C      1  0.5525360000000  0.4280200000000  0.4657770000000 1.0
C      1  0.5552480000000  0.4187930000000  0.5377570000000 1.0
C      1  0.5514790000000  0.4747730000000  0.5827950000000 1.0
C      1  0.5551900000000  0.5467540000000  0.5691800000000 1.0
C      1  0.5543520000000  0.5789870000000  0.4996280000000 1.0
C      1  0.5520330000000  0.5537310000000  0.4306890000000 1.0
C      1  0.5477240000000  0.4834740000000  0.4180770000000 1.0
C      1  0.4601460000000  0.4661540000000  0.4951980000000 1.0
C      1  0.4490810000000  0.4802540000000  0.5212630000000 1.0
C      1  0.4583090000000  0.5147390000000  0.5335780000000 1.0
C      1  0.4564370000000  0.5417730000000  0.5162370000000 1.0
C      1  0.4609370000000  0.5417120000000  0.4779320000000 1.0
C      1  0.4730400000000  0.5175230000000  0.4600140000000 1.0
C      1  0.4733650000000  0.4845280000000  0.4664000000000 1.0
C      1  0.5205410000000  0.5023390000000  0.4527550000000 1.0
C      1  0.5266830000000  0.4643100000000  0.4795840000000 1.0
C      1  0.5320520000000  0.4575510000000  0.5296560000000 1.0
C      1  0.5209210000000  0.4809690000000  0.5456200000000 1.0
C      1  0.5345280000000  0.5112280000000  0.5377480000000 1.0
C      1  0.5269360000000  0.5226600000000  0.5110360000000 1.0
C      1  0.5393220000000  0.5345250000000  0.4854610000000 1.0
C      1  0.4585510000000  0.5179530000000  0.5632250000000 1.0
C      1  0.4866030000000  0.5509540000000  0.5141840000000 1.0
C      1  0.4861410000000  0.5580350000000  0.4855470000000 1.0
C      1  0.4674310000000  0.5237010000000  0.4308390000000 1.0
C      1  0.4701510000000  0.4695330000000  0.4378720000000 1.0
C      1  0.4713260000000  0.4349370000000  0.5036300000000 1.0
C      1  0.4638970000000  0.4686230000000  0.5455000000000 1.0
C      1  0.4457360000000  0.5638310000000  0.5843590000000 1.0
C      1  0.4426340000000  0.6043270000000  0.5023690000000 1.0
C      1  0.4374760000000  0.5641750000000  0.4169390000000 1.0
C      1  0.4475490000000  0.4741700000000  0.4021840000000 1.0
C      1  0.4440030000000  0.4038740000000  0.4533040000000 1.0
C      1  0.4430000000000  0.4008210000000  0.5458930000000 1.0
C      1  0.4397940000000  0.4737250000000  0.6067570000000 1.0
C      1  0.4860360000000  0.4030820000000  0.4775550000000 1.0
C      1  0.4837000000000  0.4158460000000  0.5666540000000 1.0
C      1  0.4828890000000  0.4966660000000  0.6039480000000 1.0
C      1  0.4841120000000  0.5635430000000  0.5565290000000 1.0
C      1  0.4818030000000  0.5884640000000  0.4795130000000 1.0
C      1  0.4795860000000  0.5499010000000  0.3978800000000 1.0
C      1  0.4880330000000  0.4554710000000  0.4002270000000 1.0
C      1  0.4858890000000  0.5068540000000  0.5300090000000 1.0
C      1  0.4990960000000  0.5244650000000  0.5128740000000 1.0
C      1  0.5134750000000  0.5477370000000  0.4705530000000 1.0
C      1  0.5020050000000  0.5236700000000  0.4574690000000 1.0
C      1  0.5007850000000  0.4782070000000  0.4840840000000 1.0
C      1  0.4935790000000  0.4620830000000  0.5086630000000 1.0
C      1  0.4919670000000  0.4788970000000  0.5349630000000 1.0
C      1  0.4273310000000  0.4387120000000  0.4841700000000 1.0
C      1  0.4234110000000  0.4458160000000  0.5415580000000 1.0
C      1  0.4179590000000  0.4963330000000  0.5681710000000 1.0
C      1  0.4214440000000  0.5487750000000  0.5443500000000 1.0
C      1  0.4228350000000  0.5617900000000  0.4885980000000 1.0
C      1  0.4211160000000  0.5277570000000  0.4445390000000 1.0
C      1  0.4269990000000  0.4748660000000  0.4444660000000 1.0
C      1  0.4615060000000  0.5872520000000  0.4579810000000 1.0
C      1  0.4627530000000  0.5257320000000  0.3921250000000 1.0
C      1  0.4679700000000  0.4371360000000  0.4152360000000 1.0
C      1  0.4691100000000  0.3950760000000  0.4992800000000 1.0
C      1  0.4642380000000  0.4302320000000  0.5826440000000 1.0
C      1  0.4666140000000  0.5203820000000  0.6012340000000 1.0
C      1  0.4657410000000  0.5808990000000  0.5429270000000 1.0
C      1  0.4831160000000  0.5036490000000  0.3894320000000 1.0
C      1  0.4856660000000  0.4221470000000  0.4334380000000 1.0
C      1  0.4864430000000  0.3982950000000  0.5222690000000 1.0
C      1  0.4816030000000  0.4492980000000  0.5958170000000 1.0
C      1  0.4871540000000  0.5406130000000  0.5955020000000 1.0
C      1  0.4837480000000  0.5941730000000  0.5242710000000 1.0
C      1  0.4789630000000  0.5808670000000  0.4355950000000 1.0
C      1  0.5635130000000  0.5720080000000  0.5257030000000 1.0
C      1  0.5645470000000  0.5730450000000  0.4477810000000 1.0
C      1  0.5600100000000  0.5077310000000  0.4114190000000 1.0
C      1  0.5654730000000  0.4414850000000  0.4436070000000 1.0
C      1  0.5647490000000  0.4146090000000  0.5116180000000 1.0
C      1  0.5634340000000  0.4513590000000  0.5735180000000 1.0
C      1  0.5679000000000  0.5258240000000  0.5846830000000 1.0
C      1  0.5008710000000  0.5369570000000  0.4154730000000 1.0
C      1  0.5008330000000  0.4645690000000  0.4266620000000 1.0
C      1  0.5082940000000  0.4189420000000  0.4868470000000 1.0
C      1  0.5103680000000  0.4283520000000  0.5639650000000 1.0
C      1  0.5084150000000  0.4993880000000  0.5899960000000 1.0
C      1  0.5122930000000  0.5623760000000  0.5477710000000 1.0
C      1  0.5114480000000  0.5919060000000  0.4717260000000 1.0
END
