TITL C-3577077-324-149 1.68423303209931e-07 125000 -466.570759078498 0 0 76 (C1) n - 1
REM
REM in /home/bkarasulu/work/CARBON/AIRSS/Generating-Clusters/EDIP-Nigel-Params/with-SteepDescent/Higher-Symm/SD-CG/HFTN-CG
REM
REM
REM
REM
REM
REM ./C.cell (12c818d87b63d06a65506943cc24bca4)
REM
REM compiler GCC version 9.2.1 20190827 (Red Hat 9.2.1-1)
REM options -cpp -mtune=generic -march=x86-64 -g -O0 -fpre-include=/usr/include/finclude/math-vector-fortran.h
REM seed -1961881128 -662293985 -1407804306 -657483086 -1341374080 601718024 810137329 -1850316937 -973787942 -407748060 343780255 -890891278 -890710540 -831406410 1638925543 -1000751546 1956396523 -1923768478 1769406988 1277664263 284274136 1899213669 2060789695 -729379642 -2083553599 674710332 -149753031 -741282912 -480318810 -1021251530 -330399573 -1770719866 -436926192
REM
CELL 1.54180   50.00000   50.00000   50.00000   90.00000   90.00000   90.00000
LATT -1
SFAC C  
C      1  0.5087890000000  0.5232420000000  0.4221650000000 1.0
C      1  0.5359790000000  0.4384590000000  0.5195070000000 1.0
C      1  0.4257450000000  0.5132110000000  0.5219050000000 1.0
C      1  0.4759220000000  0.4539600000000  0.4292410000000 1.0
C      1  0.5233070000000  0.4660470000000  0.5585700000000 1.0
C      1  0.4852380000000  0.5279980000000  0.5818100000000 1.0
C      1  0.4729090000000  0.5852110000000  0.5176960000000 1.0
C      1  0.5248460000000  0.5788750000000  0.4846110000000 1.0
C      1  0.4563340000000  0.4328640000000  0.4739280000000 1.0
C      1  0.5647470000000  0.4771490000000  0.5326550000000 1.0
C      1  0.4302970000000  0.4755890000000  0.4651340000000 1.0
C      1  0.5766980000000  0.5123810000000  0.4729870000000 1.0
C      1  0.5315960000000  0.5202610000000  0.4376430000000 1.0
C      1  0.4437160000000  0.5341630000000  0.5187340000000 1.0
C      1  0.5156280000000  0.4199740000000  0.5238420000000 1.0
C      1  0.4584130000000  0.4754320000000  0.4240240000000 1.0
C      1  0.4677680000000  0.5227000000000  0.5607230000000 1.0
C      1  0.5284310000000  0.4854560000000  0.5777790000000 1.0
C      1  0.5852620000000  0.4712880000000  0.5146840000000 1.0
C      1  0.5586220000000  0.5329810000000  0.4777410000000 1.0
C      1  0.4152060000000  0.4710430000000  0.4882100000000 1.0
C      1  0.4792350000000  0.5644730000000  0.5352870000000 1.0
C      1  0.4821850000000  0.4233890000000  0.4707950000000 1.0
C      1  0.5204400000000  0.5616220000000  0.4632470000000 1.0
C      1  0.5714680000000  0.5496100000000  0.5287290000000 1.0
C      1  0.5526410000000  0.5319400000000  0.5776860000000 1.0
C      1  0.5276470000000  0.5786090000000  0.5549620000000 1.0
C      1  0.4166040000000  0.4453080000000  0.5322410000000 1.0
C      1  0.5830300000000  0.4500150000000  0.4670560000000 1.0
C      1  0.4337960000000  0.5521250000000  0.4685090000000 1.0
C      1  0.4528900000000  0.4714420000000  0.5727000000000 1.0
C      1  0.5478960000000  0.4694820000000  0.4249060000000 1.0
C      1  0.4466470000000  0.5267930000000  0.4258430000000 1.0
C      1  0.4679830000000  0.4224720000000  0.5445570000000 1.0
C      1  0.5307280000000  0.4244800000000  0.4541670000000 1.0
C      1  0.4720870000000  0.5787760000000  0.4457680000000 1.0
C      1  0.5453510000000  0.5773360000000  0.5326340000000 1.0
C      1  0.5320990000000  0.5510250000000  0.5810400000000 1.0
C      1  0.5765600000000  0.5289400000000  0.5477450000000 1.0
C      1  0.4462170000000  0.4216760000000  0.5264480000000 1.0
C      1  0.4566410000000  0.5837040000000  0.4687350000000 1.0
C      1  0.5542160000000  0.4248690000000  0.4704980000000 1.0
C      1  0.4719850000000  0.4503720000000  0.5705440000000 1.0
C      1  0.4638610000000  0.5496960000000  0.4214530000000 1.0
C      1  0.5272410000000  0.4497330000000  0.4269960000000 1.0
C      1  0.4233470000000  0.4675290000000  0.5487250000000 1.0
C      1  0.4293380000000  0.5282780000000  0.4527680000000 1.0
C      1  0.5802420000000  0.4682290000000  0.4456110000000 1.0
C      1  0.5719570000000  0.4957780000000  0.4510140000000 1.0
C      1  0.4982780000000  0.4519790000000  0.5572850000000 1.0
C      1  0.4622540000000  0.5730550000000  0.4950560000000 1.0
C      1  0.4425980000000  0.5016250000000  0.4616960000000 1.0
C      1  0.5644460000000  0.5018860000000  0.5474990000000 1.0
C      1  0.4340680000000  0.4929010000000  0.5389920000000 1.0
C      1  0.5052700000000  0.5443380000000  0.5716660000000 1.0
C      1  0.4928490000000  0.5460600000000  0.4244660000000 1.0
C      1  0.5020250000000  0.4555540000000  0.4412810000000 1.0
C      1  0.5543090000000  0.4362560000000  0.4976230000000 1.0
C      1  0.4456570000000  0.4356440000000  0.5004660000000 1.0
C      1  0.5377120000000  0.5673110000000  0.5063880000000 1.0
C      1  0.4975510000000  0.5645130000000  0.4459810000000 1.0
C      1  0.4547540000000  0.4971000000000  0.5582420000000 1.0
C      1  0.5738990000000  0.4567220000000  0.4939770000000 1.0
C      1  0.5055050000000  0.4366250000000  0.4631910000000 1.0
C      1  0.5004050000000  0.5668020000000  0.5546370000000 1.0
C      1  0.4944340000000  0.4320050000000  0.5372060000000 1.0
C      1  0.5455930000000  0.5053100000000  0.5685880000000 1.0
C      1  0.5465580000000  0.4958210000000  0.4379280000000 1.0
C      1  0.4598990000000  0.5009790000000  0.4367600000000 1.0
C      1  0.4432400000000  0.5517620000000  0.4961520000000 1.0
C      1  0.4195960000000  0.4477990000000  0.5029430000000 1.0
C      1  0.5575000000000  0.5469770000000  0.5029040000000 1.0
C      1  0.5375800000000  0.5389000000000  0.4588350000000 1.0
C      1  0.5425120000000  0.4593670000000  0.5381620000000 1.0
C      1  0.4621630000000  0.5415640000000  0.5394920000000 1.0
C      1  0.4471320000000  0.4531340000000  0.4538790000000 1.0
END
