TITL C-3578207-9274-283 1.66220447817724e-07 125000 -260.925193101682 0 0 42 (C1) n - 1
REM
REM in /home/bkarasulu/work/CARBON/AIRSS/Generating-Clusters/EDIP-Nigel-Params/with-SteepDescent/Higher-Symm/SD-CG/HFTN-CG
REM
REM
REM
REM
REM
REM ./C.cell (12c818d87b63d06a65506943cc24bca4)
REM
REM compiler GCC version 9.2.1 20190827 (Red Hat 9.2.1-1)
REM options -cpp -mtune=generic -march=x86-64 -g -O0 -fpre-include=/usr/include/finclude/math-vector-fortran.h
REM seed 852565461 -1538694597 -1242444488 576953021 1742812521 171451336 1638132025 -1774117686 -864676585 913609569 -853015442 1548030264 1054088343 1567435895 1320863678 -1775941912 165561259 -890270007 534168753 1627225730 -2133174224 -678851079 -1207293277 -1981934906 -515527841 1113285991 842850918 -712421428 1784791518 -1924767909 -1209171540 -1152567285 -1043869121
REM
CELL 1.54180   50.00000   50.00000   50.00000   90.00000   90.00000   90.00000
LATT -1
SFAC C  
C      1  0.4712070000000  0.4521200000000  0.5472620000000 1.0
C      1  0.5549870000000  0.4526940000000  0.5001210000000 1.0
C      1  0.4720280000000  0.4504980000000  0.4509040000000 1.0
C      1  0.5269580000000  0.4527060000000  0.5477970000000 1.0
C      1  0.4435090000000  0.4498140000000  0.4994280000000 1.0
C      1  0.5272220000000  0.4522580000000  0.4513760000000 1.0
C      1  0.4708680000000  0.4448360000000  0.4992720000000 1.0
C      1  0.5135480000000  0.4462230000000  0.5243340000000 1.0
C      1  0.5138890000000  0.4458890000000  0.4749020000000 1.0
C      1  0.5280060000000  0.4460530000000  0.4996720000000 1.0
C      1  0.4850800000000  0.4453510000000  0.5241220000000 1.0
C      1  0.4852930000000  0.4449180000000  0.4746750000000 1.0
C      1  0.4752360000000  0.5387430000000  0.5248680000000 1.0
C      1  0.5391150000000  0.5399090000000  0.5054800000000 1.0
C      1  0.4840390000000  0.5330440000000  0.4601990000000 1.0
C      1  0.5336100000000  0.5345510000000  0.5321880000000 1.0
C      1  0.4541170000000  0.5315470000000  0.5085230000000 1.0
C      1  0.5106030000000  0.5342280000000  0.4568160000000 1.0
C      1  0.4603240000000  0.4952420000000  0.4445040000000 1.0
C      1  0.4724530000000  0.4985600000000  0.5519680000000 1.0
C      1  0.5622420000000  0.4983790000000  0.4947730000000 1.0
C      1  0.5368670000000  0.4975350000000  0.4441210000000 1.0
C      1  0.5275310000000  0.4978520000000  0.5604640000000 1.0
C      1  0.4301160000000  0.4940100000000  0.4924160000000 1.0
C      1  0.4883460000000  0.5180410000000  0.5402780000000 1.0
C      1  0.5436360000000  0.5176710000000  0.4877160000000 1.0
C      1  0.4631720000000  0.5152700000000  0.4633840000000 1.0
C      1  0.5161680000000  0.5198650000000  0.5480180000000 1.0
C      1  0.4474200000000  0.5150070000000  0.4873980000000 1.0
C      1  0.5337690000000  0.5195060000000  0.4607260000000 1.0
C      1  0.5247730000000  0.4744180000000  0.4347190000000 1.0
C      1  0.4290200000000  0.4716820000000  0.5088030000000 1.0
C      1  0.5421630000000  0.4749860000000  0.5546590000000 1.0
C      1  0.4733690000000  0.4729310000000  0.4344740000000 1.0
C      1  0.5670970000000  0.4757530000000  0.5099500000000 1.0
C      1  0.4568670000000  0.4756610000000  0.5513920000000 1.0
C      1  0.4339410000000  0.4770500000000  0.5356770000000 1.0
C      1  0.5636390000000  0.4788800000000  0.5373890000000 1.0
C      1  0.4990110000000  0.4775110000000  0.4246740000000 1.0
C      1  0.5260110000000  0.5620620000000  0.4951290000000 1.0
C      1  0.5043220000000  0.5763890000000  0.5021170000000 1.0
C      1  0.4883650000000  0.5621570000000  0.5183840000000 1.0
END
