TITL C-3577076-40-21 -7.68642339261492e-06 125000 -753.419347372843 0 0 122 (C3i) n - 1
REM
REM in /home/bkarasulu/work/CARBON/AIRSS/Generating-Clusters/EDIP-Nigel-Params/with-SteepDescent/Higher-Symm/SD-CG/HFTN-CG
REM
REM
REM
REM
REM
REM ./C.cell (12c818d87b63d06a65506943cc24bca4)
REM
REM compiler GCC version 9.2.1 20190827 (Red Hat 9.2.1-1)
REM options -cpp -mtune=generic -march=x86-64 -g -O0 -fpre-include=/usr/include/finclude/math-vector-fortran.h
REM seed -725309635 1027709318 1480905277 -1553418888 -487229180 1026568857 2031210841 -502698324 1886025382 -1161945890 1612565634 1934576690 1649308662 1079767923 1651362557 1248328225 1216514939 -349256912 2003887463 -1415554354 775805457 1687312040 -158241609 -1156567452 1470877936 -1514921671 1617011887 66058905 1289113132 625933918 745342074 -1033603803 349343946
REM
CELL 1.54180   50.00000   50.00000   50.00000   90.00000   90.00000   90.00000
LATT -1
SFAC C  
C      1  0.4247180000000  0.5389850000000  0.5285590000000 1.0
C      1  0.5752820000000  0.5443030000000  0.4809790000000 1.0
C      1  0.4247180000000  0.5057570000000  0.4525830000000 1.0
C      1  0.5752820000000  0.4618920000000  0.4717670000000 1.0
C      1  0.4247180000000  0.4565740000000  0.5193470000000 1.0
C      1  0.5752820000000  0.4951190000000  0.5477430000000 1.0
C      1  0.5887760000000  0.4714660000000  0.4959840000000 1.0
C      1  0.4112240000000  0.4823340000000  0.5231640000000 1.0
C      1  0.5887760000000  0.5113050000000  0.5273420000000 1.0
C      1  0.4112240000000  0.5294100000000  0.5043420000000 1.0
C      1  0.5887760000000  0.5185430000000  0.4771620000000 1.0
C      1  0.4112240000000  0.4895720000000  0.4729830000000 1.0
C      1  0.4519310000000  0.4274780000000  0.4868030000000 1.0
C      1  0.5480690000000  0.4523870000000  0.5566690000000 1.0
C      1  0.4519310000000  0.5253490000000  0.5700290000000 1.0
C      1  0.5480690000000  0.5733990000000  0.5135230000000 1.0
C      1  0.4519310000000  0.5484890000000  0.4436570000000 1.0
C      1  0.5480690000000  0.4755280000000  0.4302970000000 1.0
C      1  0.5028510000000  0.5373860000000  0.5738620000000 1.0
C      1  0.4971490000000  0.5827380000000  0.5050150000000 1.0
C      1  0.5028510000000  0.5457900000000  0.4313150000000 1.0
C      1  0.4971490000000  0.4634900000000  0.4264630000000 1.0
C      1  0.5028510000000  0.4181380000000  0.4953110000000 1.0
C      1  0.4971490000000  0.4550860000000  0.5690110000000 1.0
C      1  0.4753210000000  0.5589630000000  0.5083980000000 1.0
C      1  0.5246800000000  0.5368320000000  0.4535970000000 1.0
C      1  0.4753200000000  0.4783070000000  0.4453620000000 1.0
C      1  0.5246790000000  0.4419140000000  0.4919280000000 1.0
C      1  0.4753200000000  0.4640450000000  0.5467290000000 1.0
C      1  0.5246800000000  0.5225690000000  0.5549640000000 1.0
C      1  0.5252580000000  0.4669160000000  0.5675790000000 1.0
C      1  0.4747420000000  0.5420620000000  0.5629020000000 1.0
C      1  0.5252590000000  0.5755830000000  0.4954850000000 1.0
C      1  0.4747420000000  0.5339600000000  0.4327460000000 1.0
C      1  0.5252580000000  0.4588150000000  0.4374240000000 1.0
C      1  0.4747410000000  0.4252930000000  0.5048400000000 1.0
C      1  0.5507430000000  0.4970230000000  0.4808600000000 1.0
C      1  0.4492570000000  0.4820140000000  0.4934690000000 1.0
C      1  0.5507430000000  0.4854290000000  0.5127720000000 1.0
C      1  0.4492570000000  0.5038540000000  0.5194660000000 1.0
C      1  0.5507430000000  0.5188630000000  0.5068560000000 1.0
C      1  0.4492570000000  0.5154480000000  0.4875540000000 1.0
C      1  0.5718150000000  0.4652600000000  0.5452050000000 1.0
C      1  0.4281850000000  0.5218570000000  0.5531490000000 1.0
C      1  0.5718160000000  0.5570340000000  0.5081070000000 1.0
C      1  0.4281850000000  0.5356170000000  0.4551210000000 1.0
C      1  0.5718150000000  0.4790200000000  0.4471770000000 1.0
C      1  0.4281840000000  0.4438420000000  0.4922190000000 1.0
C      1  0.5365090000000  0.5053550000000  0.4517180000000 1.0
C      1  0.4634910000000  0.4609420000000  0.4716820000000 1.0
C      1  0.5365090000000  0.4560250000000  0.5201270000000 1.0
C      1  0.4634910000000  0.4955210000000  0.5486080000000 1.0
C      1  0.5365090000000  0.5399340000000  0.5286440000000 1.0
C      1  0.4634910000000  0.5448510000000  0.4801990000000 1.0
C      1  0.5466740000000  0.5262610000000  0.4151010000000 1.0
C      1  0.4533260000000  0.4396840000000  0.4352690000000 1.0
C      1  0.5466740000000  0.4138610000000  0.5203310000000 1.0
C      1  0.4533260000000  0.4746160000000  0.5852250000000 1.0
C      1  0.5466740000000  0.5611930000000  0.5650570000000 1.0
C      1  0.4533260000000  0.5870160000000  0.4799950000000 1.0
C      1  0.4720150000000  0.4158200000000  0.5322170000000 1.0
C      1  0.5279850000000  0.4858880000000  0.5894710000000 1.0
C      1  0.4720160000000  0.5705070000000  0.5574180000000 1.0
C      1  0.5279850000000  0.5850560000000  0.4681090000000 1.0
C      1  0.4720150000000  0.5149880000000  0.4108550000000 1.0
C      1  0.5279840000000  0.4303700000000  0.4429080000000 1.0
C      1  0.5184940000000  0.5294890000000  0.4103720000000 1.0
C      1  0.4815050000000  0.4372030000000  0.4301080000000 1.0
C      1  0.5184940000000  0.4081510000000  0.5198990000000 1.0
C      1  0.4815060000000  0.4713870000000  0.5899540000000 1.0
C      1  0.5184950000000  0.5636740000000  0.5702170000000 1.0
C      1  0.4815060000000  0.5927250000000  0.4804270000000 1.0
C      1  0.4347170000000  0.5659790000000  0.5218650000000 1.0
C      1  0.5652830000000  0.5520030000000  0.4542540000000 1.0
C      1  0.4347160000000  0.4864620000000  0.4325520000000 1.0
C      1  0.5652830000000  0.4348970000000  0.4784610000000 1.0
C      1  0.4347170000000  0.4488740000000  0.5460720000000 1.0
C      1  0.5652840000000  0.5144140000000  0.5677740000000 1.0
C      1  0.5088080000000  0.5004580000000  0.5438190000000 1.0
C      1  0.4911920000000  0.5382550000000  0.5219740000000 1.0
C      1  0.5088080000000  0.5382350000000  0.4783180000000 1.0
C      1  0.4911920000000  0.5004180000000  0.4565070000000 1.0
C      1  0.5088080000000  0.4626210000000  0.4783520000000 1.0
C      1  0.4911920000000  0.4626410000000  0.5220080000000 1.0
C      1  0.5005400000000  0.5962900000000  0.5310360000000 1.0
C      1  0.4994610000000  0.5751010000000  0.4325900000000 1.0
C      1  0.5005390000000  0.4792500000000  0.4017160000000 1.0
C      1  0.4994600000000  0.4045860000000  0.4692890000000 1.0
C      1  0.5005390000000  0.4257750000000  0.5677360000000 1.0
C      1  0.4994610000000  0.5216270000000  0.5986100000000 1.0
C      1  0.4850350000000  0.5229340000000  0.4741970000000 1.0
C      1  0.5149650000000  0.4891990000000  0.4676980000000 1.0
C      1  0.4850340000000  0.4667030000000  0.4936640000000 1.0
C      1  0.5149650000000  0.4779420000000  0.5261290000000 1.0
C      1  0.4850350000000  0.5116770000000  0.5326280000000 1.0
C      1  0.5149660000000  0.5341730000000  0.5066620000000 1.0
C      1  0.5680330000000  0.5426980000000  0.5590130000000 1.0
C      1  0.4319680000000  0.5725350000000  0.4929900000000 1.0
C      1  0.5680330000000  0.5302740000000  0.4341390000000 1.0
C      1  0.4319670000000  0.4581780000000  0.4413130000000 1.0
C      1  0.5680320000000  0.4283420000000  0.5073360000000 1.0
C      1  0.4319670000000  0.4706030000000  0.5661870000000 1.0
C      1  0.5438000000000  0.5095250000000  0.5857690000000 1.0
C      1  0.4562000000000  0.5791190000000  0.5350960000000 1.0
C      1  0.5438000000000  0.5700320000000  0.4494900000000 1.0
C      1  0.4562000000000  0.4913510000000  0.4145570000000 1.0
C      1  0.5438000000000  0.4217570000000  0.4652290000000 1.0
C      1  0.4562000000000  0.4308450000000  0.5508360000000 1.0
C      1  0.4989610000000  0.5078740000000  0.4013290000000 1.0
C      1  0.5010380000000  0.4185630000000  0.4443060000000 1.0
C      1  0.4989610000000  0.4111270000000  0.5431400000000 1.0
C      1  0.5010390000000  0.4930020000000  0.5989970000000 1.0
C      1  0.4989620000000  0.5823130000000  0.5560200000000 1.0
C      1  0.5010390000000  0.5897490000000  0.4571860000000 1.0
C      1  0.4195340000000  0.5473110000000  0.4816430000000 1.0
C      1  0.5804660000000  0.5078360000000  0.4503100000000 1.0
C      1  0.4195330000000  0.4609640000000  0.4688300000000 1.0
C      1  0.5804660000000  0.4535660000000  0.5186820000000 1.0
C      1  0.4195340000000  0.4930410000000  0.5500150000000 1.0
C      1  0.5804670000000  0.5399120000000  0.5314950000000 1.0
C      1  0.5903910000000  0.5004380000000  0.5001630000000 1.0
C      1  0.4096090000000  0.5004380000000  0.5001630000000 1.0
END
