TITL C-3577082-504-333 6.12667802169569e-07 125000 -617.531419310548 0 0 100 (C1) n - 1
REM
REM in /home/bkarasulu/work/CARBON/AIRSS/Generating-Clusters/EDIP-Nigel-Params/with-SteepDescent/Higher-Symm/SD-CG/HFTN-CG
REM
REM
REM
REM
REM
REM ./C.cell (12c818d87b63d06a65506943cc24bca4)
REM
REM compiler GCC version 9.2.1 20190827 (Red Hat 9.2.1-1)
REM options -cpp -mtune=generic -march=x86-64 -g -O0 -fpre-include=/usr/include/finclude/math-vector-fortran.h
REM seed 531529407 -1021746629 896728761 33065530 -952571169 539468148 1541858915 -449158482 -286848234 1144382594 1863141370 821301834 -1022745732 -748011366 -159400713 -426051954 997598046 833319865 469858159 717526282 100215007 1223848737 1299228232 123731509 1175676660 1866434615 1573672579 -460933866 -660089829 -1844454423 623460211 -605225739 387664005
REM
CELL 1.54180   50.00000   50.00000   50.00000   90.00000   90.00000   90.00000
LATT -1
SFAC C  
C      1  0.5191570000000  0.4896690000000  0.5823400000000 1.0
C      1  0.5622890000000  0.4945970000000  0.5545880000000 1.0
C      1  0.5797110000000  0.4947030000000  0.5060160000000 1.0
C      1  0.5707270000000  0.4938120000000  0.4546990000000 1.0
C      1  0.5326070000000  0.4891310000000  0.4196150000000 1.0
C      1  0.4813650000000  0.4899620000000  0.4172480000000 1.0
C      1  0.4388970000000  0.4952410000000  0.4435900000000 1.0
C      1  0.4219450000000  0.4942890000000  0.4923770000000 1.0
C      1  0.4266090000000  0.4934500000000  0.5444230000000 1.0
C      1  0.4665710000000  0.4892180000000  0.5804720000000 1.0
C      1  0.4641270000000  0.5368220000000  0.4297410000000 1.0
C      1  0.4319830000000  0.5379450000000  0.4699390000000 1.0
C      1  0.4261230000000  0.5383320000000  0.5166790000000 1.0
C      1  0.4511920000000  0.5368890000000  0.5620200000000 1.0
C      1  0.4927270000000  0.5327420000000  0.5886870000000 1.0
C      1  0.5368660000000  0.5368910000000  0.5686860000000 1.0
C      1  0.5681900000000  0.5380220000000  0.5282500000000 1.0
C      1  0.5729430000000  0.5380770000000  0.4812520000000 1.0
C      1  0.5487870000000  0.5364770000000  0.4355230000000 1.0
C      1  0.5079660000000  0.5322560000000  0.4092230000000 1.0
C      1  0.5162910000000  0.4901050000000  0.5379120000000 1.0
C      1  0.5232750000000  0.5003020000000  0.5136730000000 1.0
C      1  0.5378800000000  0.4926170000000  0.4919220000000 1.0
C      1  0.5301450000000  0.5056360000000  0.4686210000000 1.0
C      1  0.5050340000000  0.5131850000000  0.4621100000000 1.0
C      1  0.4873180000000  0.4954340000000  0.4736940000000 1.0
C      1  0.4719150000000  0.5046080000000  0.4938650000000 1.0
C      1  0.4599020000000  0.4921660000000  0.5151140000000 1.0
C      1  0.4691440000000  0.5035980000000  0.5386660000000 1.0
C      1  0.4941300000000  0.5026050000000  0.5484030000000 1.0
C      1  0.4580900000000  0.4621160000000  0.5133520000000 1.0
C      1  0.4668440000000  0.4455440000000  0.5393720000000 1.0
C      1  0.4947870000000  0.4443780000000  0.5516390000000 1.0
C      1  0.5195240000000  0.4605000000000  0.5400240000000 1.0
C      1  0.5395350000000  0.4505220000000  0.5171320000000 1.0
C      1  0.5405680000000  0.4634380000000  0.4883630000000 1.0
C      1  0.5303610000000  0.4634980000000  0.4591180000000 1.0
C      1  0.5038640000000  0.4523440000000  0.4517860000000 1.0
C      1  0.4808920000000  0.4685250000000  0.4635180000000 1.0
C      1  0.4641080000000  0.4519490000000  0.4843390000000 1.0
C      1  0.5334890000000  0.5184770000000  0.4168680000000 1.0
C      1  0.4814980000000  0.5189720000000  0.4136140000000 1.0
C      1  0.4430820000000  0.5243940000000  0.4461780000000 1.0
C      1  0.4196630000000  0.5232970000000  0.4922340000000 1.0
C      1  0.4304850000000  0.5246410000000  0.5431610000000 1.0
C      1  0.4674230000000  0.5190260000000  0.5802700000000 1.0
C      1  0.5195780000000  0.5193440000000  0.5857500000000 1.0
C      1  0.5585100000000  0.5243240000000  0.5527130000000 1.0
C      1  0.5801760000000  0.5236660000000  0.5057720000000 1.0
C      1  0.5680110000000  0.5240720000000  0.4551840000000 1.0
C      1  0.4936780000000  0.5579430000000  0.5734020000000 1.0
C      1  0.5196100000000  0.5594960000000  0.5598570000000 1.0
C      1  0.5647340000000  0.5661000000000  0.5190340000000 1.0
C      1  0.5678350000000  0.5662410000000  0.4897230000000 1.0
C      1  0.5309670000000  0.5601410000000  0.4407570000000 1.0
C      1  0.5070710000000  0.5581030000000  0.4236520000000 1.0
C      1  0.4810570000000  0.5599940000000  0.4373450000000 1.0
C      1  0.4355750000000  0.5660260000000  0.4788280000000 1.0
C      1  0.4321380000000  0.5664000000000  0.5080560000000 1.0
C      1  0.4696180000000  0.5600110000000  0.5565060000000 1.0
C      1  0.5690800000000  0.4527770000000  0.4830420000000 1.0
C      1  0.5504020000000  0.4465570000000  0.4436500000000 1.0
C      1  0.5034650000000  0.4490630000000  0.4226030000000 1.0
C      1  0.4551360000000  0.4486410000000  0.4411590000000 1.0
C      1  0.4386790000000  0.4534500000000  0.4666410000000 1.0
C      1  0.4291580000000  0.4516660000000  0.5143040000000 1.0
C      1  0.4466380000000  0.4491780000000  0.5600240000000 1.0
C      1  0.4930690000000  0.4475520000000  0.5803960000000 1.0
C      1  0.5401160000000  0.4488690000000  0.5612610000000 1.0
C      1  0.5662780000000  0.4544640000000  0.5285500000000 1.0
C      1  0.5501660000000  0.4196000000000  0.4879850000000 1.0
C      1  0.5330600000000  0.4198060000000  0.4646270000000 1.0
C      1  0.5034850000000  0.4260440000000  0.4651440000000 1.0
C      1  0.4739350000000  0.4201450000000  0.4596940000000 1.0
C      1  0.4581310000000  0.4111920000000  0.4820450000000 1.0
C      1  0.4477780000000  0.4185390000000  0.5075340000000 1.0
C      1  0.4663690000000  0.4176350000000  0.5295900000000 1.0
C      1  0.5014320000000  0.4164290000000  0.5449250000000 1.0
C      1  0.5302680000000  0.4164500000000  0.5424600000000 1.0
C      1  0.5398250000000  0.4120590000000  0.5146950000000 1.0
C      1  0.5038990000000  0.5945940000000  0.4603020000000 1.0
C      1  0.4792140000000  0.5818480000000  0.4563600000000 1.0
C      1  0.4589910000000  0.5829990000000  0.4765240000000 1.0
C      1  0.4542950000000  0.5840240000000  0.5148950000000 1.0
C      1  0.4713470000000  0.5820020000000  0.5376210000000 1.0
C      1  0.4965740000000  0.5943150000000  0.5371960000000 1.0
C      1  0.5213000000000  0.5816880000000  0.5412690000000 1.0
C      1  0.5415890000000  0.5834190000000  0.5213270000000 1.0
C      1  0.5458340000000  0.5839050000000  0.4828940000000 1.0
C      1  0.5289850000000  0.5819620000000  0.4600000000000 1.0
C      1  0.4928080000000  0.4748680000000  0.5866140000000 1.0
C      1  0.5449300000000  0.4766550000000  0.5726510000000 1.0
C      1  0.5757200000000  0.4807550000000  0.5319160000000 1.0
C      1  0.5810500000000  0.4797400000000  0.4797920000000 1.0
C      1  0.5569120000000  0.4757900000000  0.4329630000000 1.0
C      1  0.5066030000000  0.4754170000000  0.4137820000000 1.0
C      1  0.4568640000000  0.4769980000000  0.4283860000000 1.0
C      1  0.4264130000000  0.4806630000000  0.4661580000000 1.0
C      1  0.4174380000000  0.4791030000000  0.5179240000000 1.0
C      1  0.4441780000000  0.4768800000000  0.5642010000000 1.0
END
