TITL C-3577084-3642-192 -2.26811183288073e-06 125000 -282.752272501464 0 0 47 (C1) n - 1
REM
REM in /home/bkarasulu/work/CARBON/AIRSS/Generating-Clusters/EDIP-Nigel-Params/with-SteepDescent/Higher-Symm/SD-CG/HFTN-CG
REM
REM
REM
REM
REM
REM ./C.cell (12c818d87b63d06a65506943cc24bca4)
REM
REM compiler GCC version 9.2.1 20190827 (Red Hat 9.2.1-1)
REM options -cpp -mtune=generic -march=x86-64 -g -O0 -fpre-include=/usr/include/finclude/math-vector-fortran.h
REM seed 1789973675 -1067161833 536521241 1302175025 -1557696454 1221367536 -1850709034 -906725646 2047279531 -1571676307 -500863759 -154687158 -106597924 1881667886 1451089089 656776989 -210904884 -839438438 -715302376 131664222 700451533 -624937410 1107558302 1620045215 1766656204 -1034813749 -1063767139 -1298015827 361606893 -1538966900 -174646571 -353079354 -34081726
REM
CELL 1.54180   50.00000   50.00000   50.00000   90.00000   90.00000   90.00000
LATT -1
SFAC C  
C      1  0.5047900000000  0.5316060000000  0.5599270000000 1.0
C      1  0.5086940000000  0.5630790000000  0.5225850000000 1.0
C      1  0.5049150000000  0.4960150000000  0.4264250000000 1.0
C      1  0.4734430000000  0.4726050000000  0.5565590000000 1.0
C      1  0.4718750000000  0.5273780000000  0.4448390000000 1.0
C      1  0.5227950000000  0.4858810000000  0.5347160000000 1.0
C      1  0.5413200000000  0.5299760000000  0.5251050000000 1.0
C      1  0.4571080000000  0.5415790000000  0.5511490000000 1.0
C      1  0.5453170000000  0.4657980000000  0.5038150000000 1.0
C      1  0.4906570000000  0.5464130000000  0.4520670000000 1.0
C      1  0.5242600000000  0.5164950000000  0.4309420000000 1.0
C      1  0.4848510000000  0.5447210000000  0.5249610000000 1.0
C      1  0.4405580000000  0.5102470000000  0.5161730000000 1.0
C      1  0.4691690000000  0.4494000000000  0.5063450000000 1.0
C      1  0.4725960000000  0.4978640000000  0.5442660000000 1.0
C      1  0.5490550000000  0.5202780000000  0.4764010000000 1.0
C      1  0.5164000000000  0.4706120000000  0.4341330000000 1.0
C      1  0.4911680000000  0.4510890000000  0.5518780000000 1.0
C      1  0.4677660000000  0.4674750000000  0.4582300000000 1.0
C      1  0.4763570000000  0.5303660000000  0.4863830000000 1.0
C      1  0.4979050000000  0.5033510000000  0.5270390000000 1.0
C      1  0.5330080000000  0.4489390000000  0.5257940000000 1.0
C      1  0.5184980000000  0.5592370000000  0.4939690000000 1.0
C      1  0.4892320000000  0.4890210000000  0.4547150000000 1.0
C      1  0.4868640000000  0.4352030000000  0.5257350000000 1.0
C      1  0.4539100000000  0.4938050000000  0.4976120000000 1.0
C      1  0.4417510000000  0.5369710000000  0.5253530000000 1.0
C      1  0.5681320000000  0.5059020000000  0.4908960000000 1.0
C      1  0.5022310000000  0.5147520000000  0.4974090000000 1.0
C      1  0.5125980000000  0.4322420000000  0.5109210000000 1.0
C      1  0.5089300000000  0.4411870000000  0.4820080000000 1.0
C      1  0.5240710000000  0.5463000000000  0.5434910000000 1.0
C      1  0.5288550000000  0.5309080000000  0.4968510000000 1.0
C      1  0.4770270000000  0.5221550000000  0.5611030000000 1.0
C      1  0.5392350000000  0.5051250000000  0.4527830000000 1.0
C      1  0.5012820000000  0.4872580000000  0.4833560000000 1.0
C      1  0.4781440000000  0.4444260000000  0.4778850000000 1.0
C      1  0.4520280000000  0.5118100000000  0.4548480000000 1.0
C      1  0.5618360000000  0.4888360000000  0.5123620000000 1.0
C      1  0.4477870000000  0.4883570000000  0.4695260000000 1.0
C      1  0.4772740000000  0.4786140000000  0.5057620000000 1.0
C      1  0.5249390000000  0.4673800000000  0.4811370000000 1.0
C      1  0.4614850000000  0.5495350000000  0.5063580000000 1.0
C      1  0.5478500000000  0.5024160000000  0.5346820000000 1.0
C      1  0.5194170000000  0.4605170000000  0.5518230000000 1.0
C      1  0.4965010000000  0.5614650000000  0.4750090000000 1.0
C      1  0.5361160000000  0.4754060000000  0.4546760000000 1.0
END
