TITL C-3578209-2550-524 -3.20099646460562e-06 125000 -1086.01448315961 0 0 173 (C1) n - 1
REM
REM in /home/bkarasulu/work/CARBON/AIRSS/Generating-Clusters/EDIP-Nigel-Params/with-SteepDescent/Higher-Symm/SD-CG/HFTN-CG
REM
REM
REM
REM
REM
REM ./C.cell (12c818d87b63d06a65506943cc24bca4)
REM
REM compiler GCC version 9.2.1 20190827 (Red Hat 9.2.1-1)
REM options -cpp -mtune=generic -march=x86-64 -g -O0 -fpre-include=/usr/include/finclude/math-vector-fortran.h
REM seed 1976031420 255804869 1085774741 -1913492202 1131190847 2124099509 -1379339396 855154183 -1040586227 2083332426 391941443 -1126159565 -976258402 1297410758 604673747 -2007299267 -739711677 1213221738 -343222893 -152910645 -487002898 -567014465 669989396 1252998116 -1960493474 528045337 -1335683356 -1663181553 -1553001188 1751674847 1258808441 -396896180 1731441367
REM
CELL 1.54180   50.00000   50.00000   50.00000   90.00000   90.00000   90.00000
LATT -1
SFAC C  
C      1  0.4747500000000  0.4630510000000  0.4307860000000 1.0
C      1  0.4852060000000  0.5359470000000  0.4322480000000 1.0
C      1  0.5416980000000  0.4977230000000  0.4303850000000 1.0
C      1  0.5133450000000  0.5919680000000  0.4489160000000 1.0
C      1  0.5716040000000  0.4428850000000  0.4497680000000 1.0
C      1  0.4161300000000  0.4645340000000  0.4488710000000 1.0
C      1  0.4657130000000  0.5655020000000  0.5742300000000 1.0
C      1  0.5727370000000  0.4947820000000  0.5779480000000 1.0
C      1  0.4578570000000  0.4387500000000  0.5792320000000 1.0
C      1  0.4944610000000  0.6001320000000  0.4703180000000 1.0
C      1  0.5886330000000  0.4551340000000  0.4707470000000 1.0
C      1  0.4200490000000  0.4441600000000  0.4695350000000 1.0
C      1  0.4210350000000  0.5202100000000  0.5540640000000 1.0
C      1  0.5556970000000  0.5577300000000  0.5541370000000 1.0
C      1  0.5221240000000  0.4207400000000  0.5551290000000 1.0
C      1  0.4783670000000  0.4193510000000  0.4345360000000 1.0
C      1  0.4325270000000  0.5635340000000  0.4313470000000 1.0
C      1  0.5832350000000  0.5199590000000  0.4352510000000 1.0
C      1  0.5425420000000  0.4823580000000  0.4812160000000 1.0
C      1  0.4595180000000  0.4673580000000  0.4894460000000 1.0
C      1  0.4898440000000  0.5489850000000  0.4821620000000 1.0
C      1  0.6076680000000  0.5390720000000  0.5017110000000 1.0
C      1  0.4813830000000  0.3835300000000  0.5012470000000 1.0
C      1  0.4099550000000  0.5774510000000  0.5028920000000 1.0
C      1  0.4374580000000  0.6140040000000  0.5226380000000 1.0
C      1  0.6267190000000  0.4974790000000  0.5205020000000 1.0
C      1  0.4351730000000  0.3867290000000  0.5191840000000 1.0
C      1  0.5202490000000  0.4933590000000  0.5544120000000 1.0
C      1  0.4857330000000  0.4855810000000  0.5560800000000 1.0
C      1  0.4928680000000  0.5203170000000  0.5529880000000 1.0
C      1  0.4564870000000  0.4604340000000  0.5185610000000 1.0
C      1  0.4889510000000  0.5554630000000  0.5125840000000 1.0
C      1  0.5505530000000  0.4803540000000  0.5115950000000 1.0
C      1  0.5505890000000  0.4516830000000  0.5209370000000 1.0
C      1  0.4314900000000  0.4760200000000  0.5263790000000 1.0
C      1  0.5154020000000  0.5678640000000  0.5205220000000 1.0
C      1  0.5530080000000  0.5128660000000  0.5863020000000 1.0
C      1  0.4833960000000  0.4465640000000  0.5875740000000 1.0
C      1  0.4605030000000  0.5402920000000  0.5855760000000 1.0
C      1  0.5078660000000  0.5258370000000  0.4779790000000 1.0
C      1  0.5133130000000  0.4796580000000  0.4755260000000 1.0
C      1  0.4697690000000  0.4942720000000  0.4854950000000 1.0
C      1  0.4879390000000  0.4733770000000  0.5983580000000 1.0
C      1  0.4816270000000  0.5226680000000  0.5956570000000 1.0
C      1  0.5273140000000  0.5037470000000  0.5966030000000 1.0
C      1  0.4210270000000  0.5910950000000  0.5275090000000 1.0
C      1  0.6144840000000  0.5226430000000  0.5256530000000 1.0
C      1  0.4629920000000  0.3843060000000  0.5250230000000 1.0
C      1  0.5038700000000  0.4510490000000  0.5235240000000 1.0
C      1  0.4558150000000  0.5196240000000  0.5186440000000 1.0
C      1  0.5392050000000  0.5265300000000  0.5222030000000 1.0
C      1  0.4700740000000  0.5495910000000  0.4562370000000 1.0
C      1  0.5518470000000  0.5035100000000  0.4616430000000 1.0
C      1  0.4745270000000  0.4511260000000  0.4649180000000 1.0
C      1  0.5521470000000  0.5423850000000  0.5814730000000 1.0
C      1  0.5093760000000  0.4323380000000  0.5824190000000 1.0
C      1  0.4353260000000  0.5247530000000  0.5817310000000 1.0
C      1  0.5361230000000  0.3966620000000  0.5035620000000 1.0
C      1  0.3963490000000  0.5183650000000  0.5024480000000 1.0
C      1  0.5705690000000  0.5819920000000  0.5034310000000 1.0
C      1  0.5101180000000  0.5260120000000  0.6017730000000 1.0
C      1  0.5159970000000  0.4772410000000  0.6026570000000 1.0
C      1  0.4708670000000  0.4972060000000  0.6031070000000 1.0
C      1  0.5984240000000  0.5346760000000  0.4548520000000 1.0
C      1  0.4832970000000  0.3986570000000  0.4549980000000 1.0
C      1  0.4177010000000  0.5697350000000  0.4555650000000 1.0
C      1  0.4450850000000  0.4976910000000  0.5894580000000 1.0
C      1  0.5234570000000  0.5473920000000  0.5876240000000 1.0
C      1  0.5279250000000  0.4547240000000  0.5886350000000 1.0
C      1  0.4147470000000  0.4589710000000  0.5695950000000 1.0
C      1  0.5052650000000  0.5936080000000  0.5681310000000 1.0
C      1  0.5782180000000  0.4471450000000  0.5695670000000 1.0
C      1  0.4658210000000  0.3993420000000  0.4787150000000 1.0
C      1  0.4306760000000  0.5835780000000  0.4789920000000 1.0
C      1  0.6031200000000  0.5186410000000  0.4790190000000 1.0
C      1  0.4174130000000  0.5455810000000  0.5387880000000 1.0
C      1  0.5797270000000  0.5484800000000  0.5391800000000 1.0
C      1  0.5029070000000  0.4036770000000  0.5397890000000 1.0
C      1  0.5061130000000  0.4134800000000  0.4200920000000 1.0
C      1  0.4205410000000  0.5371650000000  0.4230390000000 1.0
C      1  0.5741110000000  0.5455590000000  0.4193770000000 1.0
C      1  0.6071810000000  0.4528250000000  0.5136860000000 1.0
C      1  0.4079290000000  0.4270710000000  0.5115080000000 1.0
C      1  0.4860320000000  0.6166540000000  0.5131200000000 1.0
C      1  0.4504300000000  0.5647110000000  0.4930450000000 1.0
C      1  0.5760140000000  0.5100660000000  0.4906710000000 1.0
C      1  0.4712130000000  0.4255340000000  0.4939140000000 1.0
C      1  0.4123390000000  0.5443190000000  0.5093600000000 1.0
C      1  0.5802490000000  0.5534330000000  0.5098390000000 1.0
C      1  0.5066760000000  0.4016660000000  0.5103190000000 1.0
C      1  0.4039060000000  0.5242660000000  0.4439460000000 1.0
C      1  0.5744370000000  0.5699690000000  0.4376070000000 1.0
C      1  0.5247570000000  0.3998510000000  0.4390440000000 1.0
C      1  0.4346280000000  0.5688680000000  0.5428880000000 1.0
C      1  0.5901190000000  0.5216790000000  0.5419690000000 1.0
C      1  0.4741810000000  0.4051700000000  0.5431790000000 1.0
C      1  0.3957080000000  0.5040010000000  0.5528110000000 1.0
C      1  0.5545060000000  0.5876970000000  0.5535670000000 1.0
C      1  0.5490500000000  0.4074450000000  0.5541080000000 1.0
C      1  0.3975500000000  0.4795260000000  0.5662290000000 1.0
C      1  0.5317180000000  0.5981710000000  0.5658570000000 1.0
C      1  0.5692480000000  0.4219490000000  0.5667290000000 1.0
C      1  0.5878190000000  0.4900330000000  0.4409600000000 1.0
C      1  0.4487300000000  0.4283000000000  0.4384360000000 1.0
C      1  0.4654210000000  0.5776640000000  0.4442000000000 1.0
C      1  0.5398460000000  0.5306970000000  0.4728100000000 1.0
C      1  0.5045800000000  0.4504340000000  0.4725930000000 1.0
C      1  0.4430580000000  0.5344400000000  0.4615820000000 1.0
C      1  0.5908120000000  0.4400630000000  0.4954250000000 1.0
C      1  0.4055740000000  0.4486730000000  0.4944100000000 1.0
C      1  0.5059280000000  0.6091200000000  0.4953770000000 1.0
C      1  0.5454700000000  0.4234740000000  0.4549500000000 1.0
C      1  0.4156620000000  0.4956090000000  0.4558340000000 1.0
C      1  0.5434970000000  0.5789990000000  0.4544690000000 1.0
C      1  0.5225640000000  0.4423610000000  0.4495340000000 1.0
C      1  0.4445870000000  0.5065820000000  0.4476370000000 1.0
C      1  0.5372000000000  0.5504060000000  0.4499270000000 1.0
C      1  0.5576950000000  0.5339160000000  0.4993530000000 1.0
C      1  0.5010660000000  0.4317760000000  0.5002250000000 1.0
C      1  0.4397440000000  0.5364250000000  0.4969430000000 1.0
C      1  0.4324660000000  0.4526090000000  0.4273000000000 1.0
C      1  0.4925960000000  0.5821610000000  0.4296410000000 1.0
C      1  0.5725790000000  0.4658210000000  0.4307920000000 1.0
C      1  0.5270080000000  0.5148270000000  0.4113910000000 1.0
C      1  0.4993260000000  0.4713330000000  0.4150630000000 1.0
C      1  0.4755480000000  0.5160760000000  0.4119030000000 1.0
C      1  0.4632030000000  0.6033360000000  0.5211540000000 1.0
C      1  0.6051030000000  0.4799280000000  0.5186710000000 1.0
C      1  0.4304740000000  0.4141720000000  0.5205890000000 1.0
C      1  0.5278780000000  0.5463210000000  0.4212470000000 1.0
C      1  0.5234860000000  0.4542710000000  0.4211030000000 1.0
C      1  0.4488170000000  0.5033850000000  0.4171300000000 1.0
C      1  0.5203250000000  0.4317590000000  0.4031520000000 1.0
C      1  0.4286000000000  0.5188400000000  0.4030280000000 1.0
C      1  0.5506530000000  0.5441420000000  0.4020870000000 1.0
C      1  0.3863770000000  0.5015740000000  0.5252030000000 1.0
C      1  0.5590770000000  0.5978330000000  0.5265180000000 1.0
C      1  0.5556180000000  0.3991490000000  0.5267260000000 1.0
C      1  0.4907560000000  0.5704490000000  0.5626060000000 1.0
C      1  0.5652380000000  0.4712790000000  0.5647370000000 1.0
C      1  0.4423230000000  0.4573380000000  0.5651250000000 1.0
C      1  0.4119560000000  0.4985430000000  0.4861030000000 1.0
C      1  0.5474100000000  0.5815320000000  0.4846530000000 1.0
C      1  0.5459880000000  0.4180490000000  0.4849800000000 1.0
C      1  0.5795420000000  0.4951560000000  0.5174660000000 1.0
C      1  0.4563130000000  0.4281960000000  0.5209520000000 1.0
C      1  0.4613480000000  0.5738300000000  0.5197600000000 1.0
C      1  0.5280470000000  0.5912120000000  0.5064540000000 1.0
C      1  0.5644730000000  0.4295500000000  0.5065460000000 1.0
C      1  0.4082120000000  0.4766080000000  0.5071590000000 1.0
C      1  0.4819180000000  0.5293900000000  0.5265830000000 1.0
C      1  0.5324620000000  0.4990850000000  0.5275060000000 1.0
C      1  0.4825740000000  0.4684130000000  0.5315240000000 1.0
C      1  0.4541620000000  0.4851590000000  0.5635240000000 1.0
C      1  0.5087560000000  0.5464830000000  0.5613690000000 1.0
C      1  0.5355840000000  0.4672320000000  0.5624820000000 1.0
C      1  0.5301540000000  0.5496360000000  0.5389000000000 1.0
C      1  0.5282000000000  0.4470840000000  0.5399290000000 1.0
C      1  0.4407170000000  0.5019520000000  0.5391990000000 1.0
C      1  0.5475790000000  0.4722120000000  0.4176020000000 1.0
C      1  0.4507250000000  0.4724780000000  0.4140120000000 1.0
C      1  0.5000310000000  0.5571130000000  0.4165700000000 1.0
C      1  0.5081980000000  0.3856240000000  0.4566860000000 1.0
C      1  0.4058270000000  0.5450160000000  0.4639400000000 1.0
C      1  0.5945320000000  0.5625820000000  0.4559410000000 1.0
C      1  0.4370080000000  0.4202210000000  0.4639340000000 1.0
C      1  0.4647120000000  0.5969520000000  0.4667870000000 1.0
C      1  0.6005500000000  0.4824080000000  0.4659580000000 1.0
C      1  0.5043410000000  0.5204380000000  0.4485220000000 1.0
C      1  0.5017810000000  0.4916570000000  0.4483080000000 1.0
C      1  0.4705940000000  0.4932920000000  0.4561210000000 1.0
C      1  0.4999820000000  0.5004410000000  0.4049810000000 1.0
C      1  0.4981060000000  0.4994480000000  0.4924700000000 1.0
END
