TITL C-3577086-586-260 -1.61496673288693e-06 125000 -886.251807985604 0 0 138 (C1) n - 1
REM
REM in /home/bkarasulu/work/CARBON/AIRSS/Generating-Clusters/EDIP-Nigel-Params/with-SteepDescent/Higher-Symm/SD-CG/HFTN-CG
REM
REM
REM
REM
REM
REM ./C.cell (12c818d87b63d06a65506943cc24bca4)
REM
REM compiler GCC version 9.2.1 20190827 (Red Hat 9.2.1-1)
REM options -cpp -mtune=generic -march=x86-64 -g -O0 -fpre-include=/usr/include/finclude/math-vector-fortran.h
REM seed -248294179 1860775819 1044215095 805785748 655228919 156514747 371583245 1164730471 -1959436362 -1369065045 -319694196 926800869 51073274 714720180 -973711946 -1871937620 -537008186 -1334681777 -1078082569 283632389 -1694012263 540936616 -2056296188 2131201333 977637104 -1302414646 321967975 200584147 1337243093 1764054019 -1119590643 892942393 132941990
REM
CELL 1.54180   50.00000   50.00000   50.00000   90.00000   90.00000   90.00000
LATT -1
SFAC C  
C      1  0.4431170000000  0.4725610000000  0.5525680000000 1.0
C      1  0.5735700000000  0.4622380000000  0.5254050000000 1.0
C      1  0.4840970000000  0.4655350000000  0.4233580000000 1.0
C      1  0.4399930000000  0.5329640000000  0.4476390000000 1.0
C      1  0.5548280000000  0.5341760000000  0.4837270000000 1.0
C      1  0.4944930000000  0.5366980000000  0.5708470000000 1.0
C      1  0.5537310000000  0.5311500000000  0.4509250000000 1.0
C      1  0.4253630000000  0.5340490000000  0.4757410000000 1.0
C      1  0.5259580000000  0.5275130000000  0.5702080000000 1.0
C      1  0.5585590000000  0.4646210000000  0.5519970000000 1.0
C      1  0.4295450000000  0.4641590000000  0.5261430000000 1.0
C      1  0.5161090000000  0.4670720000000  0.4231800000000 1.0
C      1  0.5348870000000  0.5122850000000  0.5402420000000 1.0
C      1  0.5269370000000  0.5137480000000  0.4469690000000 1.0
C      1  0.4398260000000  0.5165530000000  0.4998790000000 1.0
C      1  0.5292720000000  0.4815890000000  0.4483030000000 1.0
C      1  0.5305880000000  0.4808750000000  0.5488270000000 1.0
C      1  0.4409700000000  0.4824710000000  0.5009480000000 1.0
C      1  0.4698770000000  0.4813770000000  0.4478410000000 1.0
C      1  0.4728620000000  0.4867050000000  0.5503880000000 1.0
C      1  0.5596160000000  0.4806900000000  0.5027730000000 1.0
C      1  0.4747940000000  0.5199110000000  0.5502470000000 1.0
C      1  0.4670100000000  0.5150010000000  0.4471360000000 1.0
C      1  0.5578280000000  0.5120580000000  0.5135750000000 1.0
C      1  0.3948840000000  0.5220960000000  0.4552700000000 1.0
C      1  0.5150800000000  0.5238650000000  0.6068520000000 1.0
C      1  0.5803780000000  0.5243480000000  0.4383380000000 1.0
C      1  0.3979150000000  0.4767360000000  0.5439020000000 1.0
C      1  0.5151770000000  0.4781940000000  0.3865330000000 1.0
C      1  0.5829550000000  0.4758890000000  0.5665170000000 1.0
C      1  0.6028100000000  0.4784180000000  0.5446910000000 1.0
C      1  0.4864330000000  0.4774150000000  0.3872190000000 1.0
C      1  0.4166410000000  0.4761200000000  0.5671580000000 1.0
C      1  0.6011690000000  0.5224030000000  0.4574770000000 1.0
C      1  0.4863240000000  0.5251770000000  0.6059650000000 1.0
C      1  0.4150850000000  0.5242520000000  0.4334590000000 1.0
C      1  0.4708960000000  0.5012210000000  0.6024440000000 1.0
C      1  0.6026340000000  0.5010420000000  0.4751650000000 1.0
C      1  0.4233860000000  0.4986420000000  0.4216890000000 1.0
C      1  0.4717110000000  0.4994930000000  0.3977530000000 1.0
C      1  0.6048800000000  0.5020500000000  0.5286730000000 1.0
C      1  0.4238790000000  0.5019930000000  0.5792590000000 1.0
C      1  0.5298180000000  0.5001300000000  0.3973570000000 1.0
C      1  0.3974040000000  0.4998140000000  0.5269990000000 1.0
C      1  0.5758110000000  0.5013180000000  0.5797820000000 1.0
C      1  0.5283030000000  0.4989770000000  0.6031660000000 1.0
C      1  0.3961050000000  0.5009350000000  0.4745010000000 1.0
C      1  0.5757010000000  0.4996800000000  0.4232130000000 1.0
C      1  0.5816960000000  0.5418910000000  0.5175110000000 1.0
C      1  0.4728600000000  0.5421340000000  0.4203110000000 1.0
C      1  0.4465960000000  0.5417060000000  0.5651280000000 1.0
C      1  0.5840480000000  0.4572110000000  0.4836900000000 1.0
C      1  0.4692730000000  0.4584290000000  0.5771500000000 1.0
C      1  0.4425700000000  0.4571610000000  0.4350730000000 1.0
C      1  0.4157200000000  0.4581480000000  0.4849070000000 1.0
C      1  0.5261390000000  0.4570530000000  0.5793700000000 1.0
C      1  0.5558110000000  0.4567610000000  0.4347740000000 1.0
C      1  0.4170300000000  0.5423330000000  0.5174390000000 1.0
C      1  0.5309990000000  0.5429080000000  0.4215350000000 1.0
C      1  0.5519440000000  0.5433430000000  0.5666580000000 1.0
C      1  0.5658240000000  0.4363760000000  0.4780470000000 1.0
C      1  0.4470570000000  0.4363740000000  0.4534440000000 1.0
C      1  0.4840240000000  0.4352700000000  0.5670800000000 1.0
C      1  0.5666510000000  0.5651510000000  0.5243140000000 1.0
C      1  0.4519170000000  0.5607680000000  0.5453590000000 1.0
C      1  0.4866990000000  0.5643830000000  0.4314910000000 1.0
C      1  0.4343670000000  0.5638030000000  0.5233240000000 1.0
C      1  0.5489030000000  0.5643100000000  0.5467110000000 1.0
C      1  0.5154340000000  0.5652730000000  0.4318040000000 1.0
C      1  0.4341480000000  0.4377380000000  0.4786500000000 1.0
C      1  0.5530780000000  0.4347360000000  0.4526690000000 1.0
C      1  0.5124830000000  0.4351230000000  0.5678780000000 1.0
C      1  0.4310700000000  0.5652310000000  0.4761130000000 1.0
C      1  0.5142750000000  0.5837570000000  0.5743370000000 1.0
C      1  0.5557770000000  0.5746920000000  0.4549540000000 1.0
C      1  0.4328840000000  0.4334630000000  0.5251190000000 1.0
C      1  0.5146970000000  0.4289510000000  0.4268490000000 1.0
C      1  0.5552620000000  0.4260230000000  0.5494330000000 1.0
C      1  0.5690690000000  0.4315610000000  0.5248170000000 1.0
C      1  0.4865970000000  0.4347280000000  0.4277200000000 1.0
C      1  0.4431110000000  0.4202830000000  0.5474080000000 1.0
C      1  0.5649700000000  0.5634490000000  0.4789080000000 1.0
C      1  0.4923260000000  0.5673170000000  0.5692250000000 1.0
C      1  0.4443410000000  0.5709500000000  0.4511960000000 1.0
C      1  0.4707210000000  0.4748820000000  0.4996130000000 1.0
C      1  0.5150780000000  0.4719060000000  0.5246230000000 1.0
C      1  0.5149110000000  0.4733420000000  0.4738950000000 1.0
C      1  0.4690410000000  0.5246890000000  0.4984480000000 1.0
C      1  0.5101700000000  0.5234100000000  0.4699910000000 1.0
C      1  0.5155890000000  0.5241250000000  0.5189510000000 1.0
C      1  0.5255990000000  0.5319500000000  0.4923840000000 1.0
C      1  0.4816030000000  0.5233160000000  0.4719050000000 1.0
C      1  0.4862410000000  0.5255140000000  0.5224960000000 1.0
C      1  0.5298810000000  0.4732330000000  0.4994610000000 1.0
C      1  0.4860270000000  0.4758670000000  0.5248990000000 1.0
C      1  0.4850980000000  0.4740200000000  0.4738400000000 1.0
C      1  0.5276760000000  0.4187070000000  0.5497120000000 1.0
C      1  0.5285110000000  0.4201110000000  0.4503300000000 1.0
C      1  0.4439220000000  0.4227240000000  0.5005020000000 1.0
C      1  0.5289530000000  0.5814520000000  0.4513530000000 1.0
C      1  0.5286230000000  0.5846360000000  0.5503110000000 1.0
C      1  0.4445980000000  0.5761190000000  0.4997730000000 1.0
C      1  0.4716930000000  0.5794880000000  0.4507360000000 1.0
C      1  0.4742970000000  0.5777350000000  0.5488900000000 1.0
C      1  0.5572700000000  0.5802680000000  0.5014150000000 1.0
C      1  0.4707660000000  0.4170040000000  0.5492490000000 1.0
C      1  0.4725790000000  0.4238480000000  0.4511270000000 1.0
C      1  0.5562360000000  0.4214840000000  0.5004490000000 1.0
C      1  0.4142540000000  0.5210700000000  0.5351340000000 1.0
C      1  0.5725110000000  0.5229460000000  0.5607670000000 1.0
C      1  0.5153930000000  0.5228780000000  0.4063540000000 1.0
C      1  0.4129440000000  0.4795310000000  0.4672280000000 1.0
C      1  0.5724560000000  0.4784280000000  0.4422020000000 1.0
C      1  0.5130410000000  0.4796190000000  0.5890060000000 1.0
C      1  0.5855430000000  0.4796440000000  0.4676050000000 1.0
C      1  0.4265970000000  0.4789110000000  0.4421810000000 1.0
C      1  0.4847260000000  0.4788090000000  0.5913330000000 1.0
C      1  0.5906130000000  0.5251490000000  0.5382620000000 1.0
C      1  0.4312620000000  0.5195190000000  0.5579910000000 1.0
C      1  0.4868930000000  0.5209290000000  0.4087670000000 1.0
C      1  0.4856260000000  0.4115080000000  0.4743860000000 1.0
C      1  0.4853100000000  0.4094580000000  0.5249880000000 1.0
C      1  0.5290430000000  0.4105620000000  0.5001430000000 1.0
C      1  0.4858720000000  0.5903430000000  0.5251730000000 1.0
C      1  0.4854770000000  0.5888770000000  0.4747830000000 1.0
C      1  0.5289710000000  0.5892400000000  0.5005220000000 1.0
C      1  0.5149810000000  0.5932820000000  0.5256420000000 1.0
C      1  0.5144700000000  0.5896570000000  0.4751440000000 1.0
C      1  0.4710800000000  0.5886400000000  0.4998300000000 1.0
C      1  0.5146240000000  0.4114650000000  0.4747290000000 1.0
C      1  0.5143090000000  0.4103370000000  0.5251330000000 1.0
C      1  0.4709320000000  0.4111380000000  0.4997240000000 1.0
C      1  0.5571740000000  0.5001590000000  0.4021470000000 1.0
C      1  0.4431380000000  0.5014530000000  0.5996230000000 1.0
C      1  0.5557400000000  0.4990020000000  0.5990990000000 1.0
C      1  0.4441570000000  0.4991480000000  0.4026150000000 1.0
C      1  0.3869090000000  0.5012010000000  0.5010060000000 1.0
C      1  0.6120140000000  0.5022720000000  0.5014900000000 1.0
END
