TITL C-3578195-8548-413 -3.15291173574615e-06 125000 -84.4285458255937 0 0 16 (C1) n - 1
REM
REM in /home/bkarasulu/work/CARBON/AIRSS/Generating-Clusters/EDIP-Nigel-Params/with-SteepDescent/Higher-Symm/SD-CG/HFTN-CG
REM
REM
REM
REM
REM
REM ./C.cell (12c818d87b63d06a65506943cc24bca4)
REM
REM compiler GCC version 9.2.1 20190827 (Red Hat 9.2.1-1)
REM options -cpp -mtune=generic -march=x86-64 -g -O0 -fpre-include=/usr/include/finclude/math-vector-fortran.h
REM seed 71993040 -208008260 -1423991178 534894091 -1060515601 -3383546 1445529609 -520869623 1394093420 1399537356 -59844194 -1653759775 -658182809 1499020458 -726024750 1097927520 -1696981810 -1673972235 -1443465567 -2045775200 -214526607 52749325 839531136 1934305198 -1350092311 767553809 1630994038 -328264752 1585332924 -698879656 -765322533 1199031882 891169384
REM
CELL 1.54180   50.00000   50.00000   50.00000   90.00000   90.00000   90.00000
LATT -1
SFAC C  
C      1  0.5462280000000  0.5161750000000  0.5103200000000 1.0
C      1  0.5297140000000  0.5374960000000  0.5083170000000 1.0
C      1  0.5046690000000  0.5471260000000  0.5056290000000 1.0
C      1  0.4782920000000  0.5421450000000  0.5039690000000 1.0
C      1  0.4593780000000  0.5231350000000  0.5067370000000 1.0
C      1  0.4573320000000  0.4978670000000  0.5187800000000 1.0
C      1  0.4619230000000  0.4725280000000  0.5047420000000 1.0
C      1  0.4840410000000  0.4556670000000  0.5068020000000 1.0
C      1  0.5109320000000  0.4532810000000  0.5089550000000 1.0
C      1  0.5348560000000  0.4657450000000  0.5107140000000 1.0
C      1  0.5483450000000  0.4891990000000  0.5111650000000 1.0
C      1  0.5053870000000  0.4995040000000  0.5161670000000 1.0
C      1  0.5076710000000  0.4991020000000  0.4884980000000 1.0
C      1  0.4828300000000  0.4922060000000  0.5311400000000 1.0
C      1  0.4913660000000  0.5008150000000  0.4388850000000 1.0
C      1  0.4975220000000  0.5002150000000  0.4637040000000 1.0
END
