TITL C-3577081-279-522 -1.78104322520399e-06 125000 -1179.45865179073 0 0 187 (C1) n - 1
REM
REM in /home/bkarasulu/work/CARBON/AIRSS/Generating-Clusters/EDIP-Nigel-Params/with-SteepDescent/Higher-Symm/SD-CG/HFTN-CG
REM
REM
REM
REM
REM
REM ./C.cell (12c818d87b63d06a65506943cc24bca4)
REM
REM compiler GCC version 9.2.1 20190827 (Red Hat 9.2.1-1)
REM options -cpp -mtune=generic -march=x86-64 -g -O0 -fpre-include=/usr/include/finclude/math-vector-fortran.h
REM seed 1247075750 839947821 -2146485227 -593847760 341716162 -1576531951 654496088 -899601099 -117499783 -1374193713 42440108 -856280864 -794445816 -376636203 1005077239 1889101558 991265670 1965857995 -750365432 -1164774049 377073985 1891566131 -1845935248 -1555708172 -1062729008 1631045924 -1134801268 1957241760 678041785 -1030874529 -1137861495 1912905492 2011895909
REM
CELL 1.54180   50.00000   50.00000   50.00000   90.00000   90.00000   90.00000
LATT -1
SFAC C  
C      1  0.4704970000000  0.5462840000000  0.5074810000000 1.0
C      1  0.5366300000000  0.5516800000000  0.5032240000000 1.0
C      1  0.5309350000000  0.4477230000000  0.4961360000000 1.0
C      1  0.4692810000000  0.4503420000000  0.4963580000000 1.0
C      1  0.5022330000000  0.5492940000000  0.4748670000000 1.0
C      1  0.5027980000000  0.5563170000000  0.5394350000000 1.0
C      1  0.4987260000000  0.4552430000000  0.5326850000000 1.0
C      1  0.4973520000000  0.4411200000000  0.4603170000000 1.0
C      1  0.5243240000000  0.5112560000000  0.5472610000000 1.0
C      1  0.4742380000000  0.5153260000000  0.4505700000000 1.0
C      1  0.4650380000000  0.4861410000000  0.5512500000000 1.0
C      1  0.5294840000000  0.4879680000000  0.4491670000000 1.0
C      1  0.5494700000000  0.5148510000000  0.5317030000000 1.0
C      1  0.4483560000000  0.4994200000000  0.4503720000000 1.0
C      1  0.5505150000000  0.4762040000000  0.4653520000000 1.0
C      1  0.4536970000000  0.5084870000000  0.5311590000000 1.0
C      1  0.5813510000000  0.4307190000000  0.4396370000000 1.0
C      1  0.4217520000000  0.4388390000000  0.5587350000000 1.0
C      1  0.4228440000000  0.5589790000000  0.4449060000000 1.0
C      1  0.5850380000000  0.5659000000000  0.5599760000000 1.0
C      1  0.4431050000000  0.4330260000000  0.5778870000000 1.0
C      1  0.5629170000000  0.4357120000000  0.4168550000000 1.0
C      1  0.4441820000000  0.5615820000000  0.4230980000000 1.0
C      1  0.5629070000000  0.5676150000000  0.5852090000000 1.0
C      1  0.5136080000000  0.5338350000000  0.3976960000000 1.0
C      1  0.4887740000000  0.5390710000000  0.6037000000000 1.0
C      1  0.4905920000000  0.4634490000000  0.3938170000000 1.0
C      1  0.5084100000000  0.4703760000000  0.6049340000000 1.0
C      1  0.4068040000000  0.5265120000000  0.5122230000000 1.0
C      1  0.6017090000000  0.5349730000000  0.4884100000000 1.0
C      1  0.4015620000000  0.4652650000000  0.4882000000000 1.0
C      1  0.5984040000000  0.4663510000000  0.5074570000000 1.0
C      1  0.5376650000000  0.5230160000000  0.4958650000000 1.0
C      1  0.4798230000000  0.5190760000000  0.5196060000000 1.0
C      1  0.4733620000000  0.4791620000000  0.4850040000000 1.0
C      1  0.5350840000000  0.4747170000000  0.5069300000000 1.0
C      1  0.4989720000000  0.5267750000000  0.5428670000000 1.0
C      1  0.5133910000000  0.5207210000000  0.4788300000000 1.0
C      1  0.4857610000000  0.4672040000000  0.4500010000000 1.0
C      1  0.5101820000000  0.4806330000000  0.5199580000000 1.0
C      1  0.4859960000000  0.5882210000000  0.5766850000000 1.0
C      1  0.5251210000000  0.5866260000000  0.4426280000000 1.0
C      1  0.5248830000000  0.4167570000000  0.5626300000000 1.0
C      1  0.4719640000000  0.4067820000000  0.4334130000000 1.0
C      1  0.5703270000000  0.5851740000000  0.4846920000000 1.0
C      1  0.4323750000000  0.5782740000000  0.5177560000000 1.0
C      1  0.5595410000000  0.4115220000000  0.5221940000000 1.0
C      1  0.4312400000000  0.4147210000000  0.4847120000000 1.0
C      1  0.5964130000000  0.4567100000000  0.4797560000000 1.0
C      1  0.4044430000000  0.4567620000000  0.5160130000000 1.0
C      1  0.4064610000000  0.5374120000000  0.4849290000000 1.0
C      1  0.5985090000000  0.5438620000000  0.5163440000000 1.0
C      1  0.4806660000000  0.4632510000000  0.5995900000000 1.0
C      1  0.5186930000000  0.4572650000000  0.4016200000000 1.0
C      1  0.4849210000000  0.5385130000000  0.4050180000000 1.0
C      1  0.5180050000000  0.5478350000000  0.6009360000000 1.0
C      1  0.4360570000000  0.4122130000000  0.5136470000000 1.0
C      1  0.5670600000000  0.4097190000000  0.4844400000000 1.0
C      1  0.5672810000000  0.5884790000000  0.5143500000000 1.0
C      1  0.4384910000000  0.5809380000000  0.4891030000000 1.0
C      1  0.5100820000000  0.4054690000000  0.4276160000000 1.0
C      1  0.4865770000000  0.4148330000000  0.5637890000000 1.0
C      1  0.5157730000000  0.5929920000000  0.5724560000000 1.0
C      1  0.4872600000000  0.5846360000000  0.4365020000000 1.0
C      1  0.4618810000000  0.5424780000000  0.5683500000000 1.0
C      1  0.5227500000000  0.5161890000000  0.4488060000000 1.0
C      1  0.5157150000000  0.4852440000000  0.5583360000000 1.0
C      1  0.4563770000000  0.4705450000000  0.4400990000000 1.0
C      1  0.5646400000000  0.5406500000000  0.4587050000000 1.0
C      1  0.4419300000000  0.5343140000000  0.5459980000000 1.0
C      1  0.5605900000000  0.4870340000000  0.5175280000000 1.0
C      1  0.4384220000000  0.4567280000000  0.4596420000000 1.0
C      1  0.5188240000000  0.4333070000000  0.5396590000000 1.0
C      1  0.4746550000000  0.4209520000000  0.4584640000000 1.0
C      1  0.4783290000000  0.5676340000000  0.5560620000000 1.0
C      1  0.5254270000000  0.5667320000000  0.4629390000000 1.0
C      1  0.5370580000000  0.4289210000000  0.5183510000000 1.0
C      1  0.4522230000000  0.4342100000000  0.4746200000000 1.0
C      1  0.5509650000000  0.5628370000000  0.4772570000000 1.0
C      1  0.4523560000000  0.5585580000000  0.5287270000000 1.0
C      1  0.4539370000000  0.4518470000000  0.5227520000000 1.0
C      1  0.5465150000000  0.4482250000000  0.4693820000000 1.0
C      1  0.5504480000000  0.5476410000000  0.5304840000000 1.0
C      1  0.4534920000000  0.5394060000000  0.4818230000000 1.0
C      1  0.5260410000000  0.4388250000000  0.4497600000000 1.0
C      1  0.4713660000000  0.4580930000000  0.5447670000000 1.0
C      1  0.5303320000000  0.5576600000000  0.5504230000000 1.0
C      1  0.4747740000000  0.5424630000000  0.4591650000000 1.0
C      1  0.5056650000000  0.4796590000000  0.4309150000000 1.0
C      1  0.4866750000000  0.4904400000000  0.5719660000000 1.0
C      1  0.4959980000000  0.5118040000000  0.4313840000000 1.0
C      1  0.4844130000000  0.5217040000000  0.5686670000000 1.0
C      1  0.4458780000000  0.4898620000000  0.4798010000000 1.0
C      1  0.5701820000000  0.4904770000000  0.4836110000000 1.0
C      1  0.4410230000000  0.5134920000000  0.4985310000000 1.0
C      1  0.5613300000000  0.5190610000000  0.4795690000000 1.0
C      1  0.4272660000000  0.4392360000000  0.5279710000000 1.0
C      1  0.5743860000000  0.4355640000000  0.4682680000000 1.0
C      1  0.5773090000000  0.5625780000000  0.5301890000000 1.0
C      1  0.4287080000000  0.5556950000000  0.4747830000000 1.0
C      1  0.5314860000000  0.4338180000000  0.4201400000000 1.0
C      1  0.4702160000000  0.4403440000000  0.5702080000000 1.0
C      1  0.5324450000000  0.5665720000000  0.5795250000000 1.0
C      1  0.4727200000000  0.5577860000000  0.4315500000000 1.0
C      1  0.4860470000000  0.5103510000000  0.6115480000000 1.0
C      1  0.5157670000000  0.5043530000000  0.3929490000000 1.0
C      1  0.5117630000000  0.4994610000000  0.6072840000000 1.0
C      1  0.4894520000000  0.4927520000000  0.3923430000000 1.0
C      1  0.6108360000000  0.5071440000000  0.4866320000000 1.0
C      1  0.3895920000000  0.5027500000000  0.5134730000000 1.0
C      1  0.6040000000000  0.4950060000000  0.5113920000000 1.0
C      1  0.3896010000000  0.4916450000000  0.4865360000000 1.0
C      1  0.4071370000000  0.4825300000000  0.4278030000000 1.0
C      1  0.5820100000000  0.4875410000000  0.5633150000000 1.0
C      1  0.5905780000000  0.5151300000000  0.4328890000000 1.0
C      1  0.4117030000000  0.5142140000000  0.5710130000000 1.0
C      1  0.4294960000000  0.4833070000000  0.4076560000000 1.0
C      1  0.5618850000000  0.4887730000000  0.5845450000000 1.0
C      1  0.4308700000000  0.5167090000000  0.5928120000000 1.0
C      1  0.5658140000000  0.5131480000000  0.4179000000000 1.0
C      1  0.4648460000000  0.4030800000000  0.5143760000000 1.0
C      1  0.5378250000000  0.3981390000000  0.4807270000000 1.0
C      1  0.5391540000000  0.5992380000000  0.5191330000000 1.0
C      1  0.4673890000000  0.5880430000000  0.4873180000000 1.0
C      1  0.5165990000000  0.3963740000000  0.4584340000000 1.0
C      1  0.4835290000000  0.3992400000000  0.5368150000000 1.0
C      1  0.5189560000000  0.5996970000000  0.5421750000000 1.0
C      1  0.4841810000000  0.5969210000000  0.4647400000000 1.0
C      1  0.6006320000000  0.5176240000000  0.5292410000000 1.0
C      1  0.4011530000000  0.5126080000000  0.4698220000000 1.0
C      1  0.3988860000000  0.4817460000000  0.5306370000000 1.0
C      1  0.6051720000000  0.4844630000000  0.4674990000000 1.0
C      1  0.5305430000000  0.5214600000000  0.6048870000000 1.0
C      1  0.4699120000000  0.5137530000000  0.3959760000000 1.0
C      1  0.5338950000000  0.4821700000000  0.3963040000000 1.0
C      1  0.4671910000000  0.4876500000000  0.6102490000000 1.0
C      1  0.5281340000000  0.4519250000000  0.5949240000000 1.0
C      1  0.4706610000000  0.4472620000000  0.4055490000000 1.0
C      1  0.4660380000000  0.5564830000000  0.6097950000000 1.0
C      1  0.5325110000000  0.5506130000000  0.4121820000000 1.0
C      1  0.5909680000000  0.4486540000000  0.5287960000000 1.0
C      1  0.3965670000000  0.4464590000000  0.4672440000000 1.0
C      1  0.6053770000000  0.5537710000000  0.4672400000000 1.0
C      1  0.4015280000000  0.5466450000000  0.5325620000000 1.0
C      1  0.4395140000000  0.4906130000000  0.6034390000000 1.0
C      1  0.5578300000000  0.4858840000000  0.4104390000000 1.0
C      1  0.5541600000000  0.5170160000000  0.5901720000000 1.0
C      1  0.4440390000000  0.5093740000000  0.4070570000000 1.0
C      1  0.6046230000000  0.4890880000000  0.4385990000000 1.0
C      1  0.4081780000000  0.4880970000000  0.5572090000000 1.0
C      1  0.5873420000000  0.5150020000000  0.5538260000000 1.0
C      1  0.4154790000000  0.5077040000000  0.4442410000000 1.0
C      1  0.4409850000000  0.5438100000000  0.6006420000000 1.0
C      1  0.5464030000000  0.5320350000000  0.4332380000000 1.0
C      1  0.5402790000000  0.4697440000000  0.5738690000000 1.0
C      1  0.4435990000000  0.4575090000000  0.4058360000000 1.0
C      1  0.5989420000000  0.5423910000000  0.4414700000000 1.0
C      1  0.4060720000000  0.5395790000000  0.5594180000000 1.0
C      1  0.5713500000000  0.4681280000000  0.5423300000000 1.0
C      1  0.4061080000000  0.4554210000000  0.4408010000000 1.0
C      1  0.4747060000000  0.3907220000000  0.4907340000000 1.0
C      1  0.5261330000000  0.3879630000000  0.5049460000000 1.0
C      1  0.5266370000000  0.6091120000000  0.4956680000000 1.0
C      1  0.4769170000000  0.5993780000000  0.5111900000000 1.0
C      1  0.4946370000000  0.3847210000000  0.4725760000000 1.0
C      1  0.5071730000000  0.3879970000000  0.5252840000000 1.0
C      1  0.4941900000000  0.6066710000000  0.5308400000000 1.0
C      1  0.5072580000000  0.6091940000000  0.4761470000000 1.0
C      1  0.5843690000000  0.4226630000000  0.5167520000000 1.0
C      1  0.4052910000000  0.4213520000000  0.4761660000000 1.0
C      1  0.4057930000000  0.5728540000000  0.5244210000000 1.0
C      1  0.5959520000000  0.5792120000000  0.4745940000000 1.0
C      1  0.5156390000000  0.4268210000000  0.5867960000000 1.0
C      1  0.4805030000000  0.4201920000000  0.4104170000000 1.0
C      1  0.5199930000000  0.5763260000000  0.4174560000000 1.0
C      1  0.4744870000000  0.5820220000000  0.6017700000000 1.0
C      1  0.4302640000000  0.5351540000000  0.4085000000000 1.0
C      1  0.5731040000000  0.5391460000000  0.5930480000000 1.0
C      1  0.5747550000000  0.4623760000000  0.4094910000000 1.0
C      1  0.4290540000000  0.4648210000000  0.5947570000000 1.0
C      1  0.4106440000000  0.5341040000000  0.4304900000000 1.0
C      1  0.5925920000000  0.5380470000000  0.5712100000000 1.0
C      1  0.4122020000000  0.4638590000000  0.5719060000000 1.0
C      1  0.5971110000000  0.4634370000000  0.4267800000000 1.0
C      1  0.5007220000000  0.4443720000000  0.4898780000000 1.0
C      1  0.4985210000000  0.5622300000000  0.5052280000000 1.0
C      1  0.4930320000000  0.4985980000000  0.5002610000000 1.0
END
