TITL C-3578203-1966-33 -9.49706899854963e-07 125000 -872.244128479694 0 0 140 (C1) n - 1
REM
REM in /home/bkarasulu/work/CARBON/AIRSS/Generating-Clusters/EDIP-Nigel-Params/with-SteepDescent/Higher-Symm/SD-CG/HFTN-CG
REM
REM
REM
REM
REM
REM ./C.cell (12c818d87b63d06a65506943cc24bca4)
REM
REM compiler GCC version 9.2.1 20190827 (Red Hat 9.2.1-1)
REM options -cpp -mtune=generic -march=x86-64 -g -O0 -fpre-include=/usr/include/finclude/math-vector-fortran.h
REM seed 1938056929 -407167883 1575343466 -1749351608 -660677999 1967727748 1114339317 -178406061 -1637310990 97233429 1105864915 952675888 -720632290 -487334038 -1899170480 205352049 68844114 -7005331 330419527 1142653813 1593553575 -639553077 741666991 -1513596944 -457966227 -2123085273 -867285305 -669589010 -945879356 1559922843 -460065749 23230179 1121248473
REM
CELL 1.54180   50.00000   50.00000   50.00000   90.00000   90.00000   90.00000
LATT -1
SFAC C  
C      1  0.4202140000000  0.4735660000000  0.4954550000000 1.0
C      1  0.4202480000000  0.5266220000000  0.5046640000000 1.0
C      1  0.5523640000000  0.4358750000000  0.5505090000000 1.0
C      1  0.5529910000000  0.5647390000000  0.4478780000000 1.0
C      1  0.5140080000000  0.5145890000000  0.5019880000000 1.0
C      1  0.5142700000000  0.4860840000000  0.4980200000000 1.0
C      1  0.5880460000000  0.4699200000000  0.5150760000000 1.0
C      1  0.5876860000000  0.5305620000000  0.4844330000000 1.0
C      1  0.4833810000000  0.5093080000000  0.5423350000000 1.0
C      1  0.4838550000000  0.4904530000000  0.4577160000000 1.0
C      1  0.4506220000000  0.4680650000000  0.5435100000000 1.0
C      1  0.4509970000000  0.5318810000000  0.4568360000000 1.0
C      1  0.4519060000000  0.4905640000000  0.5922750000000 1.0
C      1  0.4517740000000  0.5094900000000  0.4079460000000 1.0
C      1  0.4914220000000  0.4423440000000  0.5589780000000 1.0
C      1  0.4916840000000  0.5572580000000  0.4410250000000 1.0
C      1  0.5024530000000  0.5132030000000  0.4596020000000 1.0
C      1  0.5020430000000  0.4865750000000  0.5402140000000 1.0
C      1  0.5118890000000  0.5952190000000  0.4635820000000 1.0
C      1  0.5113160000000  0.4032220000000  0.5369830000000 1.0
C      1  0.4890110000000  0.5859030000000  0.4485190000000 1.0
C      1  0.4886120000000  0.4136040000000  0.5515520000000 1.0
C      1  0.4229180000000  0.5583880000000  0.4998360000000 1.0
C      1  0.4227390000000  0.4418360000000  0.5001700000000 1.0
C      1  0.4061090000000  0.5144800000000  0.5279130000000 1.0
C      1  0.4061280000000  0.4856810000000  0.4721910000000 1.0
C      1  0.4467200000000  0.5116070000000  0.5101940000000 1.0
C      1  0.4467110000000  0.4886410000000  0.4899940000000 1.0
C      1  0.5977700000000  0.5122090000000  0.4629850000000 1.0
C      1  0.5982630000000  0.4883340000000  0.5365550000000 1.0
C      1  0.4956140000000  0.4185100000000  0.5060490000000 1.0
C      1  0.4957880000000  0.5814660000000  0.4946350000000 1.0
C      1  0.5425860000000  0.5644200000000  0.5099740000000 1.0
C      1  0.5425300000000  0.4356480000000  0.4914980000000 1.0
C      1  0.5539910000000  0.4746480000000  0.5847580000000 1.0
C      1  0.5534330000000  0.5255270000000  0.4132610000000 1.0
C      1  0.5352560000000  0.5389280000000  0.5482610000000 1.0
C      1  0.5357630000000  0.4614470000000  0.4519560000000 1.0
C      1  0.4673490000000  0.5736870000000  0.4855480000000 1.0
C      1  0.4670080000000  0.4263330000000  0.5146570000000 1.0
C      1  0.4163170000000  0.4375970000000  0.5273790000000 1.0
C      1  0.4166120000000  0.5624790000000  0.4725740000000 1.0
C      1  0.5254960000000  0.5131630000000  0.6038500000000 1.0
C      1  0.5251210000000  0.4861060000000  0.3963210000000 1.0
C      1  0.5362100000000  0.4652580000000  0.5228480000000 1.0
C      1  0.5353100000000  0.5372640000000  0.4764800000000 1.0
C      1  0.4085920000000  0.4716940000000  0.4478730000000 1.0
C      1  0.4086590000000  0.5284320000000  0.5522340000000 1.0
C      1  0.5843210000000  0.4863960000000  0.4678520000000 1.0
C      1  0.5841830000000  0.5139500000000  0.5319400000000 1.0
C      1  0.4728420000000  0.5427630000000  0.5818220000000 1.0
C      1  0.4726300000000  0.4572320000000  0.4177560000000 1.0
C      1  0.4464830000000  0.5755230000000  0.5073490000000 1.0
C      1  0.4463390000000  0.4247920000000  0.4926160000000 1.0
C      1  0.5224540000000  0.4910820000000  0.5603130000000 1.0
C      1  0.5227000000000  0.5091130000000  0.4392760000000 1.0
C      1  0.4975630000000  0.5413300000000  0.4669510000000 1.0
C      1  0.4969840000000  0.4582860000000  0.5330160000000 1.0
C      1  0.4419240000000  0.4934950000000  0.4282520000000 1.0
C      1  0.4418150000000  0.5065250000000  0.5720660000000 1.0
C      1  0.4834750000000  0.4156330000000  0.4591220000000 1.0
C      1  0.4828650000000  0.5863630000000  0.5413020000000 1.0
C      1  0.5120170000000  0.5574060000000  0.5038180000000 1.0
C      1  0.5122310000000  0.4427010000000  0.4980410000000 1.0
C      1  0.5116170000000  0.5496390000000  0.4197870000000 1.0
C      1  0.5116780000000  0.4503580000000  0.5798060000000 1.0
C      1  0.5006650000000  0.5807300000000  0.5886140000000 1.0
C      1  0.4985490000000  0.4165750000000  0.4108540000000 1.0
C      1  0.5367000000000  0.5805500000000  0.4687770000000 1.0
C      1  0.5376480000000  0.4152780000000  0.5326360000000 1.0
C      1  0.5485830000000  0.4365030000000  0.4615010000000 1.0
C      1  0.5486310000000  0.5638140000000  0.5396010000000 1.0
C      1  0.4685700000000  0.5290950000000  0.5036120000000 1.0
C      1  0.4685050000000  0.4713260000000  0.4969390000000 1.0
C      1  0.5549770000000  0.5191370000000  0.4579430000000 1.0
C      1  0.5555010000000  0.4817820000000  0.5422920000000 1.0
C      1  0.5064830000000  0.4994580000000  0.4144840000000 1.0
C      1  0.5068890000000  0.5007130000000  0.5850990000000 1.0
C      1  0.4911080000000  0.4769600000000  0.4312240000000 1.0
C      1  0.4913770000000  0.5237980000000  0.5679090000000 1.0
C      1  0.5436690000000  0.4748980000000  0.4931660000000 1.0
C      1  0.5431220000000  0.5257080000000  0.5067990000000 1.0
C      1  0.5882080000000  0.4695770000000  0.5575700000000 1.0
C      1  0.5871910000000  0.5298780000000  0.4415480000000 1.0
C      1  0.5317780000000  0.5874080000000  0.5491600000000 1.0
C      1  0.5322300000000  0.4126250000000  0.4507240000000 1.0
C      1  0.5401380000000  0.4530190000000  0.5720330000000 1.0
C      1  0.5402370000000  0.5468680000000  0.4270020000000 1.0
C      1  0.4209590000000  0.4625260000000  0.5394760000000 1.0
C      1  0.4213080000000  0.5374720000000  0.4606590000000 1.0
C      1  0.5769990000000  0.4385730000000  0.4562340000000 1.0
C      1  0.5769890000000  0.5617050000000  0.5450920000000 1.0
C      1  0.4241550000000  0.4529820000000  0.4334750000000 1.0
C      1  0.4243310000000  0.5471250000000  0.5665330000000 1.0
C      1  0.5464060000000  0.5904390000000  0.4959270000000 1.0
C      1  0.5464130000000  0.4089980000000  0.5043960000000 1.0
C      1  0.5721210000000  0.4859870000000  0.4950370000000 1.0
C      1  0.5719250000000  0.5146200000000  0.5046550000000 1.0
C      1  0.4563050000000  0.5743730000000  0.5347880000000 1.0
C      1  0.4562750000000  0.4260470000000  0.4652260000000 1.0
C      1  0.5187350000000  0.4575230000000  0.3989420000000 1.0
C      1  0.5151420000000  0.5395930000000  0.6070490000000 1.0
C      1  0.5258850000000  0.6026270000000  0.5240460000000 1.0
C      1  0.5259000000000  0.3979360000000  0.4760030000000 1.0
C      1  0.4683650000000  0.4684270000000  0.5915230000000 1.0
C      1  0.4681430000000  0.5316880000000  0.4084840000000 1.0
C      1  0.5434160000000  0.4893690000000  0.4512180000000 1.0
C      1  0.5432550000000  0.5111550000000  0.5486560000000 1.0
C      1  0.4643830000000  0.5466940000000  0.4330410000000 1.0
C      1  0.4641680000000  0.4531140000000  0.5672220000000 1.0
C      1  0.4926140000000  0.5289920000000  0.5189940000000 1.0
C      1  0.4924480000000  0.4717190000000  0.4814940000000 1.0
C      1  0.5123970000000  0.4545700000000  0.4374160000000 1.0
C      1  0.5093250000000  0.5451910000000  0.5566720000000 1.0
C      1  0.4368290000000  0.4317260000000  0.4462400000000 1.0
C      1  0.4367530000000  0.5685700000000  0.5536950000000 1.0
C      1  0.4973300000000  0.5275390000000  0.4047170000000 1.0
C      1  0.4975930000000  0.4726410000000  0.5947670000000 1.0
C      1  0.5487530000000  0.5014980000000  0.4004320000000 1.0
C      1  0.5492760000000  0.4981200000000  0.5988640000000 1.0
C      1  0.4538990000000  0.5000840000000  0.4569880000000 1.0
C      1  0.4534450000000  0.4998790000000  0.5433620000000 1.0
C      1  0.4969210000000  0.5991320000000  0.5183670000000 1.0
C      1  0.4971450000000  0.4022410000000  0.4815950000000 1.0
C      1  0.4638510000000  0.5897080000000  0.4613360000000 1.0
C      1  0.4633530000000  0.4101600000000  0.5387730000000 1.0
C      1  0.4694590000000  0.5437290000000  0.4791390000000 1.0
C      1  0.4690030000000  0.4562760000000  0.5212010000000 1.0
C      1  0.4441350000000  0.5335440000000  0.5830360000000 1.0
C      1  0.4440390000000  0.4665140000000  0.4171410000000 1.0
C      1  0.4926720000000  0.5563390000000  0.6007190000000 1.0
C      1  0.4928170000000  0.4423730000000  0.3998820000000 1.0
C      1  0.5789740000000  0.4455920000000  0.5428380000000 1.0
C      1  0.5792360000000  0.5544030000000  0.4558280000000 1.0
C      1  0.5910140000000  0.5387030000000  0.5431790000000 1.0
C      1  0.5914050000000  0.4614520000000  0.4570990000000 1.0
C      1  0.4090570000000  0.4842790000000  0.5224700000000 1.0
C      1  0.4091380000000  0.5158680000000  0.4776260000000 1.0
C      1  0.5055970000000  0.4237770000000  0.4387690000000 1.0
C      1  0.5052730000000  0.5752910000000  0.5600140000000 1.0
END
