TITL C-3577087-600-592 9.36600031044892e-07 125000 -1128.34196268475 0 0 178 (C1) n - 1
REM
REM in /home/bkarasulu/work/CARBON/AIRSS/Generating-Clusters/EDIP-Nigel-Params/with-SteepDescent/Higher-Symm/SD-CG/HFTN-CG
REM
REM
REM
REM
REM
REM ./C.cell (12c818d87b63d06a65506943cc24bca4)
REM
REM compiler GCC version 9.2.1 20190827 (Red Hat 9.2.1-1)
REM options -cpp -mtune=generic -march=x86-64 -g -O0 -fpre-include=/usr/include/finclude/math-vector-fortran.h
REM seed -81684641 392698596 -146063465 665412964 -1098977181 -904632404 1321194243 -235096996 1528055915 -615350204 -1224808278 -1472852196 1661311969 1370373925 1818955292 1127005241 -2089620863 1823589636 834302218 1469458509 200963967 2021733111 -269680143 -1206208371 1204192201 -1506042042 -1690690272 -1562211149 1739198514 1156152388 -1169945197 1078271204 -1938845201
REM
CELL 1.54180   50.00000   50.00000   50.00000   90.00000   90.00000   90.00000
LATT -1
SFAC C  
C      1  0.4540520000000  0.5508200000000  0.5840330000000 1.0
C      1  0.5383400000000  0.5523100000000  0.5836520000000 1.0
C      1  0.5861450000000  0.5513960000000  0.5218560000000 1.0
C      1  0.5714590000000  0.5500090000000  0.4479350000000 1.0
C      1  0.5044120000000  0.5505100000000  0.4120340000000 1.0
C      1  0.4346020000000  0.5515840000000  0.4417410000000 1.0
C      1  0.4123280000000  0.5509110000000  0.5152830000000 1.0
C      1  0.5126450000000  0.5223390000000  0.4154450000000 1.0
C      1  0.4450580000000  0.5239110000000  0.4405540000000 1.0
C      1  0.4205610000000  0.5229860000000  0.5094750000000 1.0
C      1  0.4500560000000  0.5220650000000  0.5753380000000 1.0
C      1  0.5304270000000  0.5244020000000  0.5789630000000 1.0
C      1  0.5791740000000  0.5232320000000  0.5259140000000 1.0
C      1  0.5742760000000  0.5216960000000  0.4545870000000 1.0
C      1  0.5271210000000  0.4829190000000  0.3914380000000 1.0
C      1  0.4369660000000  0.4837320000000  0.4190480000000 1.0
C      1  0.3989380000000  0.4809930000000  0.4994710000000 1.0
C      1  0.4160990000000  0.4847870000000  0.5838440000000 1.0
C      1  0.5215240000000  0.4832270000000  0.6046250000000 1.0
C      1  0.6017200000000  0.4848570000000  0.5458030000000 1.0
C      1  0.6086150000000  0.4853600000000  0.4558340000000 1.0
C      1  0.5394770000000  0.5755830000000  0.4303260000000 1.0
C      1  0.4695520000000  0.5791640000000  0.4230610000000 1.0
C      1  0.4192890000000  0.5792260000000  0.4760880000000 1.0
C      1  0.4294640000000  0.5801150000000  0.5484900000000 1.0
C      1  0.4946820000000  0.5756610000000  0.5810700000000 1.0
C      1  0.5620280000000  0.5792440000000  0.5546920000000 1.0
C      1  0.5799930000000  0.5774200000000  0.4862290000000 1.0
C      1  0.5209720000000  0.4279540000000  0.4693440000000 1.0
C      1  0.4916630000000  0.4365580000000  0.4636800000000 1.0
C      1  0.4795070000000  0.4242790000000  0.4901670000000 1.0
C      1  0.4729660000000  0.4423280000000  0.5158390000000 1.0
C      1  0.4982200000000  0.4428800000000  0.5350760000000 1.0
C      1  0.5263970000000  0.4311890000000  0.5213910000000 1.0
C      1  0.5276650000000  0.4430920000000  0.4941970000000 1.0
C      1  0.4745520000000  0.5195080000000  0.4430410000000 1.0
C      1  0.4469380000000  0.5225630000000  0.4901520000000 1.0
C      1  0.4527910000000  0.5217330000000  0.5452500000000 1.0
C      1  0.5115880000000  0.5244560000000  0.5564460000000 1.0
C      1  0.5503500000000  0.5225970000000  0.5351630000000 1.0
C      1  0.5626810000000  0.5170440000000  0.4810850000000 1.0
C      1  0.5291290000000  0.5184650000000  0.4401760000000 1.0
C      1  0.4956240000000  0.3947600000000  0.4919830000000 1.0
C      1  0.4570990000000  0.4016370000000  0.4905670000000 1.0
C      1  0.4541430000000  0.4035410000000  0.5232360000000 1.0
C      1  0.4804250000000  0.3987560000000  0.5381050000000 1.0
C      1  0.5285470000000  0.4007660000000  0.5222910000000 1.0
C      1  0.5456400000000  0.3986380000000  0.4974070000000 1.0
C      1  0.5221470000000  0.3996820000000  0.4781820000000 1.0
C      1  0.6034540000000  0.5126640000000  0.4577040000000 1.0
C      1  0.5316600000000  0.5116200000000  0.3941310000000 1.0
C      1  0.4396730000000  0.5117450000000  0.4134820000000 1.0
C      1  0.3982060000000  0.5096140000000  0.4949490000000 1.0
C      1  0.4213150000000  0.5123230000000  0.5808840000000 1.0
C      1  0.5176370000000  0.5116730000000  0.6033070000000 1.0
C      1  0.5962370000000  0.5123990000000  0.5480770000000 1.0
C      1  0.4419610000000  0.5950520000000  0.4631820000000 1.0
C      1  0.4384180000000  0.5913960000000  0.5203880000000 1.0
C      1  0.4775990000000  0.5872150000000  0.5595670000000 1.0
C      1  0.5336650000000  0.5909410000000  0.5546620000000 1.0
C      1  0.5633280000000  0.5914260000000  0.5074130000000 1.0
C      1  0.5446880000000  0.5881880000000  0.4566210000000 1.0
C      1  0.4942340000000  0.5915510000000  0.4351460000000 1.0
C      1  0.4411990000000  0.4290180000000  0.5344850000000 1.0
C      1  0.4922130000000  0.4209440000000  0.5568330000000 1.0
C      1  0.5490520000000  0.4300560000000  0.5642900000000 1.0
C      1  0.5665650000000  0.4222820000000  0.4929570000000 1.0
C      1  0.5434740000000  0.4254260000000  0.4376590000000 1.0
C      1  0.4789560000000  0.4231590000000  0.4381890000000 1.0
C      1  0.4399500000000  0.4201800000000  0.4704080000000 1.0
C      1  0.4545960000000  0.5682790000000  0.5591990000000 1.0
C      1  0.5193140000000  0.5681770000000  0.5668610000000 1.0
C      1  0.5628930000000  0.5693230000000  0.5269140000000 1.0
C      1  0.5585310000000  0.5658920000000  0.4696400000000 1.0
C      1  0.5114680000000  0.5671680000000  0.4353270000000 1.0
C      1  0.4544170000000  0.5721840000000  0.4476250000000 1.0
C      1  0.4310630000000  0.5692310000000  0.5015320000000 1.0
C      1  0.5535620000000  0.5108800000000  0.5639000000000 1.0
C      1  0.5825730000000  0.5084180000000  0.4996180000000 1.0
C      1  0.5557640000000  0.5081170000000  0.4344510000000 1.0
C      1  0.4855920000000  0.5083140000000  0.4184290000000 1.0
C      1  0.4324720000000  0.5102590000000  0.4645680000000 1.0
C      1  0.4268250000000  0.5101310000000  0.5358910000000 1.0
C      1  0.4745060000000  0.5045470000000  0.5823410000000 1.0
C      1  0.4894780000000  0.5196530000000  0.6039810000000 1.0
C      1  0.5804780000000  0.5224430000000  0.5714650000000 1.0
C      1  0.6067340000000  0.5210790000000  0.4857350000000 1.0
C      1  0.5578010000000  0.5195040000000  0.4063390000000 1.0
C      1  0.4647750000000  0.5196290000000  0.3995180000000 1.0
C      1  0.4040850000000  0.5197790000000  0.4676310000000 1.0
C      1  0.4079910000000  0.5220820000000  0.5566530000000 1.0
C      1  0.5612360000000  0.4600090000000  0.4158860000000 1.0
C      1  0.4736910000000  0.4580910000000  0.4050900000000 1.0
C      1  0.4065500000000  0.4666720000000  0.4548860000000 1.0
C      1  0.4075700000000  0.4615920000000  0.5423390000000 1.0
C      1  0.4839230000000  0.4555010000000  0.5897020000000 1.0
C      1  0.5747780000000  0.4641670000000  0.5764980000000 1.0
C      1  0.5982310000000  0.4604890000000  0.4967300000000 1.0
C      1  0.5907260000000  0.4335850000000  0.5079180000000 1.0
C      1  0.5699460000000  0.4337370000000  0.4248840000000 1.0
C      1  0.4851820000000  0.4306730000000  0.4087800000000 1.0
C      1  0.4078800000000  0.4476100000000  0.4341800000000 1.0
C      1  0.4102310000000  0.4340070000000  0.5310180000000 1.0
C      1  0.4727480000000  0.4310090000000  0.5768160000000 1.0
C      1  0.5636950000000  0.4397060000000  0.5882670000000 1.0
C      1  0.5950550000000  0.4589710000000  0.5550420000000 1.0
C      1  0.6067350000000  0.4607570000000  0.4685890000000 1.0
C      1  0.5413960000000  0.4579820000000  0.3941290000000 1.0
C      1  0.4440440000000  0.4592940000000  0.4058390000000 1.0
C      1  0.3919340000000  0.4613300000000  0.4795460000000 1.0
C      1  0.4082800000000  0.4599820000000  0.5723220000000 1.0
C      1  0.5074490000000  0.4581110000000  0.6082960000000 1.0
C      1  0.4775450000000  0.4824490000000  0.4891190000000 1.0
C      1  0.4599260000000  0.4698980000000  0.5090840000000 1.0
C      1  0.5069930000000  0.4744450000000  0.5458690000000 1.0
C      1  0.5263320000000  0.4822290000000  0.5212980000000 1.0
C      1  0.5192290000000  0.4694370000000  0.4956280000000 1.0
C      1  0.5198440000000  0.4805970000000  0.4682630000000 1.0
C      1  0.4839880000000  0.4676840000000  0.4630280000000 1.0
C      1  0.4726400000000  0.5639780000000  0.4712390000000 1.0
C      1  0.4565550000000  0.5524850000000  0.4942290000000 1.0
C      1  0.4592100000000  0.5489110000000  0.5379330000000 1.0
C      1  0.5114800000000  0.5507730000000  0.5410910000000 1.0
C      1  0.5356790000000  0.5555640000000  0.5196800000000 1.0
C      1  0.5322320000000  0.5525760000000  0.4871210000000 1.0
C      1  0.5031030000000  0.5550210000000  0.4663300000000 1.0
C      1  0.4915810000000  0.5240550000000  0.4664920000000 1.0
C      1  0.4768890000000  0.5119200000000  0.4901370000000 1.0
C      1  0.4749390000000  0.5058540000000  0.5351640000000 1.0
C      1  0.4926280000000  0.5016530000000  0.5565330000000 1.0
C      1  0.5266590000000  0.5122870000000  0.5165070000000 1.0
C      1  0.5351270000000  0.5222760000000  0.4877400000000 1.0
C      1  0.5183080000000  0.5104970000000  0.4657250000000 1.0
C      1  0.5275040000000  0.4369430000000  0.6022470000000 1.0
C      1  0.5831310000000  0.4365260000000  0.5364430000000 1.0
C      1  0.5870550000000  0.4355800000000  0.4490130000000 1.0
C      1  0.5152580000000  0.4310350000000  0.3987550000000 1.0
C      1  0.4313990000000  0.4372400000000  0.4222050000000 1.0
C      1  0.4037760000000  0.4328350000000  0.5022120000000 1.0
C      1  0.4229700000000  0.4365960000000  0.5802900000000 1.0
C      1  0.4501040000000  0.4688800000000  0.5602850000000 1.0
C      1  0.5249960000000  0.4683760000000  0.5691980000000 1.0
C      1  0.5541910000000  0.4721470000000  0.5303240000000 1.0
C      1  0.5562690000000  0.4685830000000  0.4722460000000 1.0
C      1  0.5170970000000  0.4703880000000  0.4268300000000 1.0
C      1  0.4560130000000  0.4657360000000  0.4477490000000 1.0
C      1  0.4338220000000  0.4668510000000  0.4932900000000 1.0
C      1  0.5227930000000  0.4375760000000  0.5724960000000 1.0
C      1  0.5531170000000  0.4410670000000  0.5366780000000 1.0
C      1  0.5630770000000  0.4385250000000  0.4679170000000 1.0
C      1  0.5180860000000  0.4398200000000  0.4273560000000 1.0
C      1  0.4511750000000  0.4344800000000  0.4450510000000 1.0
C      1  0.4307950000000  0.4373940000000  0.4922420000000 1.0
C      1  0.4467900000000  0.4393330000000  0.5634130000000 1.0
C      1  0.5653440000000  0.5563210000000  0.5740010000000 1.0
C      1  0.5982420000000  0.5555640000000  0.4961950000000 1.0
C      1  0.5582530000000  0.5533680000000  0.4226050000000 1.0
C      1  0.4763350000000  0.5544720000000  0.4064090000000 1.0
C      1  0.4121830000000  0.5546480000000  0.4597480000000 1.0
C      1  0.4104700000000  0.5567030000000  0.5438020000000 1.0
C      1  0.4805440000000  0.5533200000000  0.5961720000000 1.0
C      1  0.5184280000000  0.5952570000000  0.5287900000000 1.0
C      1  0.5335700000000  0.5964530000000  0.5029660000000 1.0
C      1  0.5224270000000  0.5942920000000  0.4752270000000 1.0
C      1  0.4954620000000  0.6009250000000  0.4641500000000 1.0
C      1  0.4685460000000  0.6016260000000  0.4809760000000 1.0
C      1  0.4669120000000  0.5987210000000  0.5124270000000 1.0
C      1  0.4886330000000  0.5931490000000  0.5323550000000 1.0
C      1  0.5737070000000  0.4778360000000  0.5000180000000 1.0
C      1  0.5530400000000  0.4780830000000  0.4396620000000 1.0
C      1  0.4883320000000  0.4783970000000  0.4210410000000 1.0
C      1  0.4330420000000  0.4781580000000  0.4644350000000 1.0
C      1  0.4327770000000  0.4787320000000  0.5350450000000 1.0
C      1  0.4652920000000  0.4770800000000  0.5847510000000 1.0
C      1  0.5529880000000  0.4794390000000  0.5613150000000 1.0
C      1  0.4833800000000  0.5507380000000  0.5212350000000 1.0
C      1  0.4904100000000  0.5208160000000  0.5154290000000 1.0
C      1  0.5016160000000  0.3882040000000  0.5200030000000 1.0
END
