TITL C-3578195-8548-707 -7.52970087835665e-07 125000 -357.722196036812 0 0 59 (C1) n - 1
REM
REM in /home/bkarasulu/work/CARBON/AIRSS/Generating-Clusters/EDIP-Nigel-Params/with-SteepDescent/Higher-Symm/SD-CG/HFTN-CG
REM
REM
REM
REM
REM
REM ./C.cell (12c818d87b63d06a65506943cc24bca4)
REM
REM compiler GCC version 9.2.1 20190827 (Red Hat 9.2.1-1)
REM options -cpp -mtune=generic -march=x86-64 -g -O0 -fpre-include=/usr/include/finclude/math-vector-fortran.h
REM seed -1403912270 -1099582259 1274267149 -1733144548 1357343801 -145082861 671705236 -822022970 -2040089267 432590920 1598327347 -772580542 1652810290 -1942822893 938429710 -281225474 -1532875 1827653975 -1711143292 -1917383777 943901016 1017252155 208778912 -229208041 -1835688958 495314621 -1466862901 1371145213 -692282424 1593669100 -1169553498 -1308843800 -1539373252
REM
CELL 1.54180   50.00000   50.00000   50.00000   90.00000   90.00000   90.00000
LATT -1
SFAC C  
C      1  0.5504190000000  0.4798690000000  0.5665310000000 1.0
C      1  0.5477460000000  0.4770460000000  0.4341770000000 1.0
C      1  0.5922850000000  0.4861280000000  0.5151040000000 1.0
C      1  0.5900370000000  0.4810860000000  0.4869620000000 1.0
C      1  0.4836400000000  0.4862390000000  0.5147370000000 1.0
C      1  0.4825580000000  0.4868880000000  0.4837540000000 1.0
C      1  0.4554080000000  0.4893910000000  0.4435050000000 1.0
C      1  0.4567610000000  0.4876720000000  0.5554980000000 1.0
C      1  0.4366560000000  0.5421810000000  0.4863250000000 1.0
C      1  0.4360850000000  0.5417130000000  0.5152240000000 1.0
C      1  0.4589540000000  0.4488390000000  0.4842560000000 1.0
C      1  0.4600530000000  0.4483540000000  0.5147650000000 1.0
C      1  0.4348560000000  0.4925930000000  0.5139430000000 1.0
C      1  0.4340610000000  0.4930370000000  0.4856810000000 1.0
C      1  0.5583760000000  0.4556280000000  0.5202200000000 1.0
C      1  0.5482500000000  0.4575880000000  0.4940410000000 1.0
C      1  0.4817750000000  0.4978240000000  0.5667870000000 1.0
C      1  0.4802130000000  0.4996960000000  0.4315040000000 1.0
C      1  0.4555310000000  0.4778480000000  0.4725270000000 1.0
C      1  0.4567570000000  0.4770790000000  0.5263980000000 1.0
C      1  0.4998210000000  0.5578650000000  0.4732090000000 1.0
C      1  0.4992070000000  0.5580740000000  0.5274000000000 1.0
C      1  0.5508230000000  0.5059640000000  0.4865380000000 1.0
C      1  0.5488670000000  0.5048700000000  0.5150910000000 1.0
C      1  0.4679190000000  0.5293200000000  0.5399140000000 1.0
C      1  0.4673160000000  0.5307540000000  0.4597520000000 1.0
C      1  0.4851040000000  0.4394890000000  0.5251320000000 1.0
C      1  0.4826850000000  0.4390460000000  0.4724250000000 1.0
C      1  0.5005550000000  0.4622670000000  0.4735120000000 1.0
C      1  0.5033970000000  0.4622770000000  0.5223960000000 1.0
C      1  0.4274090000000  0.5168200000000  0.5283000000000 1.0
C      1  0.4271180000000  0.5180750000000  0.4724240000000 1.0
C      1  0.5694250000000  0.4782400000000  0.4522340000000 1.0
C      1  0.5738470000000  0.4867900000000  0.5515810000000 1.0
C      1  0.5047920000000  0.4849540000000  0.4273430000000 1.0
C      1  0.5065840000000  0.4832840000000  0.5695630000000 1.0
C      1  0.4812860000000  0.5357350000000  0.5660370000000 1.0
C      1  0.4816650000000  0.5373290000000  0.4341230000000 1.0
C      1  0.5632020000000  0.4801620000000  0.4789500000000 1.0
C      1  0.5669190000000  0.4832320000000  0.5254380000000 1.0
C      1  0.5296140000000  0.5306970000000  0.5573070000000 1.0
C      1  0.5300410000000  0.5306450000000  0.4432110000000 1.0
C      1  0.5146960000000  0.4658850000000  0.4472810000000 1.0
C      1  0.5197140000000  0.4680650000000  0.5478470000000 1.0
C      1  0.5054160000000  0.5495410000000  0.5572650000000 1.0
C      1  0.5063330000000  0.5500620000000  0.4433220000000 1.0
C      1  0.4890840000000  0.5131580000000  0.5258280000000 1.0
C      1  0.4874590000000  0.5145510000000  0.4749490000000 1.0
C      1  0.4704610000000  0.5600220000000  0.5158740000000 1.0
C      1  0.4708250000000  0.5607850000000  0.4843780000000 1.0
C      1  0.5351490000000  0.5263200000000  0.5285820000000 1.0
C      1  0.5333010000000  0.5234620000000  0.4715120000000 1.0
C      1  0.5305420000000  0.4993100000000  0.5765110000000 1.0
C      1  0.5305890000000  0.4992550000000  0.4235380000000 1.0
C      1  0.5093880000000  0.5323790000000  0.5155900000000 1.0
C      1  0.5089550000000  0.5320530000000  0.4851070000000 1.0
C      1  0.4383810000000  0.5106270000000  0.5544940000000 1.0
C      1  0.4374880000000  0.5126820000000  0.4457830000000 1.0
C      1  0.5190310000000  0.4584670000000  0.4964170000000 1.0
END
