TITL C-3577079-311-103 -4.23361278229217e-06 125000 -778.568224964867 0 0 125 (C1) n - 1
REM
REM in /home/bkarasulu/work/CARBON/AIRSS/Generating-Clusters/EDIP-Nigel-Params/with-SteepDescent/Higher-Symm/SD-CG/HFTN-CG
REM
REM
REM
REM
REM
REM ./C.cell (12c818d87b63d06a65506943cc24bca4)
REM
REM compiler GCC version 9.2.1 20190827 (Red Hat 9.2.1-1)
REM options -cpp -mtune=generic -march=x86-64 -g -O0 -fpre-include=/usr/include/finclude/math-vector-fortran.h
REM seed -1328396474 -1871606817 1528329628 958588640 740924580 -181883777 2092197528 285379701 -1884257985 -765143395 -895755647 1735376063 1918269282 1428550187 1147670485 976618008 -1814897256 1965777296 -545797968 2002848467 2141843051 700526029 -103587058 -969070162 1183527350 -1983355081 959098035 2085182895 -2105209003 -1639785112 2138629987 -703021967 71240141
REM
CELL 1.54180   50.00000   50.00000   50.00000   90.00000   90.00000   90.00000
LATT -1
SFAC C  
C      1  0.5149940000000  0.5022140000000  0.4535160000000 1.0
C      1  0.5125960000000  0.5020320000000  0.5517420000000 1.0
C      1  0.5905750000000  0.5420870000000  0.5044690000000 1.0
C      1  0.5840580000000  0.4740170000000  0.5055530000000 1.0
C      1  0.4609980000000  0.4247390000000  0.5036380000000 1.0
C      1  0.4609590000000  0.5697760000000  0.4972700000000 1.0
C      1  0.5380810000000  0.4421950000000  0.5191640000000 1.0
C      1  0.5538150000000  0.5670420000000  0.4758760000000 1.0
C      1  0.5354060000000  0.5799000000000  0.4573180000000 1.0
C      1  0.5293640000000  0.4234250000000  0.5383550000000 1.0
C      1  0.5298310000000  0.4006740000000  0.4909440000000 1.0
C      1  0.5315290000000  0.5972890000000  0.5070030000000 1.0
C      1  0.4410150000000  0.4175170000000  0.4836950000000 1.0
C      1  0.4415900000000  0.5781800000000  0.5194220000000 1.0
C      1  0.4872360000000  0.5053350000000  0.4676680000000 1.0
C      1  0.4854790000000  0.4908680000000  0.5415330000000 1.0
C      1  0.4899100000000  0.5587100000000  0.5711340000000 1.0
C      1  0.4862520000000  0.4403330000000  0.4273940000000 1.0
C      1  0.4508180000000  0.5261240000000  0.5586590000000 1.0
C      1  0.4520220000000  0.4730330000000  0.4436940000000 1.0
C      1  0.5362440000000  0.4887430000000  0.5930430000000 1.0
C      1  0.5377110000000  0.5084650000000  0.4076260000000 1.0
C      1  0.4960720000000  0.5511680000000  0.4588180000000 1.0
C      1  0.4931840000000  0.4436950000000  0.5532310000000 1.0
C      1  0.4819630000000  0.4166260000000  0.5488460000000 1.0
C      1  0.4842120000000  0.5785690000000  0.4537390000000 1.0
C      1  0.4569940000000  0.4805100000000  0.4940020000000 1.0
C      1  0.4515740000000  0.5106500000000  0.5087860000000 1.0
C      1  0.4248020000000  0.4633930000000  0.5243410000000 1.0
C      1  0.4231350000000  0.5379950000000  0.4751660000000 1.0
C      1  0.5237870000000  0.5935650000000  0.5363960000000 1.0
C      1  0.5201540000000  0.4029630000000  0.4606740000000 1.0
C      1  0.4679120000000  0.5154240000000  0.5342610000000 1.0
C      1  0.4727770000000  0.4780430000000  0.4674310000000 1.0
C      1  0.5585710000000  0.4800940000000  0.5567830000000 1.0
C      1  0.5574930000000  0.5304230000000  0.4512160000000 1.0
C      1  0.5998260000000  0.4959710000000  0.4939840000000 1.0
C      1  0.6035270000000  0.5169400000000  0.5134570000000 1.0
C      1  0.4245220000000  0.4901480000000  0.5373590000000 1.0
C      1  0.4223590000000  0.5102740000000  0.4629290000000 1.0
C      1  0.4322760000000  0.4503630000000  0.4519650000000 1.0
C      1  0.4303550000000  0.5451180000000  0.5502780000000 1.0
C      1  0.5788970000000  0.5560190000000  0.5267680000000 1.0
C      1  0.5777030000000  0.4580470000000  0.4800790000000 1.0
C      1  0.4902660000000  0.5786970000000  0.5029160000000 1.0
C      1  0.4879740000000  0.4155860000000  0.4930870000000 1.0
C      1  0.5163970000000  0.5261630000000  0.5347780000000 1.0
C      1  0.5246800000000  0.4763200000000  0.4658480000000 1.0
C      1  0.4684950000000  0.4630490000000  0.4201130000000 1.0
C      1  0.4697300000000  0.5383380000000  0.5800320000000 1.0
C      1  0.5262760000000  0.4658960000000  0.4127470000000 1.0
C      1  0.5332060000000  0.5319770000000  0.5833580000000 1.0
C      1  0.5337700000000  0.4266450000000  0.4460450000000 1.0
C      1  0.5379240000000  0.5708430000000  0.5499180000000 1.0
C      1  0.4810770000000  0.5218220000000  0.4169330000000 1.0
C      1  0.4801580000000  0.4792740000000  0.5841030000000 1.0
C      1  0.4967140000000  0.4797790000000  0.5127320000000 1.0
C      1  0.4938260000000  0.5053330000000  0.4968790000000 1.0
C      1  0.5150790000000  0.4933430000000  0.4185510000000 1.0
C      1  0.5164230000000  0.5072220000000  0.5826770000000 1.0
C      1  0.5030380000000  0.4416750000000  0.4917130000000 1.0
C      1  0.5070430000000  0.5545510000000  0.4937310000000 1.0
C      1  0.4723490000000  0.4777550000000  0.3967330000000 1.0
C      1  0.4742920000000  0.5242660000000  0.6034640000000 1.0
C      1  0.5300800000000  0.5352110000000  0.4169260000000 1.0
C      1  0.5299350000000  0.4620710000000  0.5853220000000 1.0
C      1  0.4661070000000  0.4555810000000  0.5115140000000 1.0
C      1  0.4587050000000  0.5380420000000  0.4909520000000 1.0
C      1  0.4567900000000  0.5807480000000  0.4697210000000 1.0
C      1  0.4545370000000  0.4174440000000  0.5321110000000 1.0
C      1  0.4959780000000  0.5860380000000  0.5312480000000 1.0
C      1  0.4896570000000  0.4058340000000  0.4643970000000 1.0
C      1  0.5594960000000  0.5140040000000  0.5746700000000 1.0
C      1  0.5546770000000  0.4744100000000  0.4155160000000 1.0
C      1  0.4337500000000  0.4397960000000  0.5418490000000 1.0
C      1  0.4375890000000  0.5601500000000  0.4586680000000 1.0
C      1  0.4906560000000  0.5029750000000  0.5970830000000 1.0
C      1  0.4900010000000  0.4981890000000  0.4033540000000 1.0
C      1  0.5075690000000  0.4047920000000  0.5370050000000 1.0
C      1  0.5099460000000  0.5933540000000  0.4618460000000 1.0
C      1  0.4530350000000  0.5832230000000  0.5447650000000 1.0
C      1  0.4471610000000  0.4265420000000  0.4576620000000 1.0
C      1  0.4504110000000  0.5493640000000  0.4359450000000 1.0
C      1  0.4434810000000  0.4502890000000  0.5674170000000 1.0
C      1  0.5819080000000  0.4779930000000  0.4578290000000 1.0
C      1  0.5708530000000  0.5243160000000  0.5474500000000 1.0
C      1  0.4173330000000  0.5371320000000  0.5059670000000 1.0
C      1  0.4156680000000  0.4654810000000  0.4955340000000 1.0
C      1  0.5929540000000  0.5063610000000  0.5392100000000 1.0
C      1  0.5890920000000  0.5050050000000  0.4685470000000 1.0
C      1  0.5349720000000  0.5215590000000  0.4670460000000 1.0
C      1  0.5346840000000  0.4862430000000  0.5407400000000 1.0
C      1  0.4396020000000  0.5012250000000  0.4408260000000 1.0
C      1  0.4379160000000  0.4984640000000  0.5624310000000 1.0
C      1  0.4123670000000  0.4495680000000  0.4725310000000 1.0
C      1  0.4225910000000  0.5572000000000  0.5259400000000 1.0
C      1  0.5048330000000  0.3953940000000  0.5088150000000 1.0
C      1  0.5061870000000  0.6013890000000  0.4900360000000 1.0
C      1  0.5742410000000  0.5401740000000  0.4757820000000 1.0
C      1  0.5826850000000  0.4787000000000  0.5361120000000 1.0
C      1  0.5271160000000  0.4712950000000  0.5170860000000 1.0
C      1  0.5447550000000  0.5131120000000  0.4942160000000 1.0
C      1  0.4751000000000  0.4268260000000  0.4504790000000 1.0
C      1  0.4791340000000  0.5788630000000  0.5529420000000 1.0
C      1  0.5524810000000  0.4537350000000  0.5697950000000 1.0
C      1  0.5514430000000  0.5483640000000  0.4300570000000 1.0
C      1  0.4148320000000  0.5124960000000  0.5216110000000 1.0
C      1  0.4210030000000  0.4912380000000  0.4841570000000 1.0
C      1  0.4530430000000  0.5231360000000  0.4257650000000 1.0
C      1  0.4508470000000  0.4766060000000  0.5778480000000 1.0
C      1  0.5498390000000  0.5564700000000  0.5252160000000 1.0
C      1  0.5501950000000  0.4417250000000  0.4692840000000 1.0
C      1  0.5002460000000  0.4573170000000  0.5786840000000 1.0
C      1  0.5030590000000  0.5378510000000  0.4298300000000 1.0
C      1  0.4968090000000  0.5306790000000  0.5124020000000 1.0
C      1  0.4984570000000  0.4596730000000  0.4691310000000 1.0
C      1  0.5202170000000  0.5542460000000  0.5684780000000 1.0
C      1  0.5153710000000  0.4454310000000  0.4308160000000 1.0
C      1  0.5439970000000  0.5263830000000  0.5240710000000 1.0
C      1  0.5561400000000  0.4725090000000  0.4446340000000 1.0
C      1  0.4719560000000  0.4609950000000  0.5428020000000 1.0
C      1  0.4721550000000  0.5326190000000  0.4637480000000 1.0
C      1  0.5316460000000  0.4317460000000  0.4928060000000 1.0
C      1  0.5366790000000  0.5680900000000  0.5002490000000 1.0
C      1  0.5366420000000  0.4847650000000  0.4924820000000 1.0
END
