TITL C-3577087-600-296 1.71196976210084e-06 125000 -1212.06237019713 0 0 192 (C1) n - 1
REM
REM in /home/bkarasulu/work/CARBON/AIRSS/Generating-Clusters/EDIP-Nigel-Params/with-SteepDescent/Higher-Symm/SD-CG/HFTN-CG
REM
REM
REM
REM
REM
REM ./C.cell (12c818d87b63d06a65506943cc24bca4)
REM
REM compiler GCC version 9.2.1 20190827 (Red Hat 9.2.1-1)
REM options -cpp -mtune=generic -march=x86-64 -g -O0 -fpre-include=/usr/include/finclude/math-vector-fortran.h
REM seed -1563954902 712525496 -1088653261 744802326 -572858036 2011082550 -1322765422 708533243 1029044574 -1874946981 -2074108696 186793787 -1825727817 987217818 -812677785 -212313534 -1901539599 -39684497 1965874659 -448771724 1348538114 -590260933 696290444 399501577 -549385365 -910408312 -1992433054 657947065 -172434477 903624981 1208223312 1959577676 -1792769342
REM
CELL 1.54180   50.00000   50.00000   50.00000   90.00000   90.00000   90.00000
LATT -1
SFAC C  
C      1  0.4445730000000  0.5413200000000  0.5011720000000 1.0
C      1  0.5640500000000  0.4697870000000  0.4937550000000 1.0
C      1  0.5633360000000  0.4867640000000  0.5775130000000 1.0
C      1  0.4350170000000  0.5143060000000  0.4141310000000 1.0
C      1  0.4717960000000  0.3982470000000  0.4383880000000 1.0
C      1  0.5272920000000  0.6037210000000  0.5660860000000 1.0
C      1  0.5156270000000  0.5664200000000  0.4885290000000 1.0
C      1  0.4836580000000  0.4334000000000  0.5038860000000 1.0
C      1  0.4278300000000  0.4812310000000  0.5478820000000 1.0
C      1  0.5737230000000  0.5141120000000  0.4533750000000 1.0
C      1  0.4749810000000  0.3784230000000  0.4584430000000 1.0
C      1  0.5240900000000  0.6243190000000  0.5468610000000 1.0
C      1  0.5590550000000  0.4203810000000  0.4696270000000 1.0
C      1  0.4392030000000  0.5790180000000  0.5308810000000 1.0
C      1  0.4962810000000  0.4366670000000  0.5995450000000 1.0
C      1  0.5053770000000  0.5508320000000  0.4063950000000 1.0
C      1  0.5158880000000  0.4575880000000  0.5920990000000 1.0
C      1  0.4783070000000  0.5393530000000  0.4086550000000 1.0
C      1  0.4654670000000  0.4429920000000  0.4817190000000 1.0
C      1  0.5317790000000  0.5608930000000  0.5143080000000 1.0
C      1  0.4751440000000  0.4721910000000  0.5326050000000 1.0
C      1  0.5245530000000  0.5296290000000  0.4653260000000 1.0
C      1  0.5836590000000  0.4454230000000  0.5612580000000 1.0
C      1  0.4049940000000  0.5624250000000  0.4429320000000 1.0
C      1  0.6014560000000  0.5019300000000  0.4480360000000 1.0
C      1  0.4018780000000  0.4926250000000  0.5565850000000 1.0
C      1  0.5770460000000  0.4784410000000  0.4040450000000 1.0
C      1  0.4248770000000  0.5189740000000  0.5983720000000 1.0
C      1  0.4920200000000  0.4182800000000  0.5781570000000 1.0
C      1  0.5100410000000  0.5707430000000  0.4275420000000 1.0
C      1  0.4882900000000  0.5873910000000  0.4378400000000 1.0
C      1  0.5154130000000  0.4054230000000  0.5655690000000 1.0
C      1  0.5718770000000  0.5447160000000  0.4537420000000 1.0
C      1  0.4321020000000  0.4510180000000  0.5470500000000 1.0
C      1  0.4764490000000  0.4876500000000  0.4035580000000 1.0
C      1  0.5206170000000  0.5103690000000  0.5916080000000 1.0
C      1  0.5205950000000  0.4529170000000  0.5414220000000 1.0
C      1  0.4753820000000  0.5504310000000  0.4554920000000 1.0
C      1  0.4424920000000  0.4358850000000  0.4273150000000 1.0
C      1  0.5582410000000  0.5664280000000  0.5764210000000 1.0
C      1  0.5123860000000  0.4072680000000  0.4795860000000 1.0
C      1  0.4878560000000  0.5969770000000  0.5238540000000 1.0
C      1  0.5657170000000  0.5141910000000  0.6044180000000 1.0
C      1  0.4306550000000  0.4751820000000  0.3933970000000 1.0
C      1  0.4110120000000  0.5097900000000  0.4572130000000 1.0
C      1  0.5942250000000  0.5139900000000  0.5392610000000 1.0
C      1  0.4759480000000  0.5000680000000  0.6111690000000 1.0
C      1  0.5266390000000  0.4995790000000  0.3892680000000 1.0
C      1  0.5991580000000  0.5306630000000  0.4967740000000 1.0
C      1  0.3983600000000  0.4683690000000  0.4948070000000 1.0
C      1  0.5138700000000  0.6003470000000  0.5078750000000 1.0
C      1  0.4870510000000  0.4042000000000  0.4963820000000 1.0
C      1  0.4617190000000  0.4417300000000  0.4060940000000 1.0
C      1  0.5378740000000  0.5563590000000  0.5954100000000 1.0
C      1  0.5111660000000  0.4504390000000  0.5105210000000 1.0
C      1  0.4889920000000  0.5516180000000  0.4855710000000 1.0
C      1  0.4090830000000  0.4983220000000  0.5846020000000 1.0
C      1  0.5967850000000  0.4940610000000  0.4198200000000 1.0
C      1  0.6105410000000  0.4801020000000  0.4706830000000 1.0
C      1  0.3982190000000  0.5109850000000  0.5228810000000 1.0
C      1  0.5533470000000  0.4885050000000  0.3893290000000 1.0
C      1  0.4489410000000  0.5096260000000  0.6113950000000 1.0
C      1  0.5382330000000  0.5933990000000  0.4619030000000 1.0
C      1  0.4642640000000  0.4048640000000  0.5392620000000 1.0
C      1  0.5041110000000  0.4547670000000  0.4566410000000 1.0
C      1  0.4957210000000  0.5484730000000  0.5440820000000 1.0
C      1  0.4882740000000  0.5979710000000  0.4651130000000 1.0
C      1  0.5137580000000  0.3984790000000  0.5371590000000 1.0
C      1  0.4276250000000  0.5410410000000  0.5783060000000 1.0
C      1  0.5720630000000  0.4543740000000  0.4205950000000 1.0
C      1  0.4271900000000  0.4765350000000  0.4963140000000 1.0
C      1  0.5699490000000  0.5261580000000  0.5013570000000 1.0
C      1  0.4569650000000  0.4467900000000  0.5282530000000 1.0
C      1  0.5466670000000  0.5516380000000  0.4701800000000 1.0
C      1  0.5473660000000  0.5850770000000  0.5569430000000 1.0
C      1  0.4527500000000  0.4180120000000  0.4474770000000 1.0
C      1  0.5861520000000  0.4336910000000  0.4804330000000 1.0
C      1  0.4117650000000  0.5622900000000  0.5185470000000 1.0
C      1  0.4607230000000  0.5795880000000  0.4323440000000 1.0
C      1  0.5426060000000  0.4151360000000  0.5717850000000 1.0
C      1  0.5141820000000  0.4723670000000  0.5636610000000 1.0
C      1  0.4818350000000  0.5264020000000  0.4361450000000 1.0
C      1  0.4545160000000  0.4658930000000  0.5861660000000 1.0
C      1  0.5537410000000  0.5329840000000  0.4123760000000 1.0
C      1  0.5427120000000  0.4409550000000  0.5879230000000 1.0
C      1  0.4555880000000  0.5585970000000  0.4117270000000 1.0
C      1  0.4473890000000  0.5407970000000  0.5348340000000 1.0
C      1  0.5537050000000  0.4592990000000  0.4649460000000 1.0
C      1  0.4744820000000  0.5076890000000  0.5660440000000 1.0
C      1  0.5276800000000  0.4941990000000  0.4325070000000 1.0
C      1  0.4617930000000  0.6000070000000  0.4795720000000 1.0
C      1  0.5393950000000  0.3993500000000  0.5222080000000 1.0
C      1  0.5398920000000  0.5276330000000  0.6056520000000 1.0
C      1  0.4577970000000  0.4674640000000  0.3922380000000 1.0
C      1  0.4301130000000  0.5436590000000  0.4180640000000 1.0
C      1  0.5666260000000  0.4568050000000  0.5820290000000 1.0
C      1  0.4859140000000  0.4804730000000  0.5585150000000 1.0
C      1  0.5129690000000  0.5213180000000  0.4386070000000 1.0
C      1  0.5465700000000  0.5255280000000  0.5493030000000 1.0
C      1  0.4513030000000  0.4796930000000  0.4500190000000 1.0
C      1  0.4287020000000  0.4597030000000  0.4376820000000 1.0
C      1  0.5705130000000  0.5423040000000  0.5649510000000 1.0
C      1  0.4388870000000  0.4027640000000  0.5282020000000 1.0
C      1  0.5635720000000  0.5990290000000  0.4718390000000 1.0
C      1  0.4030180000000  0.5382640000000  0.5348570000000 1.0
C      1  0.5988960000000  0.4538650000000  0.4611710000000 1.0
C      1  0.4335530000000  0.4945060000000  0.5208170000000 1.0
C      1  0.5614340000000  0.5039040000000  0.4805520000000 1.0
C      1  0.4101760000000  0.5787170000000  0.4669880000000 1.0
C      1  0.5848770000000  0.4193850000000  0.5340620000000 1.0
C      1  0.4627440000000  0.5898440000000  0.5085370000000 1.0
C      1  0.5386730000000  0.4123880000000  0.4937290000000 1.0
C      1  0.5894800000000  0.4373550000000  0.5099620000000 1.0
C      1  0.4062810000000  0.5586770000000  0.4888830000000 1.0
C      1  0.4425640000000  0.4491760000000  0.4996090000000 1.0
C      1  0.5567350000000  0.5542090000000  0.4999420000000 1.0
C      1  0.4238960000000  0.5410220000000  0.4477520000000 1.0
C      1  0.5801410000000  0.4671430000000  0.5412950000000 1.0
C      1  0.4798630000000  0.4711020000000  0.6012790000000 1.0
C      1  0.5263630000000  0.5280420000000  0.4025550000000 1.0
C      1  0.5910100000000  0.5004800000000  0.5671560000000 1.0
C      1  0.4109090000000  0.5023030000000  0.4263940000000 1.0
C      1  0.5110520000000  0.4769590000000  0.4980510000000 1.0
C      1  0.4916890000000  0.5253830000000  0.4994640000000 1.0
C      1  0.5142140000000  0.6059640000000  0.4765250000000 1.0
C      1  0.4879320000000  0.3945440000000  0.5245240000000 1.0
C      1  0.4741250000000  0.5261330000000  0.5402490000000 1.0
C      1  0.5275820000000  0.4749480000000  0.4571200000000 1.0
C      1  0.4637590000000  0.5601410000000  0.6036790000000 1.0
C      1  0.5350190000000  0.4383390000000  0.3959640000000 1.0
C      1  0.4149020000000  0.4748930000000  0.4165560000000 1.0
C      1  0.5841070000000  0.5240730000000  0.5849580000000 1.0
C      1  0.4962660000000  0.4119690000000  0.4292370000000 1.0
C      1  0.5028820000000  0.5888800000000  0.5740730000000 1.0
C      1  0.5316970000000  0.5022930000000  0.4761590000000 1.0
C      1  0.4647110000000  0.4981110000000  0.5215440000000 1.0
C      1  0.4453120000000  0.4909320000000  0.5723020000000 1.0
C      1  0.5573760000000  0.5065800000000  0.4276340000000 1.0
C      1  0.5588830000000  0.5947770000000  0.5316700000000 1.0
C      1  0.4395590000000  0.4084030000000  0.4721530000000 1.0
C      1  0.5528770000000  0.4863880000000  0.5212780000000 1.0
C      1  0.4512650000000  0.5150520000000  0.4842050000000 1.0
C      1  0.3880860000000  0.5116400000000  0.4950650000000 1.0
C      1  0.6041170000000  0.4847710000000  0.4997930000000 1.0
C      1  0.5745010000000  0.5774020000000  0.5111370000000 1.0
C      1  0.4238040000000  0.4263090000000  0.4924260000000 1.0
C      1  0.4672180000000  0.5619200000000  0.5016410000000 1.0
C      1  0.5398150000000  0.4420890000000  0.5029020000000 1.0
C      1  0.5654500000000  0.5129030000000  0.5281350000000 1.0
C      1  0.4343960000000  0.4947100000000  0.4714330000000 1.0
C      1  0.4832520000000  0.4823660000000  0.4905840000000 1.0
C      1  0.5160630000000  0.5195900000000  0.5132180000000 1.0
C      1  0.6096760000000  0.5099150000000  0.5127650000000 1.0
C      1  0.3824700000000  0.4876550000000  0.4821570000000 1.0
C      1  0.5555790000000  0.4161170000000  0.5420710000000 1.0
C      1  0.4412400000000  0.5850820000000  0.4618730000000 1.0
C      1  0.5349230000000  0.4982160000000  0.5675990000000 1.0
C      1  0.4610540000000  0.5016720000000  0.4266380000000 1.0
C      1  0.4084480000000  0.4505990000000  0.4554220000000 1.0
C      1  0.5943150000000  0.5447080000000  0.5456640000000 1.0
C      1  0.4910980000000  0.5180330000000  0.5926740000000 1.0
C      1  0.5066220000000  0.4803700000000  0.4026960000000 1.0
C      1  0.4568010000000  0.5768820000000  0.5569860000000 1.0
C      1  0.5410700000000  0.4233910000000  0.4438700000000 1.0
C      1  0.5995680000000  0.4630640000000  0.5188450000000 1.0
C      1  0.3928100000000  0.5348440000000  0.4791490000000 1.0
C      1  0.4632120000000  0.3910190000000  0.4811900000000 1.0
C      1  0.5364450000000  0.6131740000000  0.5237040000000 1.0
C      1  0.4166450000000  0.4111720000000  0.5157730000000 1.0
C      1  0.5833820000000  0.5934870000000  0.4890700000000 1.0
C      1  0.4895340000000  0.4341420000000  0.4103390000000 1.0
C      1  0.5100220000000  0.5652010000000  0.5910520000000 1.0
C      1  0.4473550000000  0.4411490000000  0.5707170000000 1.0
C      1  0.5598310000000  0.5574280000000  0.4288560000000 1.0
C      1  0.4255210000000  0.5297430000000  0.5517010000000 1.0
C      1  0.5763500000000  0.4655540000000  0.4466500000000 1.0
C      1  0.4009570000000  0.4423720000000  0.4806940000000 1.0
C      1  0.5953520000000  0.5642560000000  0.5257500000000 1.0
C      1  0.5367320000000  0.5774400000000  0.4363740000000 1.0
C      1  0.4680510000000  0.4215400000000  0.5626130000000 1.0
C      1  0.4511920000000  0.5578170000000  0.5790160000000 1.0
C      1  0.5466300000000  0.4414150000000  0.4209640000000 1.0
C      1  0.5236470000000  0.4931330000000  0.5182180000000 1.0
C      1  0.4788340000000  0.5084410000000  0.4816720000000 1.0
C      1  0.5100520000000  0.4506200000000  0.3975140000000 1.0
C      1  0.4885890000000  0.5476230000000  0.6004740000000 1.0
C      1  0.5490680000000  0.4448050000000  0.5336900000000 1.0
C      1  0.4461740000000  0.5535160000000  0.4640160000000 1.0
C      1  0.4865150000000  0.5785680000000  0.5493910000000 1.0
C      1  0.5122740000000  0.4239340000000  0.4530580000000 1.0
C      1  0.5226220000000  0.5400260000000  0.5325450000000 1.0
C      1  0.4767590000000  0.4648020000000  0.4669900000000 1.0
END
