TITL C-3577091-527-440 -2.23728073523652e-06 125000 -499.433428442625 0 0 82 (C1) n - 1
REM
REM in /home/bkarasulu/work/CARBON/AIRSS/Generating-Clusters/EDIP-Nigel-Params/with-SteepDescent/Higher-Symm/SD-CG/HFTN-CG
REM
REM
REM
REM
REM
REM ./C.cell (12c818d87b63d06a65506943cc24bca4)
REM
REM compiler GCC version 9.2.1 20190827 (Red Hat 9.2.1-1)
REM options -cpp -mtune=generic -march=x86-64 -g -O0 -fpre-include=/usr/include/finclude/math-vector-fortran.h
REM seed 1067783646 568953572 457404070 1400247162 539188987 423475456 -645297201 -902100727 1553584324 -522437274 356183994 1419241116 -1172491160 230626026 -2143348580 -1376996680 -568145852 -2106470691 15193319 -1349796727 1846619382 1354888632 1315821790 -291089436 1940379852 -713399585 2052978637 -927866431 161440634 1783843413 -2133714966 1154997091 1152944163
REM
CELL 1.54180   50.00000   50.00000   50.00000   90.00000   90.00000   90.00000
LATT -1
SFAC C  
C      1  0.4894560000000  0.4331160000000  0.4672950000000 1.0
C      1  0.5079790000000  0.5686530000000  0.5308340000000 1.0
C      1  0.4849420000000  0.4170950000000  0.5087720000000 1.0
C      1  0.5168650000000  0.5794830000000  0.4884310000000 1.0
C      1  0.4569760000000  0.4615800000000  0.4767530000000 1.0
C      1  0.5450750000000  0.5390920000000  0.5227730000000 1.0
C      1  0.5732350000000  0.4838830000000  0.5009440000000 1.0
C      1  0.4276110000000  0.5137980000000  0.4994570000000 1.0
C      1  0.5049640000000  0.5573690000000  0.5580290000000 1.0
C      1  0.4932640000000  0.4440990000000  0.4404360000000 1.0
C      1  0.4728500000000  0.4961040000000  0.5107530000000 1.0
C      1  0.5285280000000  0.5032230000000  0.4896000000000 1.0
C      1  0.5563120000000  0.4631860000000  0.4651580000000 1.0
C      1  0.4419670000000  0.5363660000000  0.5351960000000 1.0
C      1  0.4764110000000  0.4787060000000  0.5746290000000 1.0
C      1  0.5240200000000  0.5226700000000  0.4267650000000 1.0
C      1  0.4579840000000  0.4165420000000  0.4993570000000 1.0
C      1  0.5434260000000  0.5783400000000  0.4980670000000 1.0
C      1  0.5266930000000  0.4318400000000  0.5080840000000 1.0
C      1  0.4687380000000  0.5704430000000  0.4911980000000 1.0
C      1  0.5422190000000  0.4435090000000  0.5286600000000 1.0
C      1  0.4540910000000  0.5604030000000  0.4689080000000 1.0
C      1  0.4375450000000  0.5110340000000  0.5746540000000 1.0
C      1  0.5618040000000  0.4878630000000  0.4251460000000 1.0
C      1  0.5505090000000  0.5116200000000  0.4689440000000 1.0
C      1  0.4513590000000  0.4867070000000  0.5318000000000 1.0
C      1  0.5617460000000  0.5571830000000  0.4852030000000 1.0
C      1  0.4466960000000  0.4418700000000  0.5139780000000 1.0
C      1  0.5434090000000  0.4815780000000  0.5086050000000 1.0
C      1  0.4576360000000  0.5173130000000  0.4925180000000 1.0
C      1  0.4819550000000  0.4724940000000  0.4922740000000 1.0
C      1  0.5196360000000  0.5274480000000  0.5077450000000 1.0
C      1  0.5788440000000  0.4632530000000  0.4817430000000 1.0
C      1  0.4200320000000  0.5344980000000  0.5179870000000 1.0
C      1  0.4540530000000  0.4738250000000  0.4500090000000 1.0
C      1  0.5468820000000  0.5291750000000  0.5504980000000 1.0
C      1  0.4322080000000  0.4626740000000  0.4955260000000 1.0
C      1  0.5710940000000  0.5356040000000  0.5050120000000 1.0
C      1  0.5211840000000  0.4530440000000  0.4391060000000 1.0
C      1  0.4772000000000  0.5481190000000  0.5606810000000 1.0
C      1  0.5272300000000  0.5452230000000  0.4451880000000 1.0
C      1  0.4740640000000  0.4548530000000  0.5578550000000 1.0
C      1  0.4560950000000  0.5166720000000  0.4617470000000 1.0
C      1  0.5446770000000  0.4864210000000  0.5389310000000 1.0
C      1  0.4600130000000  0.4996280000000  0.5601110000000 1.0
C      1  0.5401020000000  0.5003930000000  0.4399970000000 1.0
C      1  0.4268730000000  0.4872500000000  0.5129850000000 1.0
C      1  0.5749970000000  0.5104700000000  0.4876480000000 1.0
C      1  0.5507820000000  0.5404170000000  0.4622180000000 1.0
C      1  0.4522960000000  0.4580820000000  0.5390560000000 1.0
C      1  0.5158730000000  0.4349470000000  0.4820890000000 1.0
C      1  0.4791030000000  0.5677100000000  0.5178580000000 1.0
C      1  0.4865400000000  0.5173750000000  0.4658350000000 1.0
C      1  0.5140070000000  0.4825290000000  0.5351930000000 1.0
C      1  0.4254360000000  0.5274750000000  0.5560650000000 1.0
C      1  0.5730880000000  0.4707430000000  0.4438380000000 1.0
C      1  0.4893500000000  0.4884560000000  0.4163100000000 1.0
C      1  0.5107940000000  0.5139250000000  0.5831990000000 1.0
C      1  0.4877760000000  0.5688790000000  0.4520500000000 1.0
C      1  0.5123400000000  0.4298650000000  0.5492680000000 1.0
C      1  0.5356020000000  0.4433280000000  0.4623220000000 1.0
C      1  0.4608560000000  0.5579500000000  0.5384790000000 1.0
C      1  0.4971600000000  0.5084840000000  0.5274960000000 1.0
C      1  0.5037790000000  0.4915140000000  0.4727920000000 1.0
C      1  0.5231940000000  0.5350010000000  0.5667190000000 1.0
C      1  0.4759280000000  0.4671800000000  0.4317400000000 1.0
C      1  0.4742270000000  0.5357270000000  0.4261370000000 1.0
C      1  0.5257660000000  0.4662300000000  0.5734250000000 1.0
C      1  0.5023660000000  0.5452740000000  0.4621730000000 1.0
C      1  0.4970980000000  0.4536580000000  0.5392980000000 1.0
C      1  0.4859450000000  0.4471930000000  0.5123560000000 1.0
C      1  0.5089510000000  0.5515660000000  0.4898220000000 1.0
C      1  0.5358760000000  0.4436590000000  0.5586380000000 1.0
C      1  0.4639460000000  0.5585310000000  0.4400940000000 1.0
C      1  0.5051500000000  0.4859060000000  0.5777530000000 1.0
C      1  0.4950420000000  0.5160800000000  0.4233090000000 1.0
C      1  0.5596110000000  0.5050280000000  0.5538140000000 1.0
C      1  0.4408870000000  0.4978690000000  0.4475640000000 1.0
C      1  0.4841920000000  0.5181690000000  0.5557030000000 1.0
C      1  0.5152650000000  0.4826580000000  0.4440670000000 1.0
C      1  0.5384370000000  0.5684050000000  0.5253830000000 1.0
C      1  0.4618880000000  0.4244790000000  0.4719430000000 1.0
END
