TITL C-3577077-324-188 -6.12375044028605e-06 125000 -1020.56148284567 0 0 163 (C1) n - 1
REM
REM in /home/bkarasulu/work/CARBON/AIRSS/Generating-Clusters/EDIP-Nigel-Params/with-SteepDescent/Higher-Symm/SD-CG/HFTN-CG
REM
REM
REM
REM
REM
REM ./C.cell (12c818d87b63d06a65506943cc24bca4)
REM
REM compiler GCC version 9.2.1 20190827 (Red Hat 9.2.1-1)
REM options -cpp -mtune=generic -march=x86-64 -g -O0 -fpre-include=/usr/include/finclude/math-vector-fortran.h
REM seed -423904726 215048097 399613585 1856529951 1168499538 -1143963534 1563320795 397003842 -1594092265 -213696796 759389440 -1937464741 1196111387 1747365420 711929085 -1782604361 -1477910679 1994280879 1986558392 -2105384018 894194418 2104095008 762239835 703444570 -730656216 -609138061 1037594775 1089117533 -1093470644 1556092544 -557851372 1974158402 609822863
REM
CELL 1.54180   50.00000   50.00000   50.00000   90.00000   90.00000   90.00000
LATT -1
SFAC C  
C      1  0.5936450000000  0.4723620000000  0.4558220000000 1.0
C      1  0.6039990000000  0.5492060000000  0.4993070000000 1.0
C      1  0.5161950000000  0.4939340000000  0.3790370000000 1.0
C      1  0.4228430000000  0.4464470000000  0.4822340000000 1.0
C      1  0.4406470000000  0.5029160000000  0.4291070000000 1.0
C      1  0.5494180000000  0.5196050000000  0.4074740000000 1.0
C      1  0.5546760000000  0.5196740000000  0.4746370000000 1.0
C      1  0.4650860000000  0.5394390000000  0.4094430000000 1.0
C      1  0.5319360000000  0.5098190000000  0.6012130000000 1.0
C      1  0.4701460000000  0.3972060000000  0.5288200000000 1.0
C      1  0.4855190000000  0.4174850000000  0.5739260000000 1.0
C      1  0.4159290000000  0.5015720000000  0.4691630000000 1.0
C      1  0.5081840000000  0.3972230000000  0.4931390000000 1.0
C      1  0.4205120000000  0.5315220000000  0.4707890000000 1.0
C      1  0.4759390000000  0.5839080000000  0.5439740000000 1.0
C      1  0.5380390000000  0.4878560000000  0.5349560000000 1.0
C      1  0.5560490000000  0.5813700000000  0.4802190000000 1.0
C      1  0.5438650000000  0.5582710000000  0.5819380000000 1.0
C      1  0.4540490000000  0.4517850000000  0.5931650000000 1.0
C      1  0.5211480000000  0.5286830000000  0.4412350000000 1.0
C      1  0.5453410000000  0.4696740000000  0.3884550000000 1.0
C      1  0.4427130000000  0.4840400000000  0.5125290000000 1.0
C      1  0.4689740000000  0.4499250000000  0.4660130000000 1.0
C      1  0.4900170000000  0.5204450000000  0.4109340000000 1.0
C      1  0.5005230000000  0.5661100000000  0.4752530000000 1.0
C      1  0.5374780000000  0.4180940000000  0.4576410000000 1.0
C      1  0.4886980000000  0.5598620000000  0.5804560000000 1.0
C      1  0.4146170000000  0.4915710000000  0.4404630000000 1.0
C      1  0.5754560000000  0.4902110000000  0.5629440000000 1.0
C      1  0.5842450000000  0.4617810000000  0.5214690000000 1.0
C      1  0.5367960000000  0.5987550000000  0.4663850000000 1.0
C      1  0.5268000000000  0.5563090000000  0.4592290000000 1.0
C      1  0.5687760000000  0.5130170000000  0.4319820000000 1.0
C      1  0.5712510000000  0.5692640000000  0.5295960000000 1.0
C      1  0.4307280000000  0.4862610000000  0.5427430000000 1.0
C      1  0.4563960000000  0.4543580000000  0.5182550000000 1.0
C      1  0.4628090000000  0.5375260000000  0.4632190000000 1.0
C      1  0.4198350000000  0.5487670000000  0.5483980000000 1.0
C      1  0.4346580000000  0.5474310000000  0.5213090000000 1.0
C      1  0.5801050000000  0.5263090000000  0.5374710000000 1.0
C      1  0.5566730000000  0.4707870000000  0.4794070000000 1.0
C      1  0.5729510000000  0.5189030000000  0.5686400000000 1.0
C      1  0.4079140000000  0.5112490000000  0.5143170000000 1.0
C      1  0.5782090000000  0.5347400000000  0.4624150000000 1.0
C      1  0.4869040000000  0.5479940000000  0.5207540000000 1.0
C      1  0.5106880000000  0.4227130000000  0.4443080000000 1.0
C      1  0.4853460000000  0.5398810000000  0.4824460000000 1.0
C      1  0.4640640000000  0.4066530000000  0.5561680000000 1.0
C      1  0.5570450000000  0.4475310000000  0.5636110000000 1.0
C      1  0.5948620000000  0.5017120000000  0.4971990000000 1.0
C      1  0.5009300000000  0.5141440000000  0.5993900000000 1.0
C      1  0.5333810000000  0.4354460000000  0.5772350000000 1.0
C      1  0.5758390000000  0.4662960000000  0.4114770000000 1.0
C      1  0.4912400000000  0.3871620000000  0.4728640000000 1.0
C      1  0.5175910000000  0.6089770000000  0.5283480000000 1.0
C      1  0.4611100000000  0.4355290000000  0.4247320000000 1.0
C      1  0.6005470000000  0.5280660000000  0.4815010000000 1.0
C      1  0.5371090000000  0.4482990000000  0.4891630000000 1.0
C      1  0.4463010000000  0.4984460000000  0.5673170000000 1.0
C      1  0.4228580000000  0.4629380000000  0.4411140000000 1.0
C      1  0.5357180000000  0.4424300000000  0.5185060000000 1.0
C      1  0.5535650000000  0.5114840000000  0.5215570000000 1.0
C      1  0.4972670000000  0.4559050000000  0.6054740000000 1.0
C      1  0.5191260000000  0.5678740000000  0.4197940000000 1.0
C      1  0.5548880000000  0.4597660000000  0.5349100000000 1.0
C      1  0.5088910000000  0.5292630000000  0.5290790000000 1.0
C      1  0.5563660000000  0.5606190000000  0.5534100000000 1.0
C      1  0.4779550000000  0.4349310000000  0.5972530000000 1.0
C      1  0.4835030000000  0.4929870000000  0.5346670000000 1.0
C      1  0.5265170000000  0.5643660000000  0.5472880000000 1.0
C      1  0.4432810000000  0.4898910000000  0.4762240000000 1.0
C      1  0.4664170000000  0.5035790000000  0.5109940000000 1.0
C      1  0.4108450000000  0.4498760000000  0.5267660000000 1.0
C      1  0.4358260000000  0.4313250000000  0.5267260000000 1.0
C      1  0.4866150000000  0.5882640000000  0.4575410000000 1.0
C      1  0.5090770000000  0.4833930000000  0.5193900000000 1.0
C      1  0.4502880000000  0.4808920000000  0.4095640000000 1.0
C      1  0.5398380000000  0.5927980000000  0.4384850000000 1.0
C      1  0.4897100000000  0.5066030000000  0.4407910000000 1.0
C      1  0.5996740000000  0.5062480000000  0.5265470000000 1.0
C      1  0.4393050000000  0.4218420000000  0.5552430000000 1.0
C      1  0.5833330000000  0.4462790000000  0.4641940000000 1.0
C      1  0.4840870000000  0.4437040000000  0.4069270000000 1.0
C      1  0.5361070000000  0.4451720000000  0.4048970000000 1.0
C      1  0.5972100000000  0.4697250000000  0.4938010000000 1.0
C      1  0.4071920000000  0.4608410000000  0.5000470000000 1.0
C      1  0.4026900000000  0.4900550000000  0.4946230000000 1.0
C      1  0.5244080000000  0.4954620000000  0.5616270000000 1.0
C      1  0.4400720000000  0.4616740000000  0.4656620000000 1.0
C      1  0.5603300000000  0.4435370000000  0.4207120000000 1.0
C      1  0.5935590000000  0.5517900000000  0.5251840000000 1.0
C      1  0.5117530000000  0.5776420000000  0.5715580000000 1.0
C      1  0.4607780000000  0.5077930000000  0.4535870000000 1.0
C      1  0.5252320000000  0.5810980000000  0.5208500000000 1.0
C      1  0.4653450000000  0.5677860000000  0.5653810000000 1.0
C      1  0.4372310000000  0.5311420000000  0.4192670000000 1.0
C      1  0.4354880000000  0.4388390000000  0.5769210000000 1.0
C      1  0.5701860000000  0.5639780000000  0.4604840000000 1.0
C      1  0.4883030000000  0.4032950000000  0.4496570000000 1.0
C      1  0.5064420000000  0.4528480000000  0.5207740000000 1.0
C      1  0.5129830000000  0.4698390000000  0.4731150000000 1.0
C      1  0.4358420000000  0.5774530000000  0.4424670000000 1.0
C      1  0.4900570000000  0.4982640000000  0.3894000000000 1.0
C      1  0.4406270000000  0.5527580000000  0.5695600000000 1.0
C      1  0.4613120000000  0.5909530000000  0.5205160000000 1.0
C      1  0.4264720000000  0.5135350000000  0.5841460000000 1.0
C      1  0.5021430000000  0.6182070000000  0.5027170000000 1.0
C      1  0.4991150000000  0.4911010000000  0.4911370000000 1.0
C      1  0.4260540000000  0.5488580000000  0.4433140000000 1.0
C      1  0.4382830000000  0.5374280000000  0.5932350000000 1.0
C      1  0.5222290000000  0.5367030000000  0.4120030000000 1.0
C      1  0.4168700000000  0.5348050000000  0.5006810000000 1.0
C      1  0.5642560000000  0.4995310000000  0.4947740000000 1.0
C      1  0.5197090000000  0.4032580000000  0.5393080000000 1.0
C      1  0.5118140000000  0.6105800000000  0.4753830000000 1.0
C      1  0.4836580000000  0.4911540000000  0.6051420000000 1.0
C      1  0.4918470000000  0.5760460000000  0.4298970000000 1.0
C      1  0.4421170000000  0.5728160000000  0.5084990000000 1.0
C      1  0.5348230000000  0.4086700000000  0.4860980000000 1.0
C      1  0.5594520000000  0.4363850000000  0.4490190000000 1.0
C      1  0.5355190000000  0.4953950000000  0.3994130000000 1.0
C      1  0.4912590000000  0.5298880000000  0.5750020000000 1.0
C      1  0.5375980000000  0.4804620000000  0.4581310000000 1.0
C      1  0.5569690000000  0.5703400000000  0.4359730000000 1.0
C      1  0.4954130000000  0.4575550000000  0.4524350000000 1.0
C      1  0.4677390000000  0.4135520000000  0.4875350000000 1.0
C      1  0.4090570000000  0.4685200000000  0.5478380000000 1.0
C      1  0.4721140000000  0.5547300000000  0.4328550000000 1.0
C      1  0.4439600000000  0.5675450000000  0.4793760000000 1.0
C      1  0.5049770000000  0.5181700000000  0.4805280000000 1.0
C      1  0.5393590000000  0.4789860000000  0.5940560000000 1.0
C      1  0.4702280000000  0.4664530000000  0.5423690000000 1.0
C      1  0.5933110000000  0.4820460000000  0.5410710000000 1.0
C      1  0.5139260000000  0.4162650000000  0.5652320000000 1.0
C      1  0.5107210000000  0.4360130000000  0.4174190000000 1.0
C      1  0.4486820000000  0.4062160000000  0.5098660000000 1.0
C      1  0.5258570000000  0.4527370000000  0.6000940000000 1.0
C      1  0.4555570000000  0.5892950000000  0.4622170000000 1.0
C      1  0.5133020000000  0.5235550000000  0.5570350000000 1.0
C      1  0.4995800000000  0.5997640000000  0.5521190000000 1.0
C      1  0.5436570000000  0.5083140000000  0.4500940000000 1.0
C      1  0.4028900000000  0.5209410000000  0.5690800000000 1.0
C      1  0.4795110000000  0.4749390000000  0.4061490000000 1.0
C      1  0.4924850000000  0.4791740000000  0.4324240000000 1.0
C      1  0.4665380000000  0.5194720000000  0.5567810000000 1.0
C      1  0.4616260000000  0.5309150000000  0.5264540000000 1.0
C      1  0.5413750000000  0.4137540000000  0.5237060000000 1.0
C      1  0.4761970000000  0.6054770000000  0.5016260000000 1.0
C      1  0.4394230000000  0.4552400000000  0.4187140000000 1.0
C      1  0.4983870000000  0.3982120000000  0.5204530000000 1.0
C      1  0.5642070000000  0.4707610000000  0.5800240000000 1.0
C      1  0.5337440000000  0.5323560000000  0.5152010000000 1.0
C      1  0.5844940000000  0.4858120000000  0.4311480000000 1.0
C      1  0.5484330000000  0.5285850000000  0.5834460000000 1.0
C      1  0.4651700000000  0.4787240000000  0.5843550000000 1.0
C      1  0.5309150000000  0.5338060000000  0.4860300000000 1.0
C      1  0.4771130000000  0.4431570000000  0.4967960000000 1.0
C      1  0.3987080000000  0.5168320000000  0.5412980000000 1.0
C      1  0.5018830000000  0.4739530000000  0.5711520000000 1.0
C      1  0.5522860000000  0.5766030000000  0.5084280000000 1.0
C      1  0.4990500000000  0.5743590000000  0.5055610000000 1.0
C      1  0.4950030000000  0.4526480000000  0.5489360000000 1.0
C      1  0.4620870000000  0.4156820000000  0.4480520000000 1.0
END
