TITL C-3578202-4305-120 -4.78294133525978e-07 125000 -757.766524368546 0 0 120 (C1) n - 1
REM
REM in /home/bkarasulu/work/CARBON/AIRSS/Generating-Clusters/EDIP-Nigel-Params/with-SteepDescent/Higher-Symm/SD-CG/HFTN-CG
REM
REM
REM
REM
REM
REM ./C.cell (12c818d87b63d06a65506943cc24bca4)
REM
REM compiler GCC version 9.2.1 20190827 (Red Hat 9.2.1-1)
REM options -cpp -mtune=generic -march=x86-64 -g -O0 -fpre-include=/usr/include/finclude/math-vector-fortran.h
REM seed -348614179 -64141234 -1850527293 -306742422 1745127533 1182776839 -1572322715 663535718 -989915331 -1343030406 1876298973 -496549727 -1059821094 -948675052 1251690207 636416965 463504509 2135302684 1756956626 -1415499523 1866238790 1883861915 -457344398 -1536884937 1611514744 185713304 -1339960211 -1695248622 532438890 302585820 18503501 -1100638480 -1767496189
REM
CELL 1.54180   50.00000   50.00000   50.00000   90.00000   90.00000   90.00000
LATT -1
SFAC C  
C      1  0.4340040000000  0.5280870000000  0.5341850000000 1.0
C      1  0.5142360000000  0.5292550000000  0.5717190000000 1.0
C      1  0.5746360000000  0.5294510000000  0.5097420000000 1.0
C      1  0.5325310000000  0.5309310000000  0.4322410000000 1.0
C      1  0.4435570000000  0.5328690000000  0.4449960000000 1.0
C      1  0.4857420000000  0.5129530000000  0.4123830000000 1.0
C      1  0.4071780000000  0.5100860000000  0.4872020000000 1.0
C      1  0.4610060000000  0.5106110000000  0.5776880000000 1.0
C      1  0.5670480000000  0.5095560000000  0.5619750000000 1.0
C      1  0.5784480000000  0.5130900000000  0.4594860000000 1.0
C      1  0.5909820000000  0.5053460000000  0.5185800000000 1.0
C      1  0.5461980000000  0.5059700000000  0.4227800000000 1.0
C      1  0.4411390000000  0.5068530000000  0.4328530000000 1.0
C      1  0.4162340000000  0.5035320000000  0.5355510000000 1.0
C      1  0.5092440000000  0.5040710000000  0.5869230000000 1.0
C      1  0.4642370000000  0.5704530000000  0.5544870000000 1.0
C      1  0.5409550000000  0.5695490000000  0.5509270000000 1.0
C      1  0.5611920000000  0.5723660000000  0.4765810000000 1.0
C      1  0.4970130000000  0.5726210000000  0.4345410000000 1.0
C      1  0.4368460000000  0.5693570000000  0.4821020000000 1.0
C      1  0.4919560000000  0.5728080000000  0.5642600000000 1.0
C      1  0.5590230000000  0.5726260000000  0.5279150000000 1.0
C      1  0.5445130000000  0.5748200000000  0.4523880000000 1.0
C      1  0.4688400000000  0.5746030000000  0.4425780000000 1.0
C      1  0.4357230000000  0.5718150000000  0.5114510000000 1.0
C      1  0.5106960000000  0.4424250000000  0.5279140000000 1.0
C      1  0.5236170000000  0.4410430000000  0.5015170000000 1.0
C      1  0.5041640000000  0.4411930000000  0.4812520000000 1.0
C      1  0.4777860000000  0.4459850000000  0.4925560000000 1.0
C      1  0.4826930000000  0.4384960000000  0.5200120000000 1.0
C      1  0.4111080000000  0.4908190000000  0.5092420000000 1.0
C      1  0.4841880000000  0.4927140000000  0.5764750000000 1.0
C      1  0.5777140000000  0.4907750000000  0.5413590000000 1.0
C      1  0.5602470000000  0.4943520000000  0.4460470000000 1.0
C      1  0.4672490000000  0.4950980000000  0.4263510000000 1.0
C      1  0.5122230000000  0.5724750000000  0.5422300000000 1.0
C      1  0.5443140000000  0.5732140000000  0.5014810000000 1.0
C      1  0.5151330000000  0.5739670000000  0.4584200000000 1.0
C      1  0.4652210000000  0.5730030000000  0.4724860000000 1.0
C      1  0.4631260000000  0.5723290000000  0.5244620000000 1.0
C      1  0.4516220000000  0.4387430000000  0.5517930000000 1.0
C      1  0.5283360000000  0.4354900000000  0.5627060000000 1.0
C      1  0.5686100000000  0.4415220000000  0.4878980000000 1.0
C      1  0.5098500000000  0.4401930000000  0.4340010000000 1.0
C      1  0.4387680000000  0.4408550000000  0.4668860000000 1.0
C      1  0.4206850000000  0.4261450000000  0.5096420000000 1.0
C      1  0.4856900000000  0.4176290000000  0.5745410000000 1.0
C      1  0.5655970000000  0.4258330000000  0.5385300000000 1.0
C      1  0.5542950000000  0.4183490000000  0.4493770000000 1.0
C      1  0.4679030000000  0.4195790000000  0.4338940000000 1.0
C      1  0.4095390000000  0.4524470000000  0.5047310000000 1.0
C      1  0.4729840000000  0.4428880000000  0.5711680000000 1.0
C      1  0.5686390000000  0.4528000000000  0.5445810000000 1.0
C      1  0.5632860000000  0.4433480000000  0.4592040000000 1.0
C      1  0.4814700000000  0.4439090000000  0.4282550000000 1.0
C      1  0.4912960000000  0.4814090000000  0.5243960000000 1.0
C      1  0.5214030000000  0.4825920000000  0.5157840000000 1.0
C      1  0.5224990000000  0.4814000000000  0.4838810000000 1.0
C      1  0.4931670000000  0.4827870000000  0.4727980000000 1.0
C      1  0.4739450000000  0.4811070000000  0.4974600000000 1.0
C      1  0.4894670000000  0.5076610000000  0.4560530000000 1.0
C      1  0.4596480000000  0.5072760000000  0.4957210000000 1.0
C      1  0.4837050000000  0.5063080000000  0.5400150000000 1.0
C      1  0.5316250000000  0.5079040000000  0.5260410000000 1.0
C      1  0.5377010000000  0.5068410000000  0.4754280000000 1.0
C      1  0.5935770000000  0.4861080000000  0.4966710000000 1.0
C      1  0.5273680000000  0.4856440000000  0.4134760000000 1.0
C      1  0.4266370000000  0.4870090000000  0.4478530000000 1.0
C      1  0.4268510000000  0.4840340000000  0.5544370000000 1.0
C      1  0.5296170000000  0.4834740000000  0.5836550000000 1.0
C      1  0.4719750000000  0.4690600000000  0.4431620000000 1.0
C      1  0.4367740000000  0.4617820000000  0.5112040000000 1.0
C      1  0.4898200000000  0.4666060000000  0.5602390000000 1.0
C      1  0.5574910000000  0.4723480000000  0.5259360000000 1.0
C      1  0.5453600000000  0.4684160000000  0.4560110000000 1.0
C      1  0.4055570000000  0.4973790000000  0.4627170000000 1.0
C      1  0.4365100000000  0.4979020000000  0.5764770000000 1.0
C      1  0.5545970000000  0.4955360000000  0.5822750000000 1.0
C      1  0.5987820000000  0.5009630000000  0.4737640000000 1.0
C      1  0.5067700000000  0.4993040000000  0.4007340000000 1.0
C      1  0.4653860000000  0.5390660000000  0.5754440000000 1.0
C      1  0.5609670000000  0.5376990000000  0.5555150000000 1.0
C      1  0.5733670000000  0.5415820000000  0.4585120000000 1.0
C      1  0.4839290000000  0.5415270000000  0.4172100000000 1.0
C      1  0.4178490000000  0.5374300000000  0.4893500000000 1.0
C      1  0.5751960000000  0.5486310000000  0.5324870000000 1.0
C      1  0.5541380000000  0.5509980000000  0.4384080000000 1.0
C      1  0.4586850000000  0.5513740000000  0.4284200000000 1.0
C      1  0.4200340000000  0.5476240000000  0.5166350000000 1.0
C      1  0.4927710000000  0.5486150000000  0.5804460000000 1.0
C      1  0.5071640000000  0.5962460000000  0.5243310000000 1.0
C      1  0.5250580000000  0.5966360000000  0.5008380000000 1.0
C      1  0.5079880000000  0.5969930000000  0.4765990000000 1.0
C      1  0.4795200000000  0.5965920000000  0.4850540000000 1.0
C      1  0.4790080000000  0.5961140000000  0.5145960000000 1.0
C      1  0.5451080000000  0.4228310000000  0.4957680000000 1.0
C      1  0.5074800000000  0.4226910000000  0.4594930000000 1.0
C      1  0.4591040000000  0.4257080000000  0.4805780000000 1.0
C      1  0.4654880000000  0.4192580000000  0.5325490000000 1.0
C      1  0.5196000000000  0.4168640000000  0.5414310000000 1.0
C      1  0.5185640000000  0.4621820000000  0.5663080000000 1.0
C      1  0.5699630000000  0.4686150000000  0.4992000000000 1.0
C      1  0.5245070000000  0.4654930000000  0.4350460000000 1.0
C      1  0.4446170000000  0.4647790000000  0.4538840000000 1.0
C      1  0.4432070000000  0.4642600000000  0.5399640000000 1.0
C      1  0.5173930000000  0.5235380000000  0.4585910000000 1.0
C      1  0.4679010000000  0.5232470000000  0.4714920000000 1.0
C      1  0.4628330000000  0.5220110000000  0.5216700000000 1.0
C      1  0.5098650000000  0.5227450000000  0.5413020000000 1.0
C      1  0.5439520000000  0.5226690000000  0.5029390000000 1.0
C      1  0.5463410000000  0.4106780000000  0.5246080000000 1.0
C      1  0.5351070000000  0.4102740000000  0.4682910000000 1.0
C      1  0.4777690000000  0.4120160000000  0.4592250000000 1.0
C      1  0.4470010000000  0.4135870000000  0.5067070000000 1.0
C      1  0.4902680000000  0.4058360000000  0.5490930000000 1.0
C      1  0.5266650000000  0.5482960000000  0.5010620000000 1.0
C      1  0.5102200000000  0.5486770000000  0.4749290000000 1.0
C      1  0.4803250000000  0.5484310000000  0.4827830000000 1.0
C      1  0.4778280000000  0.5479340000000  0.5136500000000 1.0
C      1  0.5064620000000  0.5481080000000  0.5248570000000 1.0
END
