TITL C-3577078-809-749 -2.41900604930729e-06 125000 -875.546577845737 0 0 137 (C1) n - 1
REM
REM in /home/bkarasulu/work/CARBON/AIRSS/Generating-Clusters/EDIP-Nigel-Params/with-SteepDescent/Higher-Symm/SD-CG/HFTN-CG
REM
REM
REM
REM
REM
REM ./C.cell (12c818d87b63d06a65506943cc24bca4)
REM
REM compiler GCC version 9.2.1 20190827 (Red Hat 9.2.1-1)
REM options -cpp -mtune=generic -march=x86-64 -g -O0 -fpre-include=/usr/include/finclude/math-vector-fortran.h
REM seed -39033944 -316558518 -1531272734 1794260981 1954313816 1144455735 498228170 -503250446 1681198733 1203096516 1008532862 1659192732 -611609051 1187388100 2118119238 1521536354 2072486729 1992913212 928033600 143177975 2126298174 1352249698 1525009826 -1725737154 476926475 1818123796 -1423763612 -1520806882 -536149923 -1419596375 -1551836262 1322212183 2000178368
REM
CELL 1.54180   50.00000   50.00000   50.00000   90.00000   90.00000   90.00000
LATT -1
SFAC C  
C      1  0.5405820000000  0.5024200000000  0.5795710000000 1.0
C      1  0.5028700000000  0.5774750000000  0.5402320000000 1.0
C      1  0.5776640000000  0.5409970000000  0.5029840000000 1.0
C      1  0.4639730000000  0.5050770000000  0.4230500000000 1.0
C      1  0.4633780000000  0.4982020000000  0.5749660000000 1.0
C      1  0.5440830000000  0.4963290000000  0.4145190000000 1.0
C      1  0.4955900000000  0.5849840000000  0.4555760000000 1.0
C      1  0.4963730000000  0.4143220000000  0.5438880000000 1.0
C      1  0.5011560000000  0.4232330000000  0.4630300000000 1.0
C      1  0.4240440000000  0.5359620000000  0.4948590000000 1.0
C      1  0.4192970000000  0.4585120000000  0.5029410000000 1.0
C      1  0.5766390000000  0.4619490000000  0.4983020000000 1.0
C      1  0.5763760000000  0.5023410000000  0.5381550000000 1.0
C      1  0.5462240000000  0.5876790000000  0.5067600000000 1.0
C      1  0.5012970000000  0.5401220000000  0.5802960000000 1.0
C      1  0.4116550000000  0.5049180000000  0.4522490000000 1.0
C      1  0.5763270000000  0.4977020000000  0.4607360000000 1.0
C      1  0.4209030000000  0.4981850000000  0.5391710000000 1.0
C      1  0.4645340000000  0.5745680000000  0.4986580000000 1.0
C      1  0.5427120000000  0.4166870000000  0.4958620000000 1.0
C      1  0.4575960000000  0.4152350000000  0.5041410000000 1.0
C      1  0.4951360000000  0.5452860000000  0.4139260000000 1.0
C      1  0.5013710000000  0.4598720000000  0.4194100000000 1.0
C      1  0.4951040000000  0.4539480000000  0.5857340000000 1.0
C      1  0.4786610000000  0.4227200000000  0.4426390000000 1.0
C      1  0.4219070000000  0.4405840000000  0.4798980000000 1.0
C      1  0.4464420000000  0.4814700000000  0.4287870000000 1.0
C      1  0.5208410000000  0.4203600000000  0.5600340000000 1.0
C      1  0.5203470000000  0.5751860000000  0.4450500000000 1.0
C      1  0.4788170000000  0.5777060000000  0.5585090000000 1.0
C      1  0.5752870000000  0.4427940000000  0.5208860000000 1.0
C      1  0.5774280000000  0.5591570000000  0.4795970000000 1.0
C      1  0.4281690000000  0.5520270000000  0.5201390000000 1.0
C      1  0.5573490000000  0.4789180000000  0.5774600000000 1.0
C      1  0.5563670000000  0.5213600000000  0.4217660000000 1.0
C      1  0.4438940000000  0.5207930000000  0.5763230000000 1.0
C      1  0.4459310000000  0.4259570000000  0.4793760000000 1.0
C      1  0.4781890000000  0.4424710000000  0.4218030000000 1.0
C      1  0.4316490000000  0.4820940000000  0.4537410000000 1.0
C      1  0.5522490000000  0.4269540000000  0.5208760000000 1.0
C      1  0.4448330000000  0.5744110000000  0.5203900000000 1.0
C      1  0.5564940000000  0.5784030000000  0.4804350000000 1.0
C      1  0.5199880000000  0.4450100000000  0.5737890000000 1.0
C      1  0.4783130000000  0.5588820000000  0.5798760000000 1.0
C      1  0.5202720000000  0.5566060000000  0.4230790000000 1.0
C      1  0.5761290000000  0.4787510000000  0.5566430000000 1.0
C      1  0.4223220000000  0.5204730000000  0.5578350000000 1.0
C      1  0.5752950000000  0.5217150000000  0.4431200000000 1.0
C      1  0.4706930000000  0.5705730000000  0.4500840000000 1.0
C      1  0.5712970000000  0.4498680000000  0.4704450000000 1.0
C      1  0.4500350000000  0.4712020000000  0.5708610000000 1.0
C      1  0.5302390000000  0.5732600000000  0.5535420000000 1.0
C      1  0.5281590000000  0.4285670000000  0.4496150000000 1.0
C      1  0.4693890000000  0.4266780000000  0.5519760000000 1.0
C      1  0.4292690000000  0.4494340000000  0.5299640000000 1.0
C      1  0.4268270000000  0.5524480000000  0.4693770000000 1.0
C      1  0.5730570000000  0.5520160000000  0.5315480000000 1.0
C      1  0.5495290000000  0.4704460000000  0.4288490000000 1.0
C      1  0.5489080000000  0.5284400000000  0.5695210000000 1.0
C      1  0.4484270000000  0.5315300000000  0.4255600000000 1.0
C      1  0.4506430000000  0.5711540000000  0.4712140000000 1.0
C      1  0.4703650000000  0.4497110000000  0.5702630000000 1.0
C      1  0.5725940000000  0.4701210000000  0.4485090000000 1.0
C      1  0.5529280000000  0.5741580000000  0.5337410000000 1.0
C      1  0.4494870000000  0.4277270000000  0.5306740000000 1.0
C      1  0.5486630000000  0.4307350000000  0.4706960000000 1.0
C      1  0.5277480000000  0.4494220000000  0.4281760000000 1.0
C      1  0.4694520000000  0.5524750000000  0.4270910000000 1.0
C      1  0.5288830000000  0.5497050000000  0.5713910000000 1.0
C      1  0.4296420000000  0.4716040000000  0.5493590000000 1.0
C      1  0.5716470000000  0.5294680000000  0.5511050000000 1.0
C      1  0.4260090000000  0.5320690000000  0.4463720000000 1.0
C      1  0.4978930000000  0.6038150000000  0.4773440000000 1.0
C      1  0.6015800000000  0.4786010000000  0.4999850000000 1.0
C      1  0.4797270000000  0.4987110000000  0.6002760000000 1.0
C      1  0.5010610000000  0.6011680000000  0.5214610000000 1.0
C      1  0.5002960000000  0.3981180000000  0.4802770000000 1.0
C      1  0.4976590000000  0.3923030000000  0.5242780000000 1.0
C      1  0.3965150000000  0.4767170000000  0.5014430000000 1.0
C      1  0.3982960000000  0.5207050000000  0.4977300000000 1.0
C      1  0.6014560000000  0.5225240000000  0.5004720000000 1.0
C      1  0.5233330000000  0.4978510000000  0.3950380000000 1.0
C      1  0.5237510000000  0.5022870000000  0.6024870000000 1.0
C      1  0.4791900000000  0.5015850000000  0.3970470000000 1.0
C      1  0.4806180000000  0.5998590000000  0.5001630000000 1.0
C      1  0.4967330000000  0.4756340000000  0.6043910000000 1.0
C      1  0.6009550000000  0.4999490000000  0.4781620000000 1.0
C      1  0.5241210000000  0.6066660000000  0.5048790000000 1.0
C      1  0.4795060000000  0.3948260000000  0.5014530000000 1.0
C      1  0.5235630000000  0.3954610000000  0.4973410000000 1.0
C      1  0.5003460000000  0.4804250000000  0.3979980000000 1.0
C      1  0.4964470000000  0.5247610000000  0.3933660000000 1.0
C      1  0.5004810000000  0.5197570000000  0.6020450000000 1.0
C      1  0.3992250000000  0.4996810000000  0.5189440000000 1.0
C      1  0.6015730000000  0.5009880000000  0.5220310000000 1.0
C      1  0.3930450000000  0.5034740000000  0.4749250000000 1.0
C      1  0.5090370000000  0.5229170000000  0.4491170000000 1.0
C      1  0.5225640000000  0.4549720000000  0.5038550000000 1.0
C      1  0.4628500000000  0.4988700000000  0.5245810000000 1.0
C      1  0.5039460000000  0.5249710000000  0.5446020000000 1.0
C      1  0.5018220000000  0.4715590000000  0.4621410000000 1.0
C      1  0.4992330000000  0.4729700000000  0.5467240000000 1.0
C      1  0.4749350000000  0.4501640000000  0.5025870000000 1.0
C      1  0.4840130000000  0.5498660000000  0.5018540000000 1.0
C      1  0.5295370000000  0.5521320000000  0.5039510000000 1.0
C      1  0.5496230000000  0.4969640000000  0.4758570000000 1.0
C      1  0.5509300000000  0.5021000000000  0.5204410000000 1.0
C      1  0.4515320000000  0.4888710000000  0.4777220000000 1.0
C      1  0.4476310000000  0.5178010000000  0.4876260000000 1.0
C      1  0.4967980000000  0.4488730000000  0.5256670000000 1.0
C      1  0.5264540000000  0.4895930000000  0.4539700000000 1.0
C      1  0.5506330000000  0.5270330000000  0.5011520000000 1.0
C      1  0.4548460000000  0.4745730000000  0.5053390000000 1.0
C      1  0.5509400000000  0.4782780000000  0.5000770000000 1.0
C      1  0.5001160000000  0.4492250000000  0.4809970000000 1.0
C      1  0.5073350000000  0.5499870000000  0.4788880000000 1.0
C      1  0.5045810000000  0.5506810000000  0.5247210000000 1.0
C      1  0.4807350000000  0.4991250000000  0.5483000000000 1.0
C      1  0.5239340000000  0.5010850000000  0.5383010000000 1.0
C      1  0.4833190000000  0.5085130000000  0.4458460000000 1.0
C      1  0.4504470000000  0.5770000000000  0.5493500000000 1.0
C      1  0.4498870000000  0.5498230000000  0.5775820000000 1.0
C      1  0.5438850000000  0.5848080000000  0.4564060000000 1.0
C      1  0.5490570000000  0.4217520000000  0.5499150000000 1.0
C      1  0.4505390000000  0.4233630000000  0.4508150000000 1.0
C      1  0.5766710000000  0.4498400000000  0.5498390000000 1.0
C      1  0.4228320000000  0.4526720000000  0.4528360000000 1.0
C      1  0.5812950000000  0.5461510000000  0.4551900000000 1.0
C      1  0.4229010000000  0.5486990000000  0.5490500000000 1.0
C      1  0.5442460000000  0.5453090000000  0.4140930000000 1.0
C      1  0.5488890000000  0.4502360000000  0.5774520000000 1.0
C      1  0.4498530000000  0.4520790000000  0.4244130000000 1.0
C      1  0.4712820000000  0.5207210000000  0.5048070000000 1.0
C      1  0.5140410000000  0.5219470000000  0.4776820000000 1.0
C      1  0.5097410000000  0.4877140000000  0.5122790000000 1.0
C      1  0.4811040000000  0.4906400000000  0.4683890000000 1.0
C      1  0.4940860000000  0.5051680000000  0.4915700000000 1.0
END
