TITL C-3578197-9521-528 -1.35245294099469e-06 125000 -410.882063245874 0 0 68 (C1) n - 1
REM
REM in /home/bkarasulu/work/CARBON/AIRSS/Generating-Clusters/EDIP-Nigel-Params/with-SteepDescent/Higher-Symm/SD-CG/HFTN-CG
REM
REM
REM
REM
REM
REM ./C.cell (12c818d87b63d06a65506943cc24bca4)
REM
REM compiler GCC version 9.2.1 20190827 (Red Hat 9.2.1-1)
REM options -cpp -mtune=generic -march=x86-64 -g -O0 -fpre-include=/usr/include/finclude/math-vector-fortran.h
REM seed 1793262498 -1743136407 1460580784 -909887797 529500693 635493300 374441630 -461003528 -1987417108 -512153304 929170954 1696804936 -1992314286 -1333726148 -590500468 1502941838 982887699 1257555458 -1405526291 -335212344 654309310 1475610397 -2113667347 708669544 -1950804838 1309852571 -851889605 2029255165 1381121083 1110465006 1482672440 802515544 1982687239
REM
CELL 1.54180   50.00000   50.00000   50.00000   90.00000   90.00000   90.00000
LATT -1
SFAC C  
C      1  0.5316350000000  0.4964750000000  0.5095300000000 1.0
C      1  0.5591830000000  0.4832630000000  0.4570790000000 1.0
C      1  0.4839780000000  0.5513570000000  0.4870280000000 1.0
C      1  0.5313120000000  0.4672210000000  0.4231440000000 1.0
C      1  0.4635270000000  0.5070970000000  0.5623850000000 1.0
C      1  0.5055130000000  0.4544710000000  0.5124020000000 1.0
C      1  0.5654880000000  0.5320460000000  0.4622580000000 1.0
C      1  0.5185590000000  0.4270800000000  0.5090270000000 1.0
C      1  0.5586080000000  0.5039970000000  0.5188390000000 1.0
C      1  0.4875240000000  0.5368510000000  0.4389400000000 1.0
C      1  0.4947560000000  0.4120210000000  0.5119670000000 1.0
C      1  0.5203940000000  0.5550550000000  0.5540720000000 1.0
C      1  0.4509930000000  0.4620530000000  0.4449910000000 1.0
C      1  0.4631370000000  0.4910070000000  0.4496750000000 1.0
C      1  0.5669400000000  0.4870670000000  0.5392800000000 1.0
C      1  0.4944980000000  0.5455320000000  0.5657030000000 1.0
C      1  0.4432610000000  0.5410310000000  0.5223790000000 1.0
C      1  0.4582820000000  0.5387440000000  0.4482750000000 1.0
C      1  0.5241630000000  0.5588220000000  0.4697850000000 1.0
C      1  0.5376120000000  0.4653840000000  0.4489890000000 1.0
C      1  0.4520320000000  0.4663010000000  0.5380600000000 1.0
C      1  0.5093210000000  0.5154060000000  0.5143750000000 1.0
C      1  0.4330310000000  0.4885990000000  0.4954030000000 1.0
C      1  0.5025210000000  0.5011020000000  0.4673550000000 1.0
C      1  0.4428080000000  0.5129400000000  0.4518520000000 1.0
C      1  0.4679080000000  0.4773020000000  0.5610170000000 1.0
C      1  0.5258070000000  0.5039640000000  0.5629370000000 1.0
C      1  0.5072510000000  0.4562680000000  0.5416790000000 1.0
C      1  0.5156780000000  0.4716510000000  0.4689310000000 1.0
C      1  0.5271000000000  0.4698050000000  0.4973230000000 1.0
C      1  0.4585840000000  0.4404530000000  0.5281070000000 1.0
C      1  0.4909810000000  0.5174600000000  0.5735630000000 1.0
C      1  0.4682900000000  0.5226140000000  0.4984410000000 1.0
C      1  0.4747430000000  0.4967620000000  0.4789250000000 1.0
C      1  0.5534500000000  0.4557660000000  0.4969160000000 1.0
C      1  0.4477590000000  0.5136280000000  0.5364920000000 1.0
C      1  0.4665820000000  0.5593420000000  0.5292170000000 1.0
C      1  0.5565810000000  0.5318920000000  0.5287140000000 1.0
C      1  0.4298390000000  0.5133760000000  0.4789500000000 1.0
C      1  0.4255020000000  0.4641760000000  0.4843890000000 1.0
C      1  0.4859660000000  0.4963060000000  0.5254030000000 1.0
C      1  0.4446030000000  0.4493800000000  0.4706340000000 1.0
C      1  0.4849850000000  0.5357350000000  0.5372000000000 1.0
C      1  0.5380740000000  0.5310050000000  0.5527650000000 1.0
C      1  0.4347220000000  0.5413010000000  0.4907160000000 1.0
C      1  0.5009600000000  0.5104870000000  0.4387910000000 1.0
C      1  0.4969700000000  0.4813630000000  0.5502470000000 1.0
C      1  0.5714910000000  0.4748370000000  0.4833500000000 1.0
C      1  0.5537710000000  0.5533350000000  0.5073740000000 1.0
C      1  0.4791470000000  0.4570740000000  0.4396460000000 1.0
C      1  0.5060640000000  0.5553290000000  0.4493330000000 1.0
C      1  0.4935250000000  0.4511170000000  0.4638450000000 1.0
C      1  0.5508800000000  0.5108670000000  0.4514820000000 1.0
C      1  0.5155410000000  0.5663150000000  0.5257270000000 1.0
C      1  0.4713720000000  0.4479820000000  0.4846830000000 1.0
C      1  0.5478600000000  0.5454460000000  0.4794530000000 1.0
C      1  0.4402740000000  0.4891630000000  0.5234730000000 1.0
C      1  0.5091820000000  0.5261950000000  0.4852920000000 1.0
C      1  0.5781840000000  0.4969120000000  0.5001880000000 1.0
C      1  0.4882420000000  0.5701780000000  0.5111070000000 1.0
C      1  0.5454800000000  0.4801170000000  0.5565040000000 1.0
C      1  0.4713030000000  0.4270170000000  0.5068270000000 1.0
C      1  0.5347220000000  0.4525420000000  0.5488780000000 1.0
C      1  0.4748410000000  0.4744560000000  0.5010700000000 1.0
C      1  0.5427960000000  0.4339950000000  0.5267280000000 1.0
C      1  0.5289390000000  0.5140750000000  0.4336860000000 1.0
C      1  0.5392180000000  0.5765840000000  0.5144890000000 1.0
C      1  0.4557560000000  0.5555080000000  0.4727160000000 1.0
END
