TITL C-3577085-527-344 -2.36473232235407e-06 125000 -404.564357437224 0 0 65 (C1) n - 1
REM
REM in /home/bkarasulu/work/CARBON/AIRSS/Generating-Clusters/EDIP-Nigel-Params/with-SteepDescent/Higher-Symm/SD-CG/HFTN-CG
REM
REM
REM
REM
REM
REM ./C.cell (12c818d87b63d06a65506943cc24bca4)
REM
REM compiler GCC version 9.2.1 20190827 (Red Hat 9.2.1-1)
REM options -cpp -mtune=generic -march=x86-64 -g -O0 -fpre-include=/usr/include/finclude/math-vector-fortran.h
REM seed -1735631047 1187876220 517088360 -531573558 -22818827 338841660 1247811858 638028533 -1430296286 816324236 1420736291 -1810505275 1743829468 -1955661896 -1711237346 1865789225 1624834565 1911216089 362756335 -508529548 967561728 -1782742044 1593810464 1543422523 1208279335 -850656958 627959050 -1535623810 -1510995626 756339465 -217162559 -1176287101 361224786
REM
CELL 1.54180   50.00000   50.00000   50.00000   90.00000   90.00000   90.00000
LATT -1
SFAC C  
C      1  0.4620980000000  0.5012460000000  0.4690300000000 1.0
C      1  0.4654490000000  0.4742590000000  0.4853560000000 1.0
C      1  0.4899150000000  0.4627810000000  0.4687250000000 1.0
C      1  0.5289360000000  0.5067750000000  0.4616000000000 1.0
C      1  0.5307000000000  0.4940930000000  0.5359960000000 1.0
C      1  0.4639770000000  0.4996660000000  0.5318140000000 1.0
C      1  0.5303700000000  0.5382430000000  0.4993350000000 1.0
C      1  0.5305380000000  0.4626500000000  0.4982590000000 1.0
C      1  0.4657400000000  0.5267420000000  0.5150630000000 1.0
C      1  0.5128190000000  0.5331150000000  0.4728710000000 1.0
C      1  0.5143310000000  0.4677870000000  0.5255520000000 1.0
C      1  0.4913870000000  0.5377380000000  0.5308700000000 1.0
C      1  0.5645330000000  0.4680720000000  0.4534520000000 1.0
C      1  0.4620810000000  0.5526550000000  0.4592380000000 1.0
C      1  0.4729180000000  0.4577770000000  0.5637660000000 1.0
C      1  0.4373430000000  0.5440020000000  0.4681120000000 1.0
C      1  0.4376180000000  0.4535280000000  0.5311670000000 1.0
C      1  0.5662450000000  0.5328300000000  0.5426510000000 1.0
C      1  0.5337220000000  0.4326470000000  0.4564880000000 1.0
C      1  0.5350800000000  0.5679890000000  0.5411640000000 1.0
C      1  0.4630950000000  0.4472240000000  0.5401020000000 1.0
C      1  0.5422000000000  0.5434740000000  0.5518460000000 1.0
C      1  0.5401270000000  0.4572140000000  0.4455400000000 1.0
C      1  0.4715350000000  0.5434050000000  0.4349550000000 1.0
C      1  0.4808800000000  0.5648320000000  0.4774350000000 1.0
C      1  0.4851080000000  0.4809210000000  0.5731370000000 1.0
C      1  0.5702970000000  0.4840210000000  0.4759730000000 1.0
C      1  0.5181030000000  0.4252240000000  0.4782820000000 1.0
C      1  0.5186500000000  0.5755050000000  0.5199790000000 1.0
C      1  0.4817550000000  0.4356410000000  0.5215890000000 1.0
C      1  0.5225090000000  0.5260050000000  0.5660680000000 1.0
C      1  0.5196920000000  0.4744990000000  0.4322700000000 1.0
C      1  0.4828210000000  0.5196340000000  0.4263190000000 1.0
C      1  0.4265910000000  0.5232190000000  0.4834790000000 1.0
C      1  0.4252980000000  0.4733350000000  0.5156000000000 1.0
C      1  0.5711860000000  0.5170250000000  0.5198470000000 1.0
C      1  0.5575670000000  0.5102640000000  0.4713820000000 1.0
C      1  0.4748790000000  0.5738980000000  0.5032000000000 1.0
C      1  0.5119400000000  0.4815500000000  0.5805450000000 1.0
C      1  0.4241820000000  0.4964820000000  0.4725640000000 1.0
C      1  0.4260770000000  0.5000690000000  0.5269460000000 1.0
C      1  0.5589060000000  0.4906910000000  0.5250240000000 1.0
C      1  0.5268490000000  0.4252160000000  0.5059860000000 1.0
C      1  0.5263870000000  0.5757250000000  0.4919550000000 1.0
C      1  0.4749180000000  0.4256300000000  0.4963940000000 1.0
C      1  0.4928780000000  0.5294140000000  0.5594480000000 1.0
C      1  0.4904020000000  0.4714690000000  0.4403390000000 1.0
C      1  0.5090080000000  0.5185760000000  0.4169950000000 1.0
C      1  0.5301620000000  0.4974100000000  0.5663310000000 1.0
C      1  0.5584710000000  0.5284180000000  0.4948900000000 1.0
C      1  0.4915620000000  0.5670330000000  0.5245750000000 1.0
C      1  0.4759460000000  0.5046850000000  0.5591170000000 1.0
C      1  0.4739940000000  0.4964270000000  0.4414480000000 1.0
C      1  0.5274780000000  0.5030220000000  0.4312340000000 1.0
C      1  0.4339110000000  0.4727450000000  0.4871560000000 1.0
C      1  0.4337350000000  0.5244770000000  0.5120790000000 1.0
C      1  0.5588000000000  0.4725510000000  0.5014610000000 1.0
C      1  0.5105230000000  0.4370710000000  0.5277100000000 1.0
C      1  0.5095500000000  0.5639510000000  0.4705280000000 1.0
C      1  0.4907310000000  0.4333420000000  0.4746280000000 1.0
C      1  0.4793870000000  0.5212180000000  0.4852810000000 1.0
C      1  0.4802210000000  0.4795370000000  0.5150940000000 1.0
C      1  0.5141800000000  0.4810980000000  0.4795400000000 1.0
C      1  0.5150680000000  0.5197080000000  0.5188240000000 1.0
C      1  0.4991150000000  0.5004450000000  0.4996170000000 1.0
END
