TITL C-3578204-4308-253 -1.86593904065072e-06 125000 -662.185601869148 0 0 109 (C1) n - 1
REM
REM in /home/bkarasulu/work/CARBON/AIRSS/Generating-Clusters/EDIP-Nigel-Params/with-SteepDescent/Higher-Symm/SD-CG/HFTN-CG
REM
REM
REM
REM
REM
REM ./C.cell (12c818d87b63d06a65506943cc24bca4)
REM
REM compiler GCC version 9.2.1 20190827 (Red Hat 9.2.1-1)
REM options -cpp -mtune=generic -march=x86-64 -g -O0 -fpre-include=/usr/include/finclude/math-vector-fortran.h
REM seed -1949336084 824278232 1003790040 -571234876 81309967 -1889340278 -286519611 740648185 -504425088 -1493599995 772179053 -714107070 957529996 223414016 1179396559 1530195764 -530091656 -411551581 -1727193733 1444655785 2139308258 -725054449 -1680996292 -1680191019 394156413 627117757 1982358259 -882098003 626054633 -713071020 373285031 -787864783 568692046
REM
CELL 1.54180   50.00000   50.00000   50.00000   90.00000   90.00000   90.00000
LATT -1
SFAC C  
C      1  0.4817460000000  0.5249980000000  0.5351680000000 1.0
C      1  0.4925290000000  0.4999650000000  0.5401160000000 1.0
C      1  0.4840100000000  0.4738960000000  0.5393710000000 1.0
C      1  0.4945170000000  0.4558320000000  0.5186710000000 1.0
C      1  0.4810660000000  0.4644290000000  0.4929920000000 1.0
C      1  0.4968490000000  0.4633030000000  0.4658280000000 1.0
C      1  0.4994070000000  0.4895160000000  0.4576170000000 1.0
C      1  0.4856600000000  0.5129520000000  0.4540730000000 1.0
C      1  0.4969450000000  0.5335780000000  0.4688510000000 1.0
C      1  0.4846590000000  0.5461070000000  0.4902190000000 1.0
C      1  0.4940000000000  0.5401170000000  0.5156250000000 1.0
C      1  0.3995210000000  0.5380330000000  0.5296650000000 1.0
C      1  0.3993160000000  0.5147950000000  0.5430490000000 1.0
C      1  0.4150070000000  0.4927070000000  0.5493860000000 1.0
C      1  0.4133090000000  0.4693880000000  0.5309790000000 1.0
C      1  0.3976650000000  0.4735530000000  0.5061190000000 1.0
C      1  0.4055260000000  0.4646520000000  0.4788870000000 1.0
C      1  0.4145960000000  0.4791170000000  0.4549240000000 1.0
C      1  0.4049280000000  0.5054320000000  0.4522980000000 1.0
C      1  0.4031840000000  0.5301710000000  0.4634320000000 1.0
C      1  0.4088070000000  0.5469400000000  0.4840920000000 1.0
C      1  0.4139320000000  0.5527220000000  0.5111060000000 1.0
C      1  0.4710230000000  0.4909520000000  0.4106830000000 1.0
C      1  0.4714050000000  0.5423970000000  0.4179590000000 1.0
C      1  0.4758570000000  0.5797710000000  0.4545460000000 1.0
C      1  0.4710250000000  0.5925850000000  0.5058990000000 1.0
C      1  0.4680380000000  0.5721600000000  0.5536450000000 1.0
C      1  0.4678990000000  0.5309070000000  0.5846630000000 1.0
C      1  0.4715330000000  0.4806320000000  0.5912180000000 1.0
C      1  0.4768950000000  0.4346290000000  0.5692930000000 1.0
C      1  0.4850240000000  0.4262860000000  0.5214820000000 1.0
C      1  0.4775200000000  0.4123470000000  0.4723470000000 1.0
C      1  0.4827780000000  0.4499450000000  0.4411320000000 1.0
C      1  0.5329510000000  0.5094430000000  0.5549860000000 1.0
C      1  0.5379630000000  0.4788970000000  0.5475280000000 1.0
C      1  0.5249640000000  0.4555150000000  0.5216860000000 1.0
C      1  0.5371110000000  0.4443220000000  0.4950570000000 1.0
C      1  0.5265740000000  0.4550880000000  0.4667160000000 1.0
C      1  0.5436400000000  0.4800760000000  0.4406360000000 1.0
C      1  0.5416690000000  0.5089810000000  0.4306400000000 1.0
C      1  0.5434700000000  0.5317380000000  0.4483110000000 1.0
C      1  0.5423970000000  0.5579950000000  0.4977820000000 1.0
C      1  0.5387590000000  0.5589810000000  0.5264750000000 1.0
C      1  0.5456890000000  0.5382640000000  0.5491250000000 1.0
C      1  0.5814070000000  0.5055490000000  0.4585140000000 1.0
C      1  0.5674170000000  0.5301630000000  0.4644260000000 1.0
C      1  0.5671500000000  0.5450010000000  0.4903520000000 1.0
C      1  0.5814090000000  0.5377790000000  0.5142340000000 1.0
C      1  0.5741960000000  0.5290230000000  0.5404760000000 1.0
C      1  0.5790430000000  0.5015160000000  0.5454800000000 1.0
C      1  0.5675690000000  0.4756120000000  0.5442690000000 1.0
C      1  0.5740110000000  0.4589440000000  0.5221280000000 1.0
C      1  0.5665750000000  0.4480240000000  0.4969930000000 1.0
C      1  0.5760210000000  0.4600260000000  0.4733920000000 1.0
C      1  0.5715050000000  0.4790630000000  0.4531610000000 1.0
C      1  0.4605700000000  0.5820360000000  0.4802080000000 1.0
C      1  0.4556800000000  0.5783670000000  0.5273430000000 1.0
C      1  0.4556820000000  0.5471800000000  0.5635150000000 1.0
C      1  0.4555580000000  0.5041050000000  0.5831130000000 1.0
C      1  0.4615290000000  0.4586560000000  0.5747040000000 1.0
C      1  0.4649360000000  0.4263520000000  0.5440540000000 1.0
C      1  0.4674430000000  0.4210340000000  0.4977940000000 1.0
C      1  0.4643580000000  0.4294450000000  0.4528500000000 1.0
C      1  0.4622790000000  0.4688390000000  0.4274900000000 1.0
C      1  0.4578410000000  0.5158280000000  0.4196070000000 1.0
C      1  0.4598230000000  0.5591230000000  0.4397660000000 1.0
C      1  0.5046980000000  0.5730800000000  0.5563870000000 1.0
C      1  0.5051760000000  0.5335960000000  0.5860210000000 1.0
C      1  0.5087950000000  0.4830710000000  0.5873380000000 1.0
C      1  0.5140640000000  0.4382100000000  0.5650620000000 1.0
C      1  0.5123580000000  0.4112600000000  0.5216920000000 1.0
C      1  0.5141560000000  0.4104480000000  0.4694150000000 1.0
C      1  0.5091090000000  0.4410320000000  0.4271860000000 1.0
C      1  0.5076650000000  0.4879020000000  0.4059850000000 1.0
C      1  0.5082580000000  0.5402730000000  0.4178860000000 1.0
C      1  0.5124790000000  0.5731450000000  0.4576990000000 1.0
C      1  0.5078290000000  0.5891000000000  0.5064120000000 1.0
C      1  0.5264610000000  0.4305890000000  0.5397620000000 1.0
C      1  0.5276060000000  0.4151080000000  0.4955640000000 1.0
C      1  0.5255000000000  0.4300520000000  0.4500100000000 1.0
C      1  0.5239850000000  0.4660850000000  0.4184500000000 1.0
C      1  0.5204550000000  0.5137740000000  0.4115100000000 1.0
C      1  0.5244810000000  0.5528520000000  0.4394920000000 1.0
C      1  0.5246160000000  0.5778050000000  0.4844250000000 1.0
C      1  0.5185080000000  0.5786230000000  0.5316330000000 1.0
C      1  0.5204340000000  0.5525700000000  0.5701380000000 1.0
C      1  0.5190490000000  0.5091900000000  0.5805280000000 1.0
C      1  0.5251200000000  0.4643590000000  0.5717710000000 1.0
C      1  0.4438670000000  0.4993400000000  0.5545550000000 1.0
C      1  0.4569270000000  0.4710160000000  0.5480990000000 1.0
C      1  0.4436080000000  0.4489610000000  0.5290160000000 1.0
C      1  0.4547290000000  0.4480680000000  0.4949800000000 1.0
C      1  0.4447470000000  0.4481600000000  0.4665500000000 1.0
C      1  0.4444070000000  0.4754720000000  0.4520540000000 1.0
C      1  0.4558870000000  0.5125060000000  0.4496330000000 1.0
C      1  0.4453500000000  0.5406570000000  0.4597660000000 1.0
C      1  0.4562510000000  0.5528840000000  0.4868420000000 1.0
C      1  0.4432480000000  0.5524640000000  0.5158970000000 1.0
C      1  0.4529200000000  0.5291220000000  0.5396400000000 1.0
C      1  0.6359160000000  0.5095640000000  0.4827390000000 1.0
C      1  0.4302330000000  0.5081280000000  0.4984280000000 1.0
C      1  0.5622090000000  0.5013760000000  0.4979990000000 1.0
C      1  0.4038120000000  0.4999110000000  0.4955430000000 1.0
C      1  0.6119940000000  0.5051860000000  0.4910730000000 1.0
C      1  0.5371110000000  0.4949400000000  0.5060900000000 1.0
C      1  0.5110800000000  0.4966490000000  0.4999600000000 1.0
C      1  0.4831670000000  0.5023120000000  0.4969730000000 1.0
C      1  0.5893380000000  0.4956180000000  0.5025690000000 1.0
C      1  0.4554870000000  0.4991780000000  0.4998560000000 1.0
END
