TITL C-3577088-510-611 -7.28968572423175e-07 125000 -1008.06711149469 0 0 158 (C1) n - 1
REM
REM in /home/bkarasulu/work/CARBON/AIRSS/Generating-Clusters/EDIP-Nigel-Params/with-SteepDescent/Higher-Symm/SD-CG/HFTN-CG
REM
REM
REM
REM
REM
REM ./C.cell (12c818d87b63d06a65506943cc24bca4)
REM
REM compiler GCC version 9.2.1 20190827 (Red Hat 9.2.1-1)
REM options -cpp -mtune=generic -march=x86-64 -g -O0 -fpre-include=/usr/include/finclude/math-vector-fortran.h
REM seed 1199799130 214490135 -1466476304 -491970500 171382084 -839443451 -1937947085 895050440 1098105997 362450707 2145963543 -1155814418 -1917153340 -592696324 -1878057238 -1021502118 324566714 -1991892508 -14808391 -1601026457 998312061 -1442743231 1795294231 -596693169 211256927 2116007834 -2110299010 153422824 208700078 -2120885283 -1992602429 340837937 528418565
REM
CELL 1.54180   50.00000   50.00000   50.00000   90.00000   90.00000   90.00000
LATT -1
SFAC C  
C      1  0.5356350000000  0.4320100000000  0.5177210000000 1.0
C      1  0.4759420000000  0.4248860000000  0.5108700000000 1.0
C      1  0.4326780000000  0.4699850000000  0.5204610000000 1.0
C      1  0.4516760000000  0.5323160000000  0.5123240000000 1.0
C      1  0.4924540000000  0.5880820000000  0.5181010000000 1.0
C      1  0.5420530000000  0.5613020000000  0.5077910000000 1.0
C      1  0.5575780000000  0.4939340000000  0.5168420000000 1.0
C      1  0.5938380000000  0.4463740000000  0.4623360000000 1.0
C      1  0.5132510000000  0.3961870000000  0.4523680000000 1.0
C      1  0.4225070000000  0.4179680000000  0.4553550000000 1.0
C      1  0.3946650000000  0.5084090000000  0.4723010000000 1.0
C      1  0.4403740000000  0.5874970000000  0.4587480000000 1.0
C      1  0.5322330000000  0.6036590000000  0.4512920000000 1.0
C      1  0.6041030000000  0.5430550000000  0.4724930000000 1.0
C      1  0.4057940000000  0.4354520000000  0.4704420000000 1.0
C      1  0.4018240000000  0.5317480000000  0.4890210000000 1.0
C      1  0.4654780000000  0.5986750000000  0.4667160000000 1.0
C      1  0.5529440000000  0.5987080000000  0.4701300000000 1.0
C      1  0.5975250000000  0.5160380000000  0.4898920000000 1.0
C      1  0.5802580000000  0.4225160000000  0.4674650000000 1.0
C      1  0.4888730000000  0.3959810000000  0.4701060000000 1.0
C      1  0.5847370000000  0.5313590000000  0.5414000000000 1.0
C      1  0.5798980000000  0.4539470000000  0.5380700000000 1.0
C      1  0.5066010000000  0.4074040000000  0.5499120000000 1.0
C      1  0.4345170000000  0.4291900000000  0.5503880000000 1.0
C      1  0.4088890000000  0.5112460000000  0.5403240000000 1.0
C      1  0.4487570000000  0.5753440000000  0.5400990000000 1.0
C      1  0.5333970000000  0.5888550000000  0.5518110000000 1.0
C      1  0.4732400000000  0.5584260000000  0.4405340000000 1.0
C      1  0.5413580000000  0.5603740000000  0.4305420000000 1.0
C      1  0.5764940000000  0.5130440000000  0.4363080000000 1.0
C      1  0.5494440000000  0.4609870000000  0.4452270000000 1.0
C      1  0.4911500000000  0.4402000000000  0.4416770000000 1.0
C      1  0.4384600000000  0.4625610000000  0.4369690000000 1.0
C      1  0.4287000000000  0.5199640000000  0.4314620000000 1.0
C      1  0.5910760000000  0.4900480000000  0.4466020000000 1.0
C      1  0.5423750000000  0.4321180000000  0.4380450000000 1.0
C      1  0.4668000000000  0.4226040000000  0.4379700000000 1.0
C      1  0.4130670000000  0.4747770000000  0.4424170000000 1.0
C      1  0.4280620000000  0.5452510000000  0.4458710000000 1.0
C      1  0.4938570000000  0.5801970000000  0.4330420000000 1.0
C      1  0.5689870000000  0.5629220000000  0.4410320000000 1.0
C      1  0.4635390000000  0.5816050000000  0.5151600000000 1.0
C      1  0.5520590000000  0.5759620000000  0.5319890000000 1.0
C      1  0.5857410000000  0.5077910000000  0.5209660000000 1.0
C      1  0.5631050000000  0.4452550000000  0.5146880000000 1.0
C      1  0.4794760000000  0.4052930000000  0.5338990000000 1.0
C      1  0.4318150000000  0.4401050000000  0.5229510000000 1.0
C      1  0.4201390000000  0.5326150000000  0.5204500000000 1.0
C      1  0.5309490000000  0.5162920000000  0.6012250000000 1.0
C      1  0.5362450000000  0.4868960000000  0.5970070000000 1.0
C      1  0.5123780000000  0.4688670000000  0.5953050000000 1.0
C      1  0.4797110000000  0.4740170000000  0.5983330000000 1.0
C      1  0.4623400000000  0.4993640000000  0.5987300000000 1.0
C      1  0.4744190000000  0.5263050000000  0.5937040000000 1.0
C      1  0.5048830000000  0.5323260000000  0.5942200000000 1.0
C      1  0.4712580000000  0.4722560000000  0.5516470000000 1.0
C      1  0.4523810000000  0.4953820000000  0.5504170000000 1.0
C      1  0.4648360000000  0.5219080000000  0.5446480000000 1.0
C      1  0.5171970000000  0.5320380000000  0.5470270000000 1.0
C      1  0.5387170000000  0.5154110000000  0.5576810000000 1.0
C      1  0.5448430000000  0.4882500000000  0.5472700000000 1.0
C      1  0.5194980000000  0.4705670000000  0.5463140000000 1.0
C      1  0.5333020000000  0.4836490000000  0.4283700000000 1.0
C      1  0.4877870000000  0.4679860000000  0.4260920000000 1.0
C      1  0.4598100000000  0.4794290000000  0.4269630000000 1.0
C      1  0.4555810000000  0.5091820000000  0.4199350000000 1.0
C      1  0.4788290000000  0.5276780000000  0.4311180000000 1.0
C      1  0.5292820000000  0.5333290000000  0.4290060000000 1.0
C      1  0.5484260000000  0.5101760000000  0.4286950000000 1.0
C      1  0.5009470000000  0.4254020000000  0.5721030000000 1.0
C      1  0.4343580000000  0.4493610000000  0.5734190000000 1.0
C      1  0.4156360000000  0.5185250000000  0.5686880000000 1.0
C      1  0.4657830000000  0.5664690000000  0.5622050000000 1.0
C      1  0.5356860000000  0.5714220000000  0.5769300000000 1.0
C      1  0.5847080000000  0.5194280000000  0.5687610000000 1.0
C      1  0.5674000000000  0.4505850000000  0.5649780000000 1.0
C      1  0.4580090000000  0.5395570000000  0.5697510000000 1.0
C      1  0.5123740000000  0.5526480000000  0.5721800000000 1.0
C      1  0.5567680000000  0.5266730000000  0.5798370000000 1.0
C      1  0.5607550000000  0.4787290000000  0.5726140000000 1.0
C      1  0.5189370000000  0.4497330000000  0.5719020000000 1.0
C      1  0.4644280000000  0.4561910000000  0.5773920000000 1.0
C      1  0.4363040000000  0.4972390000000  0.5757430000000 1.0
C      1  0.4848500000000  0.4526070000000  0.5210470000000 1.0
C      1  0.4690490000000  0.4763970000000  0.5085310000000 1.0
C      1  0.4775430000000  0.5139180000000  0.5032190000000 1.0
C      1  0.4991900000000  0.5367150000000  0.5023500000000 1.0
C      1  0.5246060000000  0.5361970000000  0.5167770000000 1.0
C      1  0.5358380000000  0.5112670000000  0.5044900000000 1.0
C      1  0.5154090000000  0.4565620000000  0.5172740000000 1.0
C      1  0.5887850000000  0.5670580000000  0.4844600000000 1.0
C      1  0.5936160000000  0.4663910000000  0.4845330000000 1.0
C      1  0.5367860000000  0.3989820000000  0.4716020000000 1.0
C      1  0.4398800000000  0.4016200000000  0.4719380000000 1.0
C      1  0.3948720000000  0.4806240000000  0.4847820000000 1.0
C      1  0.4285500000000  0.5727530000000  0.4820270000000 1.0
C      1  0.5088410000000  0.6156640000000  0.4624060000000 1.0
C      1  0.5880520000000  0.4906190000000  0.5671700000000 1.0
C      1  0.5443270000000  0.4329500000000  0.5673710000000 1.0
C      1  0.4733140000000  0.4278980000000  0.5765300000000 1.0
C      1  0.4183810000000  0.4736770000000  0.5693030000000 1.0
C      1  0.4276150000000  0.5446340000000  0.5681360000000 1.0
C      1  0.4929230000000  0.5734940000000  0.5645990000000 1.0
C      1  0.5605640000000  0.5564170000000  0.5756960000000 1.0
C      1  0.5235890000000  0.5055390000000  0.3883040000000 1.0
C      1  0.5252870000000  0.4793420000000  0.3989660000000 1.0
C      1  0.4972700000000  0.4694850000000  0.3975050000000 1.0
C      1  0.4808030000000  0.4884230000000  0.3839030000000 1.0
C      1  0.4670610000000  0.5122910000000  0.3913590000000 1.0
C      1  0.4863130000000  0.5341570000000  0.3940060000000 1.0
C      1  0.5129700000000  0.5274970000000  0.4028830000000 1.0
C      1  0.4406610000000  0.4983020000000  0.4748500000000 1.0
C      1  0.4766920000000  0.5616680000000  0.4708850000000 1.0
C      1  0.5257040000000  0.5766010000000  0.4852600000000 1.0
C      1  0.5641310000000  0.5285570000000  0.4752760000000 1.0
C      1  0.5432770000000  0.4645300000000  0.4751920000000 1.0
C      1  0.4952720000000  0.4200090000000  0.4875290000000 1.0
C      1  0.4409170000000  0.4495390000000  0.4789980000000 1.0
C      1  0.4712240000000  0.5035000000000  0.4750040000000 1.0
C      1  0.5046860000000  0.5521940000000  0.4779020000000 1.0
C      1  0.5161120000000  0.5290300000000  0.4595080000000 1.0
C      1  0.5379340000000  0.5145010000000  0.4755180000000 1.0
C      1  0.5164910000000  0.4632700000000  0.4863820000000 1.0
C      1  0.4937090000000  0.4474870000000  0.4727430000000 1.0
C      1  0.4686790000000  0.4641720000000  0.4801460000000 1.0
C      1  0.4119090000000  0.4811310000000  0.5398510000000 1.0
C      1  0.4236340000000  0.5573040000000  0.5404960000000 1.0
C      1  0.5038720000000  0.5915990000000  0.5448860000000 1.0
C      1  0.5702600000000  0.5579010000000  0.5477310000000 1.0
C      1  0.5945920000000  0.4820200000000  0.5388090000000 1.0
C      1  0.5350570000000  0.4163520000000  0.5432460000000 1.0
C      1  0.4589610000000  0.4118980000000  0.5557990000000 1.0
C      1  0.3953520000000  0.4608270000000  0.4621850000000 1.0
C      1  0.4124450000000  0.5515560000000  0.4702810000000 1.0
C      1  0.4861680000000  0.6045670000000  0.4482840000000 1.0
C      1  0.5755180000000  0.5828880000000  0.4620170000000 1.0
C      1  0.6035220000000  0.4918270000000  0.4735690000000 1.0
C      1  0.5574780000000  0.4125310000000  0.4547180000000 1.0
C      1  0.4638420000000  0.3992370000000  0.4554700000000 1.0
C      1  0.5244840000000  0.4151290000000  0.4946230000000 1.0
C      1  0.4461600000000  0.4263920000000  0.5004080000000 1.0
C      1  0.4260320000000  0.4758100000000  0.4907200000000 1.0
C      1  0.4545780000000  0.5616170000000  0.4947490000000 1.0
C      1  0.5083250000000  0.5978620000000  0.4962740000000 1.0
C      1  0.5669080000000  0.5497370000000  0.4957250000000 1.0
C      1  0.5646170000000  0.4681720000000  0.4963430000000 1.0
C      1  0.4187570000000  0.5018920000000  0.4532520000000 1.0
C      1  0.4448410000000  0.5670880000000  0.4373160000000 1.0
C      1  0.5220950000000  0.5789080000000  0.4411630000000 1.0
C      1  0.5869030000000  0.5396310000000  0.4454930000000 1.0
C      1  0.5799080000000  0.4632280000000  0.4421000000000 1.0
C      1  0.5146440000000  0.4220260000000  0.4359430000000 1.0
C      1  0.4404160000000  0.4339190000000  0.4380510000000 1.0
C      1  0.5056130000000  0.4860420000000  0.4410140000000 1.0
C      1  0.4962980000000  0.4870110000000  0.5524850000000 1.0
C      1  0.4930270000000  0.5107720000000  0.4523260000000 1.0
C      1  0.4935890000000  0.5141440000000  0.5442520000000 1.0
END
