TITL C-3577091-527-615 -5.70640921051621e-07 125000 -1141.92498629712 0 0 184 (C1) n - 1
REM
REM in /home/bkarasulu/work/CARBON/AIRSS/Generating-Clusters/EDIP-Nigel-Params/with-SteepDescent/Higher-Symm/SD-CG/HFTN-CG
REM
REM
REM
REM
REM
REM ./C.cell (12c818d87b63d06a65506943cc24bca4)
REM
REM compiler GCC version 9.2.1 20190827 (Red Hat 9.2.1-1)
REM options -cpp -mtune=generic -march=x86-64 -g -O0 -fpre-include=/usr/include/finclude/math-vector-fortran.h
REM seed -648529231 -896679687 -1583119139 -371013577 -1169961752 -1179789839 -2086313352 -84388597 1016619005 -142173416 848090452 1879850861 -121787929 1394252193 737377402 -721432602 -120733077 -1126389121 -278997667 -33970561 439572460 1501292445 -1539641303 512709070 1136321775 17551616 -47408665 816226320 2117292671 2133289853 -249339874 4627978 429120342
REM
CELL 1.54180   50.00000   50.00000   50.00000   90.00000   90.00000   90.00000
LATT -1
SFAC C  
C      1  0.5601080000000  0.5929880000000  0.4702240000000 1.0
C      1  0.5582850000000  0.4065100000000  0.5298670000000 1.0
C      1  0.4427560000000  0.5941960000000  0.5275170000000 1.0
C      1  0.4429160000000  0.4071760000000  0.4694950000000 1.0
C      1  0.4113120000000  0.5575360000000  0.5180720000000 1.0
C      1  0.4163860000000  0.4449610000000  0.4794570000000 1.0
C      1  0.5853960000000  0.5536630000000  0.4845770000000 1.0
C      1  0.5868880000000  0.4426240000000  0.5194320000000 1.0
C      1  0.5449970000000  0.4313030000000  0.4053260000000 1.0
C      1  0.5448160000000  0.5694430000000  0.5947750000000 1.0
C      1  0.4550290000000  0.4282690000000  0.5913010000000 1.0
C      1  0.4541950000000  0.5729540000000  0.4065190000000 1.0
C      1  0.4693320000000  0.5443700000000  0.5794530000000 1.0
C      1  0.4630290000000  0.4550190000000  0.4129260000000 1.0
C      1  0.5182850000000  0.5455960000000  0.4124640000000 1.0
C      1  0.5364330000000  0.4673220000000  0.5855800000000 1.0
C      1  0.4346420000000  0.5704110000000  0.4278620000000 1.0
C      1  0.4352020000000  0.4295720000000  0.5703450000000 1.0
C      1  0.5659540000000  0.5633260000000  0.5758530000000 1.0
C      1  0.5667330000000  0.4350650000000  0.4233780000000 1.0
C      1  0.5779050000000  0.5100610000000  0.4590360000000 1.0
C      1  0.5792550000000  0.4870080000000  0.5472540000000 1.0
C      1  0.4200650000000  0.5091460000000  0.5474740000000 1.0
C      1  0.4228210000000  0.4911410000000  0.4527890000000 1.0
C      1  0.5155470000000  0.5309110000000  0.3863710000000 1.0
C      1  0.5189540000000  0.4704300000000  0.6120270000000 1.0
C      1  0.4779250000000  0.5313470000000  0.6045220000000 1.0
C      1  0.4769780000000  0.4698850000000  0.3930070000000 1.0
C      1  0.5502970000000  0.5029270000000  0.5829220000000 1.0
C      1  0.5475540000000  0.4919740000000  0.4222030000000 1.0
C      1  0.4498210000000  0.5172470000000  0.4191220000000 1.0
C      1  0.4484230000000  0.4838560000000  0.5818870000000 1.0
C      1  0.4268100000000  0.5661320000000  0.5697440000000 1.0
C      1  0.4256370000000  0.4344800000000  0.4290410000000 1.0
C      1  0.5472850000000  0.5494640000000  0.4205450000000 1.0
C      1  0.5742020000000  0.4399390000000  0.5700910000000 1.0
C      1  0.4196700000000  0.5471000000000  0.5460550000000 1.0
C      1  0.4274440000000  0.4546290000000  0.4521380000000 1.0
C      1  0.5748930000000  0.5407830000000  0.4599070000000 1.0
C      1  0.5724720000000  0.4542650000000  0.5446760000000 1.0
C      1  0.4847270000000  0.4977870000000  0.4003360000000 1.0
C      1  0.4845360000000  0.5029300000000  0.5995630000000 1.0
C      1  0.5134430000000  0.4988430000000  0.6053830000000 1.0
C      1  0.5140010000000  0.5028100000000  0.3962220000000 1.0
C      1  0.5259000000000  0.5883550000000  0.4303980000000 1.0
C      1  0.5286820000000  0.4194620000000  0.5694310000000 1.0
C      1  0.4731980000000  0.5867290000000  0.5674140000000 1.0
C      1  0.4727200000000  0.4113410000000  0.4290760000000 1.0
C      1  0.5226270000000  0.5879070000000  0.5873140000000 1.0
C      1  0.5222100000000  0.4136720000000  0.4090080000000 1.0
C      1  0.4782740000000  0.5890220000000  0.4112630000000 1.0
C      1  0.4800890000000  0.4135630000000  0.5873010000000 1.0
C      1  0.4752250000000  0.4918800000000  0.5694770000000 1.0
C      1  0.4773950000000  0.5110490000000  0.4331870000000 1.0
C      1  0.5273390000000  0.4884170000000  0.4427710000000 1.0
C      1  0.5324140000000  0.5128230000000  0.5618610000000 1.0
C      1  0.5139590000000  0.5338370000000  0.5658640000000 1.0
C      1  0.5079010000000  0.4673540000000  0.4385910000000 1.0
C      1  0.4972010000000  0.5367030000000  0.4377350000000 1.0
C      1  0.4912440000000  0.4657290000000  0.5628810000000 1.0
C      1  0.4162220000000  0.4592050000000  0.5537700000000 1.0
C      1  0.4166420000000  0.5405850000000  0.4452720000000 1.0
C      1  0.5833530000000  0.4636180000000  0.4437900000000 1.0
C      1  0.5842250000000  0.5325670000000  0.5604400000000 1.0
C      1  0.3935760000000  0.4886430000000  0.4902540000000 1.0
C      1  0.3927580000000  0.5111090000000  0.5085830000000 1.0
C      1  0.6085490000000  0.4866250000000  0.5103040000000 1.0
C      1  0.6089360000000  0.5100900000000  0.4938470000000 1.0
C      1  0.5364530000000  0.4237010000000  0.5409210000000 1.0
C      1  0.5381320000000  0.5781500000000  0.4562070000000 1.0
C      1  0.4651550000000  0.4218500000000  0.4561270000000 1.0
C      1  0.4630480000000  0.5769760000000  0.5403930000000 1.0
C      1  0.4671790000000  0.5546260000000  0.4645190000000 1.0
C      1  0.4663930000000  0.4450230000000  0.5330510000000 1.0
C      1  0.5357710000000  0.5569610000000  0.5350280000000 1.0
C      1  0.5355470000000  0.4424980000000  0.4625990000000 1.0
C      1  0.4119420000000  0.5333150000000  0.4989270000000 1.0
C      1  0.4139230000000  0.4677750000000  0.5000290000000 1.0
C      1  0.5900110000000  0.5312760000000  0.5058120000000 1.0
C      1  0.5895990000000  0.4654430000000  0.4985060000000 1.0
C      1  0.5195720000000  0.5494230000000  0.5915860000000 1.0
C      1  0.5154850000000  0.4518660000000  0.4115040000000 1.0
C      1  0.4759060000000  0.5503630000000  0.4075760000000 1.0
C      1  0.4784250000000  0.4523430000000  0.5895040000000 1.0
C      1  0.4808250000000  0.3969130000000  0.4897830000000 1.0
C      1  0.4814160000000  0.5991750000000  0.5064520000000 1.0
C      1  0.5204560000000  0.3967310000000  0.5093520000000 1.0
C      1  0.5213420000000  0.6041680000000  0.4881820000000 1.0
C      1  0.4894720000000  0.5474600000000  0.5090850000000 1.0
C      1  0.4889460000000  0.4504240000000  0.4881850000000 1.0
C      1  0.5153310000000  0.5487740000000  0.4904760000000 1.0
C      1  0.5138830000000  0.4485430000000  0.5053800000000 1.0
C      1  0.5622790000000  0.4411560000000  0.4507040000000 1.0
C      1  0.5608390000000  0.5603940000000  0.5483620000000 1.0
C      1  0.4397880000000  0.4411560000000  0.5446490000000 1.0
C      1  0.4401470000000  0.5592570000000  0.4538090000000 1.0
C      1  0.4254770000000  0.5142380000000  0.4330290000000 1.0
C      1  0.4240060000000  0.4857060000000  0.5668930000000 1.0
C      1  0.5766620000000  0.5052070000000  0.5709540000000 1.0
C      1  0.5739560000000  0.4922240000000  0.4344890000000 1.0
C      1  0.5600310000000  0.4756130000000  0.4974240000000 1.0
C      1  0.5603950000000  0.5211220000000  0.5060680000000 1.0
C      1  0.4428160000000  0.4794910000000  0.5014860000000 1.0
C      1  0.4414850000000  0.5230440000000  0.4996160000000 1.0
C      1  0.5220880000000  0.5206360000000  0.6247570000000 1.0
C      1  0.5221180000000  0.4800060000000  0.3779680000000 1.0
C      1  0.4713790000000  0.5159350000000  0.3805010000000 1.0
C      1  0.4721280000000  0.4838730000000  0.6193920000000 1.0
C      1  0.4946690000000  0.3693300000000  0.4861890000000 1.0
C      1  0.4926050000000  0.6270810000000  0.5127130000000 1.0
C      1  0.5056440000000  0.3698470000000  0.5144400000000 1.0
C      1  0.5041980000000  0.6304610000000  0.4850300000000 1.0
C      1  0.5035550000000  0.4151590000000  0.4306750000000 1.0
C      1  0.5032960000000  0.5814430000000  0.5668680000000 1.0
C      1  0.4983370000000  0.4222040000000  0.5667930000000 1.0
C      1  0.4973450000000  0.5798560000000  0.4307300000000 1.0
C      1  0.4552810000000  0.3988030000000  0.5055110000000 1.0
C      1  0.4554320000000  0.5986230000000  0.4910380000000 1.0
C      1  0.5465300000000  0.3971880000000  0.4939050000000 1.0
C      1  0.5461680000000  0.6031150000000  0.5051610000000 1.0
C      1  0.4258000000000  0.5810310000000  0.5091220000000 1.0
C      1  0.4278120000000  0.4205230000000  0.4890040000000 1.0
C      1  0.5732390000000  0.5792480000000  0.4912300000000 1.0
C      1  0.5748610000000  0.4180470000000  0.5102420000000 1.0
C      1  0.4464630000000  0.5218320000000  0.3912580000000 1.0
C      1  0.4469330000000  0.4771720000000  0.6093360000000 1.0
C      1  0.5463850000000  0.5199850000000  0.6076830000000 1.0
C      1  0.5451110000000  0.4788490000000  0.3961350000000 1.0
C      1  0.4862010000000  0.5784900000000  0.4587980000000 1.0
C      1  0.4858250000000  0.4216410000000  0.5386890000000 1.0
C      1  0.5154460000000  0.5797340000000  0.5390370000000 1.0
C      1  0.5163220000000  0.4181260000000  0.4585020000000 1.0
C      1  0.4877770000000  0.5401070000000  0.3808830000000 1.0
C      1  0.4910910000000  0.4604920000000  0.6159740000000 1.0
C      1  0.5029560000000  0.5424840000000  0.6161980000000 1.0
C      1  0.5025020000000  0.4587860000000  0.3851530000000 1.0
C      1  0.4851710000000  0.3732710000000  0.5335840000000 1.0
C      1  0.4844930000000  0.6267900000000  0.4650930000000 1.0
C      1  0.5156320000000  0.3708660000000  0.4672880000000 1.0
C      1  0.5130830000000  0.6268650000000  0.5320900000000 1.0
C      1  0.5428590000000  0.4516130000000  0.5388020000000 1.0
C      1  0.5472160000000  0.5495430000000  0.4500380000000 1.0
C      1  0.4596400000000  0.4512670000000  0.4512990000000 1.0
C      1  0.4504370000000  0.5488830000000  0.5438750000000 1.0
C      1  0.5132610000000  0.5017050000000  0.5186460000000 1.0
C      1  0.5131000000000  0.4965470000000  0.4882640000000 1.0
C      1  0.4863470000000  0.5059560000000  0.4846110000000 1.0
C      1  0.4854900000000  0.4971390000000  0.5218170000000 1.0
C      1  0.5487250000000  0.4389280000000  0.5833910000000 1.0
C      1  0.5421290000000  0.5763320000000  0.4101170000000 1.0
C      1  0.4505490000000  0.4290020000000  0.4144390000000 1.0
C      1  0.4533880000000  0.5691080000000  0.5829950000000 1.0
C      1  0.4645760000000  0.5435890000000  0.4922640000000 1.0
C      1  0.4647910000000  0.4569780000000  0.5061930000000 1.0
C      1  0.5392340000000  0.5446050000000  0.5087480000000 1.0
C      1  0.5387390000000  0.4527720000000  0.4901290000000 1.0
C      1  0.4010630000000  0.5317750000000  0.4699130000000 1.0
C      1  0.4013970000000  0.4677840000000  0.5287620000000 1.0
C      1  0.6007720000000  0.5279070000000  0.5356250000000 1.0
C      1  0.6003610000000  0.4687600000000  0.4689000000000 1.0
C      1  0.5573670000000  0.4941690000000  0.5266800000000 1.0
C      1  0.5573310000000  0.5026730000000  0.4802750000000 1.0
C      1  0.4449610000000  0.4947730000000  0.4736620000000 1.0
C      1  0.4436520000000  0.5083180000000  0.5278680000000 1.0
C      1  0.5124280000000  0.4229730000000  0.5226150000000 1.0
C      1  0.5135340000000  0.5772770000000  0.4752400000000 1.0
C      1  0.4891980000000  0.4215540000000  0.4743920000000 1.0
C      1  0.4884290000000  0.5751700000000  0.5233390000000 1.0
C      1  0.3978200000000  0.5018830000000  0.4653400000000 1.0
C      1  0.3967350000000  0.4973340000000  0.5337000000000 1.0
C      1  0.6041770000000  0.4978350000000  0.5364160000000 1.0
C      1  0.6036390000000  0.4989250000000  0.4678360000000 1.0
C      1  0.4898990000000  0.5369290000000  0.5471300000000 1.0
C      1  0.4845810000000  0.4672530000000  0.4596600000000 1.0
C      1  0.5218360000000  0.5337230000000  0.4612550000000 1.0
C      1  0.5227060000000  0.4681290000000  0.5570510000000 1.0
C      1  0.5305120000000  0.4941540000000  0.5404590000000 1.0
C      1  0.5302150000000  0.5051340000000  0.4673640000000 1.0
C      1  0.4730280000000  0.4949970000000  0.4618760000000 1.0
C      1  0.4723650000000  0.5103690000000  0.5436100000000 1.0
C      1  0.4691120000000  0.6032550000000  0.4641850000000 1.0
C      1  0.4694090000000  0.3965030000000  0.5326410000000 1.0
C      1  0.5306630000000  0.6050450000000  0.5315660000000 1.0
C      1  0.5323620000000  0.3934610000000  0.4668110000000 1.0
END
