TITL C-3577084-3642-430 1.36965015650501e-07 125000 -14.5108458245354 0 0 4 (D3h) n - 1
REM
REM in /home/bkarasulu/work/CARBON/AIRSS/Generating-Clusters/EDIP-Nigel-Params/with-SteepDescent/Higher-Symm/SD-CG/HFTN-CG
REM
REM
REM
REM
REM
REM ./C.cell (12c818d87b63d06a65506943cc24bca4)
REM
REM compiler GCC version 9.2.1 20190827 (Red Hat 9.2.1-1)
REM options -cpp -mtune=generic -march=x86-64 -g -O0 -fpre-include=/usr/include/finclude/math-vector-fortran.h
REM seed 1074778831 -985978760 -512965746 -1718479753 -645278298 -279635666 1788329065 1784853012 -435252181 -2013247751 -110695302 212609021 1318112135 539929775 -1784036667 -768689749 -1435946063 2041939414 674465429 -892420870 -222460417 -142037528 322953932 800779218 248115301 2108180638 -115802841 -346382661 1474095914 -2045114710 733886805 1525842975 1561083381
REM
CELL 1.54180   50.00000   50.00000   50.00000   90.00000   90.00000   90.00000
LATT -1
SFAC C  
C      1  0.5019350000000  0.5112350000000  0.4744460000000 1.0
C      1  0.5019350000000  0.4757070000000  0.5032400000000 1.0
C      1  0.5019350000000  0.5184080000000  0.5196120000000 1.0
C      1  0.5019350000000  0.5017830000000  0.4990990000000 1.0
END
