TITL C-3578198-8939-584 2.20412435086967e-07 125000 -184.467802336391 0 0 32 (C3i) n - 1
REM
REM in /home/bkarasulu/work/CARBON/AIRSS/Generating-Clusters/EDIP-Nigel-Params/with-SteepDescent/Higher-Symm/SD-CG/HFTN-CG
REM
REM
REM
REM
REM
REM ./C.cell (12c818d87b63d06a65506943cc24bca4)
REM
REM compiler GCC version 9.2.1 20190827 (Red Hat 9.2.1-1)
REM options -cpp -mtune=generic -march=x86-64 -g -O0 -fpre-include=/usr/include/finclude/math-vector-fortran.h
REM seed 1047505791 -1230173275 -1338179525 -1955849078 -1676473548 1197131730 1742552467 1041026075 502234779 -20125216 -795548088 -652002288 497285510 1846098441 -2003408104 -1026031408 -1003547511 565268997 -458283064 -1103183580 -705416698 -1920104824 -1141518847 -930237290 -1179230500 -2101483733 682884480 1321416046 -735922003 984890293 -1881889113 -9245138 -707387517
REM
CELL 1.54180   50.00000   50.00000   50.00000   90.00000   90.00000   90.00000
LATT -1
SFAC C  
C      1  0.4662570000000  0.5319960000000  0.4747140000000 1.0
C      1  0.5047950000000  0.4680040000000  0.4562140000000 1.0
C      1  0.5400860000000  0.5319960000000  0.4803380000000 1.0
C      1  0.5368390000000  0.4680040000000  0.5229640000000 1.0
C      1  0.4983010000000  0.5319960000000  0.5414640000000 1.0
C      1  0.4630100000000  0.4680040000000  0.5173390000000 1.0
C      1  0.4394920000000  0.4817760000000  0.4836940000000 1.0
C      1  0.4836360000000  0.5182240000000  0.4375240000000 1.0
C      1  0.5456920000000  0.4817760000000  0.4526700000000 1.0
C      1  0.5636040000000  0.5182240000000  0.5139840000000 1.0
C      1  0.5194600000000  0.4817760000000  0.5601530000000 1.0
C      1  0.4574040000000  0.5182240000000  0.5450080000000 1.0
C      1  0.4832230000000  0.5030750000000  0.5473210000000 1.0
C      1  0.4503980000000  0.4969250000000  0.5072100000000 1.0
C      1  0.4687230000000  0.5030750000000  0.4587280000000 1.0
C      1  0.5198730000000  0.4969250000000  0.4503560000000 1.0
C      1  0.5526980000000  0.5030750000000  0.4904680000000 1.0
C      1  0.5343720000000  0.4969250000000  0.5389500000000 1.0
C      1  0.4893050000000  0.4790150000000  0.5266860000000 1.0
C      1  0.4713100000000  0.5209850000000  0.5021600000000 1.0
C      1  0.4835530000000  0.4790150000000  0.4743130000000 1.0
C      1  0.5137910000000  0.5209850000000  0.4709920000000 1.0
C      1  0.5317860000000  0.4790150000000  0.4955180000000 1.0
C      1  0.5195430000000  0.5209850000000  0.5233650000000 1.0
C      1  0.4925750000000  0.5389590000000  0.4575820000000 1.0
C      1  0.5327910000000  0.4610410000000  0.4704400000000 1.0
C      1  0.5417640000000  0.5389590000000  0.5116970000000 1.0
C      1  0.5105200000000  0.4610410000000  0.5400960000000 1.0
C      1  0.4703040000000  0.5389590000000  0.5272380000000 1.0
C      1  0.4613320000000  0.4610410000000  0.4859810000000 1.0
C      1  0.5015480000000  0.4861790000000  0.4988390000000 1.0
C      1  0.5015480000000  0.5138210000000  0.4988390000000 1.0
END
