TITL C-3577077-324-357 -6.42156735508838e-07 125000 -1120.49691958332 0 0 178 (C1) n - 1
REM
REM in /home/bkarasulu/work/CARBON/AIRSS/Generating-Clusters/EDIP-Nigel-Params/with-SteepDescent/Higher-Symm/SD-CG/HFTN-CG
REM
REM
REM
REM
REM
REM ./C.cell (12c818d87b63d06a65506943cc24bca4)
REM
REM compiler GCC version 9.2.1 20190827 (Red Hat 9.2.1-1)
REM options -cpp -mtune=generic -march=x86-64 -g -O0 -fpre-include=/usr/include/finclude/math-vector-fortran.h
REM seed 1835609555 -1929332264 568876874 1949032766 -1416162411 1488097660 1632615510 1943532539 1345951415 1893994431 1602735352 -1113701618 247584100 106318081 -1917715522 -1849546813 1577308906 -1207185642 889349519 916283615 859976993 387261060 -32605114 1933817925 -745378606 -1661458268 13059688 -523153266 1237072477 -1157009850 -665212652 -2145857198 796704614
REM
CELL 1.54180   50.00000   50.00000   50.00000   90.00000   90.00000   90.00000
LATT -1
SFAC C  
C      1  0.5338340000000  0.4554150000000  0.4936300000000 1.0
C      1  0.4723150000000  0.5289940000000  0.4564210000000 1.0
C      1  0.4644170000000  0.4770940000000  0.5384720000000 1.0
C      1  0.4770680000000  0.5537190000000  0.4771790000000 1.0
C      1  0.4603080000000  0.4557640000000  0.5077460000000 1.0
C      1  0.5370100000000  0.5441960000000  0.5034620000000 1.0
C      1  0.5287990000000  0.4591410000000  0.4652780000000 1.0
C      1  0.5068680000000  0.5342560000000  0.5447310000000 1.0
C      1  0.4938380000000  0.4660980000000  0.5490680000000 1.0
C      1  0.5349730000000  0.5302920000000  0.5312820000000 1.0
C      1  0.5237120000000  0.4897520000000  0.4600170000000 1.0
C      1  0.4636090000000  0.5045180000000  0.4692430000000 1.0
C      1  0.5266340000000  0.5207470000000  0.4089450000000 1.0
C      1  0.4126150000000  0.5222370000000  0.5240050000000 1.0
C      1  0.5253300000000  0.4110880000000  0.5261500000000 1.0
C      1  0.4721810000000  0.4820290000000  0.4094550000000 1.0
C      1  0.4756690000000  0.5198190000000  0.5866160000000 1.0
C      1  0.5224200000000  0.4759930000000  0.5890350000000 1.0
C      1  0.5898530000000  0.4754340000000  0.5265540000000 1.0
C      1  0.5900580000000  0.5255780000000  0.4778990000000 1.0
C      1  0.4106470000000  0.4726890000000  0.4778350000000 1.0
C      1  0.4760720000000  0.5879480000000  0.5239150000000 1.0
C      1  0.4813910000000  0.4157100000000  0.4749260000000 1.0
C      1  0.5190220000000  0.5863040000000  0.4745660000000 1.0
C      1  0.5005450000000  0.3934800000000  0.4774210000000 1.0
C      1  0.4751220000000  0.5035310000000  0.3892090000000 1.0
C      1  0.3933880000000  0.4758890000000  0.5020540000000 1.0
C      1  0.4994460000000  0.6083820000000  0.4773420000000 1.0
C      1  0.4997030000000  0.3952710000000  0.5266310000000 1.0
C      1  0.5011020000000  0.6038540000000  0.5256360000000 1.0
C      1  0.5242160000000  0.4987610000000  0.3892190000000 1.0
C      1  0.5206890000000  0.4993770000000  0.6071780000000 1.0
C      1  0.4763170000000  0.4974920000000  0.6066110000000 1.0
C      1  0.6074840000000  0.5217660000000  0.5019200000000 1.0
C      1  0.6056500000000  0.4753070000000  0.5011860000000 1.0
C      1  0.3948800000000  0.5224640000000  0.5000540000000 1.0
C      1  0.5094230000000  0.4592800000000  0.5078180000000 1.0
C      1  0.4993250000000  0.5232360000000  0.4442530000000 1.0
C      1  0.4677900000000  0.5063460000000  0.5204560000000 1.0
C      1  0.4890600000000  0.5399130000000  0.5007120000000 1.0
C      1  0.4835900000000  0.4685970000000  0.4937230000000 1.0
C      1  0.5156750000000  0.5312230000000  0.4881340000000 1.0
C      1  0.4959750000000  0.4835640000000  0.4476680000000 1.0
C      1  0.4939670000000  0.5095640000000  0.5392600000000 1.0
C      1  0.5149790000000  0.4887150000000  0.5406080000000 1.0
C      1  0.5353000000000  0.4944670000000  0.5146760000000 1.0
C      1  0.5213230000000  0.5024790000000  0.4883550000000 1.0
C      1  0.4779140000000  0.4974690000000  0.4936830000000 1.0
C      1  0.4266530000000  0.5133160000000  0.4177850000000 1.0
C      1  0.4192380000000  0.4306390000000  0.5111980000000 1.0
C      1  0.5120130000000  0.4200060000000  0.4302110000000 1.0
C      1  0.5703170000000  0.4880310000000  0.4193810000000 1.0
C      1  0.5765420000000  0.5166880000000  0.5856010000000 1.0
C      1  0.4308190000000  0.4878140000000  0.5838020000000 1.0
C      1  0.5809190000000  0.5677040000000  0.5108380000000 1.0
C      1  0.5820420000000  0.4255050000000  0.4816920000000 1.0
C      1  0.4173360000000  0.5738830000000  0.4820860000000 1.0
C      1  0.4877590000000  0.5828910000000  0.4290290000000 1.0
C      1  0.4777420000000  0.4163960000000  0.5780860000000 1.0
C      1  0.5209610000000  0.5798910000000  0.5757950000000 1.0
C      1  0.5099720000000  0.4440870000000  0.5334510000000 1.0
C      1  0.5404890000000  0.5076290000000  0.4342620000000 1.0
C      1  0.4412510000000  0.5266180000000  0.5140230000000 1.0
C      1  0.4892970000000  0.5538170000000  0.5284730000000 1.0
C      1  0.4997710000000  0.4379870000000  0.4625120000000 1.0
C      1  0.5021550000000  0.5655910000000  0.4607170000000 1.0
C      1  0.4557850000000  0.4943230000000  0.4342910000000 1.0
C      1  0.4599260000000  0.5045120000000  0.5641880000000 1.0
C      1  0.5343800000000  0.4902660000000  0.5648620000000 1.0
C      1  0.5558890000000  0.4701510000000  0.5077400000000 1.0
C      1  0.5641370000000  0.5422330000000  0.4871060000000 1.0
C      1  0.4359760000000  0.4551450000000  0.4858100000000 1.0
C      1  0.4991420000000  0.5338260000000  0.4165440000000 1.0
C      1  0.4138020000000  0.4969950000000  0.5402000000000 1.0
C      1  0.5396980000000  0.4119250000000  0.4987450000000 1.0
C      1  0.4990770000000  0.4703600000000  0.4199650000000 1.0
C      1  0.5030580000000  0.5344320000000  0.5770770000000 1.0
C      1  0.4966130000000  0.4614930000000  0.5797900000000 1.0
C      1  0.5864830000000  0.5009710000000  0.5414310000000 1.0
C      1  0.5834720000000  0.4990930000000  0.4638170000000 1.0
C      1  0.4159720000000  0.4995940000000  0.4625220000000 1.0
C      1  0.4615540000000  0.5839990000000  0.4960790000000 1.0
C      1  0.4658250000000  0.4242440000000  0.5039390000000 1.0
C      1  0.5334840000000  0.5751210000000  0.5021540000000 1.0
C      1  0.4387810000000  0.4698200000000  0.4386910000000 1.0
C      1  0.4520600000000  0.4517140000000  0.4587130000000 1.0
C      1  0.4817460000000  0.4614220000000  0.4645450000000 1.0
C      1  0.5624040000000  0.5295190000000  0.4391660000000 1.0
C      1  0.5574290000000  0.4724210000000  0.5592790000000 1.0
C      1  0.4440060000000  0.5284510000000  0.5567530000000 1.0
C      1  0.5560880000000  0.5522870000000  0.4588870000000 1.0
C      1  0.5605460000000  0.4443880000000  0.5267990000000 1.0
C      1  0.4418960000000  0.5556240000000  0.5233280000000 1.0
C      1  0.5187510000000  0.5408160000000  0.4597810000000 1.0
C      1  0.5406530000000  0.4474800000000  0.5485800000000 1.0
C      1  0.4606770000000  0.5518100000000  0.5454530000000 1.0
C      1  0.4108660000000  0.5259940000000  0.4750500000000 1.0
C      1  0.4773660000000  0.4145200000000  0.5296130000000 1.0
C      1  0.5258600000000  0.4753760000000  0.4074730000000 1.0
C      1  0.5868490000000  0.4734350000000  0.4778450000000 1.0
C      1  0.5934450000000  0.5255000000000  0.5278130000000 1.0
C      1  0.4069050000000  0.4717290000000  0.5283060000000 1.0
C      1  0.5222070000000  0.5833860000000  0.5281110000000 1.0
C      1  0.5277150000000  0.4050390000000  0.4728070000000 1.0
C      1  0.4720030000000  0.5972530000000  0.4717120000000 1.0
C      1  0.4721430000000  0.5287020000000  0.4041510000000 1.0
C      1  0.4720500000000  0.4708880000000  0.5930690000000 1.0
C      1  0.5270120000000  0.5241790000000  0.5918380000000 1.0
C      1  0.5515120000000  0.5244180000000  0.5738720000000 1.0
C      1  0.5777140000000  0.5495920000000  0.5328550000000 1.0
C      1  0.5349360000000  0.5730120000000  0.5526850000000 1.0
C      1  0.4471990000000  0.4651560000000  0.5773510000000 1.0
C      1  0.4473200000000  0.5340690000000  0.4214100000000 1.0
C      1  0.5508490000000  0.4671930000000  0.4227580000000 1.0
C      1  0.4242720000000  0.4485290000000  0.5325440000000 1.0
C      1  0.4229160000000  0.5521630000000  0.4658590000000 1.0
C      1  0.5770350000000  0.4478720000000  0.4656790000000 1.0
C      1  0.4637920000000  0.4221150000000  0.5546890000000 1.0
C      1  0.4645050000000  0.5819910000000  0.4459540000000 1.0
C      1  0.5358030000000  0.4195310000000  0.4465240000000 1.0
C      1  0.4310610000000  0.4567170000000  0.4122570000000 1.0
C      1  0.4117120000000  0.4294500000000  0.4597260000000 1.0
C      1  0.4526100000000  0.4235050000000  0.4321870000000 1.0
C      1  0.5707040000000  0.5415700000000  0.4124360000000 1.0
C      1  0.5660260000000  0.4586450000000  0.5869030000000 1.0
C      1  0.4297800000000  0.5437020000000  0.5892650000000 1.0
C      1  0.5841400000000  0.5660210000000  0.4528000000000 1.0
C      1  0.5924600000000  0.4278720000000  0.5422170000000 1.0
C      1  0.4101450000000  0.5713350000000  0.5388510000000 1.0
C      1  0.5439430000000  0.5843270000000  0.4309240000000 1.0
C      1  0.5455660000000  0.4243460000000  0.5675460000000 1.0
C      1  0.4549750000000  0.5745770000000  0.5636080000000 1.0
C      1  0.4072400000000  0.4999740000000  0.4350860000000 1.0
C      1  0.4381640000000  0.4135400000000  0.4995500000000 1.0
C      1  0.4956320000000  0.4407220000000  0.4192140000000 1.0
C      1  0.5916730000000  0.4972710000000  0.4362430000000 1.0
C      1  0.5912130000000  0.4990650000000  0.5695980000000 1.0
C      1  0.4111470000000  0.5011900000000  0.5684800000000 1.0
C      1  0.5614240000000  0.5848950000000  0.4995930000000 1.0
C      1  0.5682310000000  0.4101380000000  0.5004500000000 1.0
C      1  0.4330420000000  0.5901150000000  0.4980680000000 1.0
C      1  0.5038970000000  0.5629690000000  0.4167920000000 1.0
C      1  0.4991950000000  0.4325050000000  0.5853010000000 1.0
C      1  0.5003660000000  0.5629000000000  0.5839440000000 1.0
C      1  0.6004110000000  0.5254320000000  0.4313180000000 1.0
C      1  0.4288050000000  0.5920500000000  0.5277220000000 1.0
C      1  0.5254900000000  0.4213820000000  0.5884750000000 1.0
C      1  0.4006230000000  0.4704810000000  0.4318560000000 1.0
C      1  0.4084090000000  0.5311940000000  0.5719160000000 1.0
C      1  0.5930790000000  0.4691650000000  0.5744530000000 1.0
C      1  0.5735170000000  0.4079230000000  0.5302570000000 1.0
C      1  0.5666560000000  0.5927180000000  0.4722730000000 1.0
C      1  0.4329350000000  0.4135100000000  0.4707900000000 1.0
C      1  0.4719640000000  0.5706110000000  0.5886480000000 1.0
C      1  0.4690940000000  0.4335670000000  0.4107890000000 1.0
C      1  0.5314050000000  0.5689680000000  0.4110790000000 1.0
C      1  0.4550730000000  0.5967590000000  0.5441470000000 1.0
C      1  0.5404440000000  0.4547340000000  0.5998080000000 1.0
C      1  0.6021580000000  0.5426480000000  0.4560870000000 1.0
C      1  0.5472870000000  0.4035490000000  0.5463630000000 1.0
C      1  0.5421990000000  0.5942030000000  0.4570020000000 1.0
C      1  0.4580310000000  0.4086760000000  0.4561060000000 1.0
C      1  0.4584190000000  0.5438260000000  0.5957260000000 1.0
C      1  0.4566200000000  0.4579260000000  0.3996670000000 1.0
C      1  0.5444450000000  0.5441770000000  0.4013750000000 1.0
C      1  0.3988860000000  0.4546610000000  0.4574600000000 1.0
C      1  0.4047530000000  0.5434590000000  0.5439720000000 1.0
C      1  0.5977950000000  0.4557100000000  0.5472160000000 1.0
C      1  0.4996570000000  0.5009680000000  0.3762240000000 1.0
C      1  0.4982330000000  0.4995690000000  0.6236670000000 1.0
C      1  0.3786480000000  0.4996310000000  0.5004010000000 1.0
C      1  0.4980660000000  0.3814790000000  0.5024290000000 1.0
C      1  0.6220310000000  0.4979520000000  0.5004800000000 1.0
C      1  0.5023520000000  0.6194050000000  0.5026440000000 1.0
C      1  0.4433230000000  0.4439990000000  0.5556170000000 1.0
C      1  0.5512840000000  0.4477450000000  0.4480880000000 1.0
C      1  0.4458810000000  0.5555420000000  0.4456100000000 1.0
C      1  0.5520190000000  0.5466500000000  0.5498350000000 1.0
END
