TITL C-3577090-796-266 -7.26787334854094e-07 125000 -744.246245873068 0 0 115 (C1) n - 1
REM
REM in /home/bkarasulu/work/CARBON/AIRSS/Generating-Clusters/EDIP-Nigel-Params/with-SteepDescent/Higher-Symm/SD-CG/HFTN-CG
REM
REM
REM
REM
REM
REM ./C.cell (12c818d87b63d06a65506943cc24bca4)
REM
REM compiler GCC version 9.2.1 20190827 (Red Hat 9.2.1-1)
REM options -cpp -mtune=generic -march=x86-64 -g -O0 -fpre-include=/usr/include/finclude/math-vector-fortran.h
REM seed 713880897 -1198738447 -1302410420 1142524873 1573800646 -344524530 28138974 158697917 -1576991114 1789575010 -757345630 454784949 1786584291 82476027 -951683935 -1821704049 1449660956 -465709541 -1492357778 -1285205353 -997997733 -1379335071 -463184627 -1473372253 1754313156 -537633093 16804100 1959751300 316168243 -15530230 -1075781004 -232127158 1651457998
REM
CELL 1.54180   50.00000   50.00000   50.00000   90.00000   90.00000   90.00000
LATT -1
SFAC C  
C      1  0.4984640000000  0.4183570000000  0.4754400000000 1.0
C      1  0.4977070000000  0.4500950000000  0.5721060000000 1.0
C      1  0.5017060000000  0.5528690000000  0.5686700000000 1.0
C      1  0.5015810000000  0.5831610000000  0.4734080000000 1.0
C      1  0.5007000000000  0.5001010000000  0.4115810000000 1.0
C      1  0.4994000000000  0.4148310000000  0.5272520000000 1.0
C      1  0.5027050000000  0.4516710000000  0.4300150000000 1.0
C      1  0.5016150000000  0.5538970000000  0.4309040000000 1.0
C      1  0.5030280000000  0.5827050000000  0.5288230000000 1.0
C      1  0.4966590000000  0.4993350000000  0.5868850000000 1.0
C      1  0.5500760000000  0.4512910000000  0.4306540000000 1.0
C      1  0.5501230000000  0.4186520000000  0.5261890000000 1.0
C      1  0.5492240000000  0.4991440000000  0.5868130000000 1.0
C      1  0.5511760000000  0.5853460000000  0.5281160000000 1.0
C      1  0.5497060000000  0.5538070000000  0.4270620000000 1.0
C      1  0.4497820000000  0.4464000000000  0.5732500000000 1.0
C      1  0.4510710000000  0.4183170000000  0.4742560000000 1.0
C      1  0.4499400000000  0.4999280000000  0.4146870000000 1.0
C      1  0.4503110000000  0.5852120000000  0.4771660000000 1.0
C      1  0.4487060000000  0.5527610000000  0.5646170000000 1.0
C      1  0.4769630000000  0.5860780000000  0.5170660000000 1.0
C      1  0.4756670000000  0.5409580000000  0.4269400000000 1.0
C      1  0.4763430000000  0.4420850000000  0.4371540000000 1.0
C      1  0.4748320000000  0.4220850000000  0.5399930000000 1.0
C      1  0.4737500000000  0.5156060000000  0.5814180000000 1.0
C      1  0.5263970000000  0.5865880000000  0.4868520000000 1.0
C      1  0.5245310000000  0.5370820000000  0.5749620000000 1.0
C      1  0.5238300000000  0.4419370000000  0.5616360000000 1.0
C      1  0.5248490000000  0.4223490000000  0.4641200000000 1.0
C      1  0.5250100000000  0.5146120000000  0.4149880000000 1.0
C      1  0.4819610000000  0.4729950000000  0.5031790000000 1.0
C      1  0.4816920000000  0.4959330000000  0.5246320000000 1.0
C      1  0.4784940000000  0.5215710000000  0.5092510000000 1.0
C      1  0.4797950000000  0.5160750000000  0.4796540000000 1.0
C      1  0.4769070000000  0.4860700000000  0.4762220000000 1.0
C      1  0.5207230000000  0.4725730000000  0.4934240000000 1.0
C      1  0.5225700000000  0.4955580000000  0.4738660000000 1.0
C      1  0.5175200000000  0.5215960000000  0.4886490000000 1.0
C      1  0.5209710000000  0.5153180000000  0.5183930000000 1.0
C      1  0.5198540000000  0.4852860000000  0.5218890000000 1.0
C      1  0.5414670000000  0.4732170000000  0.4130760000000 1.0
C      1  0.5493430000000  0.4056850000000  0.5017530000000 1.0
C      1  0.5517480000000  0.4714870000000  0.5883200000000 1.0
C      1  0.5421940000000  0.5731700000000  0.5542220000000 1.0
C      1  0.5411060000000  0.5750120000000  0.4466100000000 1.0
C      1  0.4580120000000  0.4719940000000  0.5873440000000 1.0
C      1  0.4593330000000  0.4080530000000  0.5005460000000 1.0
C      1  0.4512860000000  0.4727050000000  0.4098090000000 1.0
C      1  0.4502690000000  0.5748160000000  0.4513260000000 1.0
C      1  0.4417440000000  0.5758420000000  0.5500700000000 1.0
C      1  0.4313850000000  0.5299810000000  0.5626230000000 1.0
C      1  0.4342920000000  0.5704900000000  0.4974060000000 1.0
C      1  0.4278020000000  0.5079310000000  0.4297170000000 1.0
C      1  0.4277790000000  0.4335370000000  0.4719500000000 1.0
C      1  0.4326130000000  0.4475560000000  0.5495400000000 1.0
C      1  0.5674500000000  0.5320960000000  0.4358470000000 1.0
C      1  0.5678060000000  0.5697550000000  0.5098340000000 1.0
C      1  0.5679280000000  0.5132140000000  0.5694840000000 1.0
C      1  0.5720490000000  0.4356450000000  0.5295050000000 1.0
C      1  0.5734120000000  0.4540610000000  0.4457500000000 1.0
C      1  0.4373410000000  0.4696720000000  0.5305260000000 1.0
C      1  0.4365720000000  0.5178650000000  0.5360100000000 1.0
C      1  0.4357690000000  0.5396850000000  0.4921090000000 1.0
C      1  0.4348920000000  0.5035800000000  0.4575420000000 1.0
C      1  0.4356450000000  0.4594270000000  0.4823540000000 1.0
C      1  0.5652840000000  0.4713460000000  0.4675440000000 1.0
C      1  0.5632210000000  0.5209670000000  0.4629950000000 1.0
C      1  0.5625700000000  0.5407470000000  0.5074810000000 1.0
C      1  0.5635440000000  0.5045180000000  0.5408870000000 1.0
C      1  0.5647780000000  0.4607600000000  0.5168650000000 1.0
C      1  0.4512350000000  0.4770530000000  0.4617890000000 1.0
C      1  0.4535950000000  0.4565090000000  0.5081160000000 1.0
C      1  0.4538210000000  0.4931260000000  0.5417530000000 1.0
C      1  0.4531740000000  0.5354900000000  0.5172500000000 1.0
C      1  0.4518370000000  0.5278200000000  0.4678550000000 1.0
C      1  0.5476200000000  0.4776960000000  0.5367210000000 1.0
C      1  0.5487990000000  0.4563320000000  0.4900770000000 1.0
C      1  0.5480640000000  0.4952640000000  0.4573550000000 1.0
C      1  0.5457870000000  0.5387560000000  0.4817240000000 1.0
C      1  0.5464660000000  0.5276710000000  0.5303410000000 1.0
C      1  0.4509340000000  0.4987860000000  0.5736240000000 1.0
C      1  0.4524210000000  0.5704670000000  0.5238350000000 1.0
C      1  0.4545310000000  0.5480180000000  0.4455120000000 1.0
C      1  0.4543710000000  0.4608600000000  0.4351610000000 1.0
C      1  0.4513640000000  0.4271550000000  0.5228980000000 1.0
C      1  0.5489950000000  0.5003740000000  0.4245640000000 1.0
C      1  0.5493670000000  0.5710080000000  0.4761860000000 1.0
C      1  0.5484640000000  0.5433610000000  0.5592840000000 1.0
C      1  0.5447270000000  0.4619460000000  0.5629480000000 1.0
C      1  0.5467650000000  0.4261320000000  0.4826100000000 1.0
C      1  0.4770240000000  0.5895940000000  0.4882170000000 1.0
C      1  0.4752670000000  0.5129950000000  0.4185540000000 1.0
C      1  0.4752920000000  0.4252380000000  0.4605000000000 1.0
C      1  0.4752590000000  0.4334290000000  0.5661710000000 1.0
C      1  0.4750640000000  0.5421310000000  0.5707830000000 1.0
C      1  0.5259070000000  0.5923240000000  0.5147500000000 1.0
C      1  0.5228670000000  0.5103060000000  0.5831910000000 1.0
C      1  0.5245820000000  0.4259960000000  0.5372230000000 1.0
C      1  0.5259520000000  0.4397570000000  0.4411880000000 1.0
C      1  0.5242670000000  0.5429170000000  0.4172120000000 1.0
C      1  0.4105360000000  0.5013730000000  0.4753830000000 1.0
C      1  0.4111510000000  0.4753560000000  0.4897780000000 1.0
C      1  0.4117770000000  0.4806760000000  0.5186940000000 1.0
C      1  0.4112180000000  0.5099560000000  0.5222350000000 1.0
C      1  0.4105660000000  0.5230910000000  0.4956520000000 1.0
C      1  0.5886330000000  0.5032640000000  0.5243020000000 1.0
C      1  0.5891670000000  0.4774460000000  0.5097930000000 1.0
C      1  0.5894010000000  0.4835840000000  0.4808000000000 1.0
C      1  0.5885860000000  0.5130490000000  0.4773280000000 1.0
C      1  0.5880840000000  0.5250790000000  0.5042260000000 1.0
C      1  0.4897570000000  0.4060100000000  0.5006050000000 1.0
C      1  0.5106510000000  0.5773240000000  0.4460450000000 1.0
C      1  0.4882140000000  0.4714490000000  0.5900510000000 1.0
C      1  0.5120540000000  0.5765000000000  0.5555340000000 1.0
C      1  0.5110700000000  0.4722810000000  0.4109550000000 1.0
END
