TITL C-3577091-527-161 -1.30708144280468e-06 125000 -610.645217916089 0 0 97 (C1) n - 1
REM
REM in /home/bkarasulu/work/CARBON/AIRSS/Generating-Clusters/EDIP-Nigel-Params/with-SteepDescent/Higher-Symm/SD-CG/HFTN-CG
REM
REM
REM
REM
REM
REM ./C.cell (12c818d87b63d06a65506943cc24bca4)
REM
REM compiler GCC version 9.2.1 20190827 (Red Hat 9.2.1-1)
REM options -cpp -mtune=generic -march=x86-64 -g -O0 -fpre-include=/usr/include/finclude/math-vector-fortran.h
REM seed 279655151 -1460545918 -300420556 -960189235 -836115298 -1356252964 -1077828730 826201958 -845990819 2130582220 -492066343 1139211975 865090965 -625309339 1262004899 -1025613681 1480867752 1540387508 -566067384 264965861 -2086775831 644254276 -1896301574 -1270809857 -563585558 1390461527 1757477447 -1675130219 248066768 1132974856 3906827 -1641144777 -347689301
REM
CELL 1.54180   50.00000   50.00000   50.00000   90.00000   90.00000   90.00000
LATT -1
SFAC C  
C      1  0.4707320000000  0.5536160000000  0.4708890000000 1.0
C      1  0.4879080000000  0.5548040000000  0.5409660000000 1.0
C      1  0.5408740000000  0.5553650000000  0.4886670000000 1.0
C      1  0.4690590000000  0.4449660000000  0.4692480000000 1.0
C      1  0.4889040000000  0.4448970000000  0.5418010000000 1.0
C      1  0.5407320000000  0.4455820000000  0.4896530000000 1.0
C      1  0.4317820000000  0.4767450000000  0.4381370000000 1.0
C      1  0.4807100000000  0.4766990000000  0.5892530000000 1.0
C      1  0.5871410000000  0.4762330000000  0.4733300000000 1.0
C      1  0.4342140000000  0.5258450000000  0.4402610000000 1.0
C      1  0.4809710000000  0.5256840000000  0.5870570000000 1.0
C      1  0.5876460000000  0.5272260000000  0.4703970000000 1.0
C      1  0.5336490000000  0.5163570000000  0.4189320000000 1.0
C      1  0.4119680000000  0.5163410000000  0.5118690000000 1.0
C      1  0.5536710000000  0.5164500000000  0.5673640000000 1.0
C      1  0.5337910000000  0.4848350000000  0.4196900000000 1.0
C      1  0.4120650000000  0.4847710000000  0.5114450000000 1.0
C      1  0.5542770000000  0.4861150000000  0.5688410000000 1.0
C      1  0.5261110000000  0.5764130000000  0.5421800000000 1.0
C      1  0.5230070000000  0.5786970000000  0.4555130000000 1.0
C      1  0.4498640000000  0.5781830000000  0.5013710000000 1.0
C      1  0.5271730000000  0.4228950000000  0.5424540000000 1.0
C      1  0.5232510000000  0.4235530000000  0.4555630000000 1.0
C      1  0.4491560000000  0.4245770000000  0.5026310000000 1.0
C      1  0.5519460000000  0.5733050000000  0.5324210000000 1.0
C      1  0.5022310000000  0.5719660000000  0.4385200000000 1.0
C      1  0.4444490000000  0.5721250000000  0.5278290000000 1.0
C      1  0.5522700000000  0.4294430000000  0.5325790000000 1.0
C      1  0.5027570000000  0.4302490000000  0.4381100000000 1.0
C      1  0.4454140000000  0.4300380000000  0.5296140000000 1.0
C      1  0.4221780000000  0.5155610000000  0.4634780000000 1.0
C      1  0.5070300000000  0.5153500000000  0.5853090000000 1.0
C      1  0.5708870000000  0.5155940000000  0.4509590000000 1.0
C      1  0.4201120000000  0.4862240000000  0.4620560000000 1.0
C      1  0.5069340000000  0.4863030000000  0.5858720000000 1.0
C      1  0.5722990000000  0.4861070000000  0.4513430000000 1.0
C      1  0.5149510000000  0.4430800000000  0.5621690000000 1.0
C      1  0.5465740000000  0.4436010000000  0.4575740000000 1.0
C      1  0.4353260000000  0.4433520000000  0.4834150000000 1.0
C      1  0.5185090000000  0.5573600000000  0.5632690000000 1.0
C      1  0.5454100000000  0.5579860000000  0.4572290000000 1.0
C      1  0.4407320000000  0.5570300000000  0.4815580000000 1.0
C      1  0.5774170000000  0.5337800000000  0.5188460000000 1.0
C      1  0.4840320000000  0.5266270000000  0.4330550000000 1.0
C      1  0.4486940000000  0.5270070000000  0.5481130000000 1.0
C      1  0.5673440000000  0.4740920000000  0.5194630000000 1.0
C      1  0.4815110000000  0.4740840000000  0.4315380000000 1.0
C      1  0.4498810000000  0.4742070000000  0.5509400000000 1.0
C      1  0.5242090000000  0.5150620000000  0.4665270000000 1.0
C      1  0.4580710000000  0.5141770000000  0.4970380000000 1.0
C      1  0.5158850000000  0.5158430000000  0.5386290000000 1.0
C      1  0.5311470000000  0.4868250000000  0.4685870000000 1.0
C      1  0.4558410000000  0.4854380000000  0.4912260000000 1.0
C      1  0.5168980000000  0.4843500000000  0.5395070000000 1.0
C      1  0.4666320000000  0.5145600000000  0.5266480000000 1.0
C      1  0.5370140000000  0.5164520000000  0.5162950000000 1.0
C      1  0.4940650000000  0.5141110000000  0.4593150000000 1.0
C      1  0.4694830000000  0.4865980000000  0.5333170000000 1.0
C      1  0.5392910000000  0.4855700000000  0.5157040000000 1.0
C      1  0.4883500000000  0.4857520000000  0.4573490000000 1.0
C      1  0.4216510000000  0.4848770000000  0.5413850000000 1.0
C      1  0.5745390000000  0.4807900000000  0.5478150000000 1.0
C      1  0.5034370000000  0.4848620000000  0.4119350000000 1.0
C      1  0.4207880000000  0.5162280000000  0.5412300000000 1.0
C      1  0.5716890000000  0.5184320000000  0.5438830000000 1.0
C      1  0.5038620000000  0.5163860000000  0.4118660000000 1.0
C      1  0.4792390000000  0.4445040000000  0.4399630000000 1.0
C      1  0.4586640000000  0.4446180000000  0.5488690000000 1.0
C      1  0.5619390000000  0.4448720000000  0.5119750000000 1.0
C      1  0.4802250000000  0.5557590000000  0.4414610000000 1.0
C      1  0.4575030000000  0.5564860000000  0.5463120000000 1.0
C      1  0.5626280000000  0.5592750000000  0.5109800000000 1.0
C      1  0.4786670000000  0.4228140000000  0.4913750000000 1.0
C      1  0.5021450000000  0.4217760000000  0.5223170000000 1.0
C      1  0.5171050000000  0.4224500000000  0.4869260000000 1.0
C      1  0.4795820000000  0.5766040000000  0.4910270000000 1.0
C      1  0.5024000000000  0.5766540000000  0.5223650000000 1.0
C      1  0.5180700000000  0.5777130000000  0.4866600000000 1.0
C      1  0.5274980000000  0.5295790000000  0.4923190000000 1.0
C      1  0.4791580000000  0.5273910000000  0.4808920000000 1.0
C      1  0.4917600000000  0.5287870000000  0.5287080000000 1.0
C      1  0.5267300000000  0.4717330000000  0.4928160000000 1.0
C      1  0.4782820000000  0.4712420000000  0.4798720000000 1.0
C      1  0.4930430000000  0.4709830000000  0.5279340000000 1.0
C      1  0.5254660000000  0.4729630000000  0.5661880000000 1.0
C      1  0.5455990000000  0.4735150000000  0.4470120000000 1.0
C      1  0.4294160000000  0.4735380000000  0.4877890000000 1.0
C      1  0.5250320000000  0.5276260000000  0.5648740000000 1.0
C      1  0.5432960000000  0.5279390000000  0.4461160000000 1.0
C      1  0.4312780000000  0.5275530000000  0.4899810000000 1.0
C      1  0.4573830000000  0.5157160000000  0.5753370000000 1.0
C      1  0.5856570000000  0.5167380000000  0.4963960000000 1.0
C      1  0.4564360000000  0.5154280000000  0.4266150000000 1.0
C      1  0.4568120000000  0.4862510000000  0.5775960000000 1.0
C      1  0.5855510000000  0.4875870000000  0.4989770000000 1.0
C      1  0.4547240000000  0.4862320000000  0.4246950000000 1.0
C      1  0.4988670000000  0.4672680000000  0.4996830000000 1.0
END
