TITL C-3578202-4305-577 -2.2990048258517e-06 125000 -743.077991617712 0 0 119 (C1) n - 1
REM
REM in /home/bkarasulu/work/CARBON/AIRSS/Generating-Clusters/EDIP-Nigel-Params/with-SteepDescent/Higher-Symm/SD-CG/HFTN-CG
REM
REM
REM
REM
REM
REM ./C.cell (12c818d87b63d06a65506943cc24bca4)
REM
REM compiler GCC version 9.2.1 20190827 (Red Hat 9.2.1-1)
REM options -cpp -mtune=generic -march=x86-64 -g -O0 -fpre-include=/usr/include/finclude/math-vector-fortran.h
REM seed -1210277677 1066355544 -1660020367 -2026139756 -1929289461 -2037902664 1743896871 1581643582 -261705891 -877288562 -1904986894 1086318537 1777025772 -1777943480 145184650 -192103596 -1636907353 1395209876 1582524109 -1598695790 -1249997751 -1141614044 -158283131 -2095384017 2065352744 215877294 -88554763 1120059563 -252182756 -275505373 450643448 1661827306 -2048737098
REM
CELL 1.54180   50.00000   50.00000   50.00000   90.00000   90.00000   90.00000
LATT -1
SFAC C  
C      1  0.4243000000000  0.5462800000000  0.5325720000000 1.0
C      1  0.4251450000000  0.5568490000000  0.5036240000000 1.0
C      1  0.4268850000000  0.5493020000000  0.4736310000000 1.0
C      1  0.4277110000000  0.5273630000000  0.4517800000000 1.0
C      1  0.4280290000000  0.4968760000000  0.4449760000000 1.0
C      1  0.4295930000000  0.4676220000000  0.4556500000000 1.0
C      1  0.4298260000000  0.4479850000000  0.4792160000000 1.0
C      1  0.4267720000000  0.4471590000000  0.5101450000000 1.0
C      1  0.4247650000000  0.4627890000000  0.5373240000000 1.0
C      1  0.4241550000000  0.4902700000000  0.5523270000000 1.0
C      1  0.4240520000000  0.5212710000000  0.5507060000000 1.0
C      1  0.4404840000000  0.4456410000000  0.5559990000000 1.0
C      1  0.4403610000000  0.4852730000000  0.5768460000000 1.0
C      1  0.4404620000000  0.5298980000000  0.5740730000000 1.0
C      1  0.4407000000000  0.5660600000000  0.5477580000000 1.0
C      1  0.4419300000000  0.5814500000000  0.5057460000000 1.0
C      1  0.4445880000000  0.5704740000000  0.4625960000000 1.0
C      1  0.4454040000000  0.5391990000000  0.4309970000000 1.0
C      1  0.4451820000000  0.4958770000000  0.4206510000000 1.0
C      1  0.4472790000000  0.4538660000000  0.4363200000000 1.0
C      1  0.4485590000000  0.4262880000000  0.4713930000000 1.0
C      1  0.4427250000000  0.4230340000000  0.5169600000000 1.0
C      1  0.5453930000000  0.4794520000000  0.4468000000000 1.0
C      1  0.5320980000000  0.4542410000000  0.4653560000000 1.0
C      1  0.5467570000000  0.4439380000000  0.4920630000000 1.0
C      1  0.5482520000000  0.4534820000000  0.5299130000000 1.0
C      1  0.5368840000000  0.4758340000000  0.5481090000000 1.0
C      1  0.5491580000000  0.5044530000000  0.5535790000000 1.0
C      1  0.5346710000000  0.5316000000000  0.5408270000000 1.0
C      1  0.5452260000000  0.5501550000000  0.5166000000000 1.0
C      1  0.5301380000000  0.5498140000000  0.4878050000000 1.0
C      1  0.5419090000000  0.5370540000000  0.4604140000000 1.0
C      1  0.5304610000000  0.5091360000000  0.4474280000000 1.0
C      1  0.5395630000000  0.5786610000000  0.5281370000000 1.0
C      1  0.5261000000000  0.5793920000000  0.4815170000000 1.0
C      1  0.5300770000000  0.5578320000000  0.4399590000000 1.0
C      1  0.5280930000000  0.5159290000000  0.4180310000000 1.0
C      1  0.5435440000000  0.4697400000000  0.4175150000000 1.0
C      1  0.5236570000000  0.4284830000000  0.4494860000000 1.0
C      1  0.5382650000000  0.4152400000000  0.4952390000000 1.0
C      1  0.5398990000000  0.4273180000000  0.5432700000000 1.0
C      1  0.5381460000000  0.4619910000000  0.5753120000000 1.0
C      1  0.5404340000000  0.5077400000000  0.5846800000000 1.0
C      1  0.5386920000000  0.5502210000000  0.5651440000000 1.0
C      1  0.5002990000000  0.5892480000000  0.4531130000000 1.0
C      1  0.5008130000000  0.5498450000000  0.4126250000000 1.0
C      1  0.5010840000000  0.4949220000000  0.3984720000000 1.0
C      1  0.5007400000000  0.4446800000000  0.4154540000000 1.0
C      1  0.5000210000000  0.3928270000000  0.4780310000000 1.0
C      1  0.4973820000000  0.4050550000000  0.5256510000000 1.0
C      1  0.4961120000000  0.4343440000000  0.5697780000000 1.0
C      1  0.4961970000000  0.4821490000000  0.5938290000000 1.0
C      1  0.4969300000000  0.5351280000000  0.5894960000000 1.0
C      1  0.4973970000000  0.5782150000000  0.5576010000000 1.0
C      1  0.4976770000000  0.5994250000000  0.5086550000000 1.0
C      1  0.4592210000000  0.5202330000000  0.4147460000000 1.0
C      1  0.4593700000000  0.4713240000000  0.4170270000000 1.0
C      1  0.4626920000000  0.4317170000000  0.4461990000000 1.0
C      1  0.4586040000000  0.4129510000000  0.4952070000000 1.0
C      1  0.4542160000000  0.4235520000000  0.5434740000000 1.0
C      1  0.4538800000000  0.4599440000000  0.5772540000000 1.0
C      1  0.4540000000000  0.5083790000000  0.5875640000000 1.0
C      1  0.4545040000000  0.5549070000000  0.5705800000000 1.0
C      1  0.4549290000000  0.5851550000000  0.5312960000000 1.0
C      1  0.4572440000000  0.5872240000000  0.4820050000000 1.0
C      1  0.4593510000000  0.5631000000000  0.4389650000000 1.0
C      1  0.5259100000000  0.4344640000000  0.5698930000000 1.0
C      1  0.5260180000000  0.4822610000000  0.5941720000000 1.0
C      1  0.5269020000000  0.5348110000000  0.5886250000000 1.0
C      1  0.5272370000000  0.5768720000000  0.5562730000000 1.0
C      1  0.5269480000000  0.5963110000000  0.5072300000000 1.0
C      1  0.5306490000000  0.5860890000000  0.4515920000000 1.0
C      1  0.5309160000000  0.5460290000000  0.4118940000000 1.0
C      1  0.5329700000000  0.4917240000000  0.3998510000000 1.0
C      1  0.5294420000000  0.4442000000000  0.4150630000000 1.0
C      1  0.5235090000000  0.4064210000000  0.4711270000000 1.0
C      1  0.5268130000000  0.4093010000000  0.5230110000000 1.0
C      1  0.5046810000000  0.5283920000000  0.5381620000000 1.0
C      1  0.4909440000000  0.5388230000000  0.5154070000000 1.0
C      1  0.5019100000000  0.5430880000000  0.4898770000000 1.0
C      1  0.4914640000000  0.5267840000000  0.4700070000000 1.0
C      1  0.5019820000000  0.5074170000000  0.4531990000000 1.0
C      1  0.4929500000000  0.4819200000000  0.4579530000000 1.0
C      1  0.5045500000000  0.4613060000000  0.4721120000000 1.0
C      1  0.4944060000000  0.4548490000000  0.4967850000000 1.0
C      1  0.4962700000000  0.4612780000000  0.5224980000000 1.0
C      1  0.5083260000000  0.4788970000000  0.5398060000000 1.0
C      1  0.4938870000000  0.5027190000000  0.5430310000000 1.0
C      1  0.4839560000000  0.5890050000000  0.5332280000000 1.0
C      1  0.4857270000000  0.5940340000000  0.4813060000000 1.0
C      1  0.4884560000000  0.5663480000000  0.4361080000000 1.0
C      1  0.4872070000000  0.5225150000000  0.4063170000000 1.0
C      1  0.4878150000000  0.4706360000000  0.4111050000000 1.0
C      1  0.4887550000000  0.4259190000000  0.4341650000000 1.0
C      1  0.4836780000000  0.3986130000000  0.5000890000000 1.0
C      1  0.4828540000000  0.4186390000000  0.5479620000000 1.0
C      1  0.4823460000000  0.4571210000000  0.5838470000000 1.0
C      1  0.4826870000000  0.5089130000000  0.5942410000000 1.0
C      1  0.4833440000000  0.5583070000000  0.5756190000000 1.0
C      1  0.5885230000000  0.4843420000000  0.5268900000000 1.0
C      1  0.5781850000000  0.5053250000000  0.5452460000000 1.0
C      1  0.5856600000000  0.5299250000000  0.5337960000000 1.0
C      1  0.5741300000000  0.5449520000000  0.5129890000000 1.0
C      1  0.5845320000000  0.5447870000000  0.4859940000000 1.0
C      1  0.5723290000000  0.5374060000000  0.4602320000000 1.0
C      1  0.5838650000000  0.5114730000000  0.4526450000000 1.0
C      1  0.5742520000000  0.4841090000000  0.4535480000000 1.0
C      1  0.5850680000000  0.4678390000000  0.4737660000000 1.0
C      1  0.5766330000000  0.4490960000000  0.4929710000000 1.0
C      1  0.5766900000000  0.4574560000000  0.5218360000000 1.0
C      1  0.4454580000000  0.4991130000000  0.4982880000000 1.0
C      1  0.5503060000000  0.4994550000000  0.4968130000000 1.0
C      1  0.4187100000000  0.5003460000000  0.4986790000000 1.0
C      1  0.4711780000000  0.4922720000000  0.4935560000000 1.0
C      1  0.6015580000000  0.4952380000000  0.5043790000000 1.0
C      1  0.3935940000000  0.5052280000000  0.5016320000000 1.0
C      1  0.5779190000000  0.5070080000000  0.4907040000000 1.0
C      1  0.5234120000000  0.4951110000000  0.4943310000000 1.0
C      1  0.4964310000000  0.5019350000000  0.5042390000000 1.0
END
