TITL C-3577088-510-149 8.28017893496648e-07 125000 -413.131962326926 0 0 68 (C1) n - 1
REM
REM in /home/bkarasulu/work/CARBON/AIRSS/Generating-Clusters/EDIP-Nigel-Params/with-SteepDescent/Higher-Symm/SD-CG/HFTN-CG
REM
REM
REM
REM
REM
REM ./C.cell (12c818d87b63d06a65506943cc24bca4)
REM
REM compiler GCC version 9.2.1 20190827 (Red Hat 9.2.1-1)
REM options -cpp -mtune=generic -march=x86-64 -g -O0 -fpre-include=/usr/include/finclude/math-vector-fortran.h
REM seed 461775638 1392477716 -379741362 -2118047622 500518980 -2055342357 821002905 -1631378221 -920499519 1788888909 -1935893374 1141100754 -1061450002 1527051129 1773966688 82168466 -2102439075 -1015741975 -1867361547 1201847112 1219342081 -1679142934 781163931 34169002 -1396825180 847888504 -363260996 689958016 -1246275883 1108244154 -2081527742 -783031925 -1891095482
REM
CELL 1.54180   50.00000   50.00000   50.00000   90.00000   90.00000   90.00000
LATT -1
SFAC C  
C      1  0.4556170000000  0.5500440000000  0.5472810000000 1.0
C      1  0.4813140000000  0.5467750000000  0.4581360000000 1.0
C      1  0.4401360000000  0.4778640000000  0.4802230000000 1.0
C      1  0.4395930000000  0.4507590000000  0.4974410000000 1.0
C      1  0.5503480000000  0.4414680000000  0.4947030000000 1.0
C      1  0.5258360000000  0.5587040000000  0.5143210000000 1.0
C      1  0.5578020000000  0.4823120000000  0.4404690000000 1.0
C      1  0.4403680000000  0.4597340000000  0.5326760000000 1.0
C      1  0.4539900000000  0.5345230000000  0.5211630000000 1.0
C      1  0.5719230000000  0.5240470000000  0.4559270000000 1.0
C      1  0.4975640000000  0.5407110000000  0.5595830000000 1.0
C      1  0.5519280000000  0.4488770000000  0.4683370000000 1.0
C      1  0.4851860000000  0.4577720000000  0.4575390000000 1.0
C      1  0.4649900000000  0.4689890000000  0.5756820000000 1.0
C      1  0.4572500000000  0.4472960000000  0.5558700000000 1.0
C      1  0.4902710000000  0.4905430000000  0.5275130000000 1.0
C      1  0.5059860000000  0.4717720000000  0.4395900000000 1.0
C      1  0.4952770000000  0.4719820000000  0.5736020000000 1.0
C      1  0.5312220000000  0.4574910000000  0.5378420000000 1.0
C      1  0.5029650000000  0.4399900000000  0.5000780000000 1.0
C      1  0.5812520000000  0.5123090000000  0.4823030000000 1.0
C      1  0.5441540000000  0.5332180000000  0.5063360000000 1.0
C      1  0.4784920000000  0.4446510000000  0.5161480000000 1.0
C      1  0.4639520000000  0.5734630000000  0.5017480000000 1.0
C      1  0.4544860000000  0.4962320000000  0.5645790000000 1.0
C      1  0.5254300000000  0.4999420000000  0.4738460000000 1.0
C      1  0.5183570000000  0.5231360000000  0.5680680000000 1.0
C      1  0.4828170000000  0.4368090000000  0.5447060000000 1.0
C      1  0.4407960000000  0.5524520000000  0.5003520000000 1.0
C      1  0.5015190000000  0.5371840000000  0.4372780000000 1.0
C      1  0.4711930000000  0.4745290000000  0.5121010000000 1.0
C      1  0.4989620000000  0.5540780000000  0.5319280000000 1.0
C      1  0.4923200000000  0.4971810000000  0.5562840000000 1.0
C      1  0.5726980000000  0.4682000000000  0.4615880000000 1.0
C      1  0.4865840000000  0.5613890000000  0.4843120000000 1.0
C      1  0.5340260000000  0.5102020000000  0.5482160000000 1.0
C      1  0.5157470000000  0.5686950000000  0.4882760000000 1.0
C      1  0.4396550000000  0.4888030000000  0.5398040000000 1.0
C      1  0.4700910000000  0.5313880000000  0.5651690000000 1.0
C      1  0.5249200000000  0.5508420000000  0.4653360000000 1.0
C      1  0.5455470000000  0.4826880000000  0.5090390000000 1.0
C      1  0.4309510000000  0.5036620000000  0.4924520000000 1.0
C      1  0.5525980000000  0.5350900000000  0.4354770000000 1.0
C      1  0.5293330000000  0.4422350000000  0.5124070000000 1.0
C      1  0.4588540000000  0.4291890000000  0.4876580000000 1.0
C      1  0.4732350000000  0.5734620000000  0.5315220000000 1.0
C      1  0.5744810000000  0.4972080000000  0.5282420000000 1.0
C      1  0.4789600000000  0.4795430000000  0.4805070000000 1.0
C      1  0.5532640000000  0.4873800000000  0.5478770000000 1.0
C      1  0.5294720000000  0.5107620000000  0.5186610000000 1.0
C      1  0.4603070000000  0.4558040000000  0.4417350000000 1.0
C      1  0.5398270000000  0.5266280000000  0.4767430000000 1.0
C      1  0.5004250000000  0.5102900000000  0.5104420000000 1.0
C      1  0.5443430000000  0.5612600000000  0.4457350000000 1.0
C      1  0.4843720000000  0.5352430000000  0.5127000000000 1.0
C      1  0.5072970000000  0.4504600000000  0.5565560000000 1.0
C      1  0.4382120000000  0.5297850000000  0.4785660000000 1.0
C      1  0.4657960000000  0.5024010000000  0.4446940000000 1.0
C      1  0.4871500000000  0.4325890000000  0.4750030000000 1.0
C      1  0.5733260000000  0.5218220000000  0.5101910000000 1.0
C      1  0.4943080000000  0.4988790000000  0.4322940000000 1.0
C      1  0.5740400000000  0.4842320000000  0.4862660000000 1.0
C      1  0.4421580000000  0.5074960000000  0.5185790000000 1.0
C      1  0.5309910000000  0.4778100000000  0.4546300000000 1.0
C      1  0.4474670000000  0.4795420000000  0.4503600000000 1.0
C      1  0.4612560000000  0.5264240000000  0.4605320000000 1.0
C      1  0.4988880000000  0.5011670000000  0.4833670000000 1.0
C      1  0.5261250000000  0.5205950000000  0.4314160000000 1.0
END
