TITL C-3578197-9521-718 -7.93920279567796e-06 125000 -908.044490962271 0 0 148 (C1) n - 1
REM
REM in /home/bkarasulu/work/CARBON/AIRSS/Generating-Clusters/EDIP-Nigel-Params/with-SteepDescent/Higher-Symm/SD-CG/HFTN-CG
REM
REM
REM
REM
REM
REM ./C.cell (12c818d87b63d06a65506943cc24bca4)
REM
REM compiler GCC version 9.2.1 20190827 (Red Hat 9.2.1-1)
REM options -cpp -mtune=generic -march=x86-64 -g -O0 -fpre-include=/usr/include/finclude/math-vector-fortran.h
REM seed -861248962 1261519729 496709059 -2071197151 117144228 -179242193 797172999 1164969886 -778664339 -1834455438 -1886739190 -1461665046 -1436694072 252920222 32882821 -1121774200 1324959885 -151403039 -1197608720 1479459715 -333514295 1783269383 1338517411 264288642 -1657153611 -1476190839 1684978348 707682908 1827867154 1446370197 1135013209 -86411711 -1944515488
REM
CELL 1.54180   50.00000   50.00000   50.00000   90.00000   90.00000   90.00000
LATT -1
SFAC C  
C      1  0.4133230000000  0.4988410000000  0.5468810000000 1.0
C      1  0.4950020000000  0.5518230000000  0.4143760000000 1.0
C      1  0.5464400000000  0.4132600000000  0.5094760000000 1.0
C      1  0.5897640000000  0.4944150000000  0.5407320000000 1.0
C      1  0.4216350000000  0.4947190000000  0.4574780000000 1.0
C      1  0.5919920000000  0.4955950000000  0.4529450000000 1.0
C      1  0.4994730000000  0.4546670000000  0.4102600000000 1.0
C      1  0.4966260000000  0.4521990000000  0.5885090000000 1.0
C      1  0.4923890000000  0.5432780000000  0.5864720000000 1.0
C      1  0.4530570000000  0.5907480000000  0.5047310000000 1.0
C      1  0.5433570000000  0.5865960000000  0.4919830000000 1.0
C      1  0.4557070000000  0.4155110000000  0.4994400000000 1.0
C      1  0.4981650000000  0.4117590000000  0.5466840000000 1.0
C      1  0.5506910000000  0.4903990000000  0.4115460000000 1.0
C      1  0.4114680000000  0.5469840000000  0.5070910000000 1.0
C      1  0.4929480000000  0.5867150000000  0.5467720000000 1.0
C      1  0.4940160000000  0.4192630000000  0.4585590000000 1.0
C      1  0.4941590000000  0.5939800000000  0.4537160000000 1.0
C      1  0.4585760000000  0.4991040000000  0.4107120000000 1.0
C      1  0.4531690000000  0.4980250000000  0.5884990000000 1.0
C      1  0.5426970000000  0.4909980000000  0.5862160000000 1.0
C      1  0.5908550000000  0.4512980000000  0.5016160000000 1.0
C      1  0.5839860000000  0.5493210000000  0.4881060000000 1.0
C      1  0.4154410000000  0.4554300000000  0.4990140000000 1.0
C      1  0.4562990000000  0.5244830000000  0.5027410000000 1.0
C      1  0.5296330000000  0.5004860000000  0.4521240000000 1.0
C      1  0.5147070000000  0.4495830000000  0.5299820000000 1.0
C      1  0.5483170000000  0.4738770000000  0.5081160000000 1.0
C      1  0.4586490000000  0.4782650000000  0.4901140000000 1.0
C      1  0.5431940000000  0.5198150000000  0.4955410000000 1.0
C      1  0.4920810000000  0.5107640000000  0.4736120000000 1.0
C      1  0.5206730000000  0.4989360000000  0.5393680000000 1.0
C      1  0.4728610000000  0.5104800000000  0.5469810000000 1.0
C      1  0.4997660000000  0.5420950000000  0.5190930000000 1.0
C      1  0.5122280000000  0.5537620000000  0.4719440000000 1.0
C      1  0.5059680000000  0.4627920000000  0.4817170000000 1.0
C      1  0.5257360000000  0.4564010000000  0.5035850000000 1.0
C      1  0.5039740000000  0.5311720000000  0.4551310000000 1.0
C      1  0.4541710000000  0.5077990000000  0.5263150000000 1.0
C      1  0.4737170000000  0.5468400000000  0.5087290000000 1.0
C      1  0.4786700000000  0.4582540000000  0.4907130000000 1.0
C      1  0.5197720000000  0.5416310000000  0.4976200000000 1.0
C      1  0.5093380000000  0.4896020000000  0.4702430000000 1.0
C      1  0.4996070000000  0.5197250000000  0.5406690000000 1.0
C      1  0.5121870000000  0.4722520000000  0.5475670000000 1.0
C      1  0.5432630000000  0.5000460000000  0.5173360000000 1.0
C      1  0.5525300000000  0.5102500000000  0.4677240000000 1.0
C      1  0.4641380000000  0.5061410000000  0.4812790000000 1.0
C      1  0.5691230000000  0.5489150000000  0.4600610000000 1.0
C      1  0.5459780000000  0.4614320000000  0.5781950000000 1.0
C      1  0.4651120000000  0.5805130000000  0.5555830000000 1.0
C      1  0.4228790000000  0.4445620000000  0.4714540000000 1.0
C      1  0.5847730000000  0.4427370000000  0.5298920000000 1.0
C      1  0.4184890000000  0.5552860000000  0.5350940000000 1.0
C      1  0.4422390000000  0.5261940000000  0.5824570000000 1.0
C      1  0.5591290000000  0.5189440000000  0.4174230000000 1.0
C      1  0.4498720000000  0.4710660000000  0.4166580000000 1.0
C      1  0.5256370000000  0.4182960000000  0.5591600000000 1.0
C      1  0.4661230000000  0.4269060000000  0.4495410000000 1.0
C      1  0.5217660000000  0.5860580000000  0.4423400000000 1.0
C      1  0.5378840000000  0.5708400000000  0.4646440000000 1.0
C      1  0.4635790000000  0.5502310000000  0.5800470000000 1.0
C      1  0.5844410000000  0.4666590000000  0.5491580000000 1.0
C      1  0.4444800000000  0.4224030000000  0.4717930000000 1.0
C      1  0.4436410000000  0.5848140000000  0.5328240000000 1.0
C      1  0.5507400000000  0.4257230000000  0.5383000000000 1.0
C      1  0.5242640000000  0.4399780000000  0.5832560000000 1.0
C      1  0.5227390000000  0.5607540000000  0.4238710000000 1.0
C      1  0.4711650000000  0.4478810000000  0.4166920000000 1.0
C      1  0.4197370000000  0.5260450000000  0.5598000000000 1.0
C      1  0.4284860000000  0.4663060000000  0.4491970000000 1.0
C      1  0.5804740000000  0.5226210000000  0.4405540000000 1.0
C      1  0.5159300000000  0.5579610000000  0.5972690000000 1.0
C      1  0.5557690000000  0.5984760000000  0.5163790000000 1.0
C      1  0.5987500000000  0.5179260000000  0.5563700000000 1.0
C      1  0.4767690000000  0.4367620000000  0.6010730000000 1.0
C      1  0.5208830000000  0.4353430000000  0.4037780000000 1.0
C      1  0.4770950000000  0.5690150000000  0.4007880000000 1.0
C      1  0.4396600000000  0.4011180000000  0.5175220000000 1.0
C      1  0.5617260000000  0.3998420000000  0.4881720000000 1.0
C      1  0.4365830000000  0.6012790000000  0.4845450000000 1.0
C      1  0.3981630000000  0.4794020000000  0.5602070000000 1.0
C      1  0.6032870000000  0.4739180000000  0.4392150000000 1.0
C      1  0.4067280000000  0.5167190000000  0.4458390000000 1.0
C      1  0.5593680000000  0.5146620000000  0.5955110000000 1.0
C      1  0.5958490000000  0.5617200000000  0.5134770000000 1.0
C      1  0.5157830000000  0.5972670000000  0.5615520000000 1.0
C      1  0.4361090000000  0.4789730000000  0.6002350000000 1.0
C      1  0.4407650000000  0.5215890000000  0.4035140000000 1.0
C      1  0.5672550000000  0.4716930000000  0.3983440000000 1.0
C      1  0.4007420000000  0.4394880000000  0.5170150000000 1.0
C      1  0.3998100000000  0.5620990000000  0.4853780000000 1.0
C      1  0.6026810000000  0.4341980000000  0.4828820000000 1.0
C      1  0.4783600000000  0.3988130000000  0.5617810000000 1.0
C      1  0.4743290000000  0.6073690000000  0.4388250000000 1.0
C      1  0.5160280000000  0.4038820000000  0.4476020000000 1.0
C      1  0.4358100000000  0.4575380000000  0.5820060000000 1.0
C      1  0.4527260000000  0.5893020000000  0.4382350000000 1.0
C      1  0.5870890000000  0.4308220000000  0.4595920000000 1.0
C      1  0.5629160000000  0.5409830000000  0.5823500000000 1.0
C      1  0.4350990000000  0.5463030000000  0.4184280000000 1.0
C      1  0.5680210000000  0.4497790000000  0.4164780000000 1.0
C      1  0.5424700000000  0.4142080000000  0.4429520000000 1.0
C      1  0.4567000000000  0.4167850000000  0.5616830000000 1.0
C      1  0.5415740000000  0.5840920000000  0.5638720000000 1.0
C      1  0.4131910000000  0.5660320000000  0.4599970000000 1.0
C      1  0.5826220000000  0.5641340000000  0.5399290000000 1.0
C      1  0.4170250000000  0.4378550000000  0.5398620000000 1.0
C      1  0.4555170000000  0.4363530000000  0.5827760000000 1.0
C      1  0.5882690000000  0.4500680000000  0.4373580000000 1.0
C      1  0.4330300000000  0.5876410000000  0.4600040000000 1.0
C      1  0.5417580000000  0.5621160000000  0.5837580000000 1.0
C      1  0.5458750000000  0.4301260000000  0.4184210000000 1.0
C      1  0.4541300000000  0.5689260000000  0.4175460000000 1.0
C      1  0.4170900000000  0.5432250000000  0.4414220000000 1.0
C      1  0.4153960000000  0.4571030000000  0.5615880000000 1.0
C      1  0.5838900000000  0.5427670000000  0.5611100000000 1.0
C      1  0.5654890000000  0.4109680000000  0.4613980000000 1.0
C      1  0.5612070000000  0.5845050000000  0.5413110000000 1.0
C      1  0.4374690000000  0.4176020000000  0.5400810000000 1.0
C      1  0.5409580000000  0.5093420000000  0.5610670000000 1.0
C      1  0.5106780000000  0.5629940000000  0.5407140000000 1.0
C      1  0.5629720000000  0.5408470000000  0.5080780000000 1.0
C      1  0.4650490000000  0.4865990000000  0.5633850000000 1.0
C      1  0.5410190000000  0.4786490000000  0.4365290000000 1.0
C      1  0.4627890000000  0.5175610000000  0.4352310000000 1.0
C      1  0.4871730000000  0.4375640000000  0.5366090000000 1.0
C      1  0.5129560000000  0.4426300000000  0.4599430000000 1.0
C      1  0.4853400000000  0.5690470000000  0.4671070000000 1.0
C      1  0.4404590000000  0.4657460000000  0.5118280000000 1.0
C      1  0.5672760000000  0.4634550000000  0.4885280000000 1.0
C      1  0.4345910000000  0.5411830000000  0.4893560000000 1.0
C      1  0.5106810000000  0.5394300000000  0.5624450000000 1.0
C      1  0.5641180000000  0.5106810000000  0.5386230000000 1.0
C      1  0.5397560000000  0.5618520000000  0.5101040000000 1.0
C      1  0.4873840000000  0.4637760000000  0.5624580000000 1.0
C      1  0.4821360000000  0.5415440000000  0.4385100000000 1.0
C      1  0.5177370000000  0.4587140000000  0.4346430000000 1.0
C      1  0.4380640000000  0.4855380000000  0.5363400000000 1.0
C      1  0.4449700000000  0.5138870000000  0.4593980000000 1.0
C      1  0.5681830000000  0.4836950000000  0.4645610000000 1.0
C      1  0.4668720000000  0.4404300000000  0.5119470000000 1.0
C      1  0.4636290000000  0.5670160000000  0.4899440000000 1.0
C      1  0.5412840000000  0.4346390000000  0.4894940000000 1.0
C      1  0.4484380000000  0.5473070000000  0.5445610000000 1.0
C      1  0.5414480000000  0.5380440000000  0.4360870000000 1.0
C      1  0.5540280000000  0.4579970000000  0.5486510000000 1.0
C      1  0.4597710000000  0.4584880000000  0.4510270000000 1.0
END
