TITL C-3578201-9217-432 2.76059209561938e-07 125000 -839.575249416091 0 0 134 (C1) n - 1
REM
REM in /home/bkarasulu/work/CARBON/AIRSS/Generating-Clusters/EDIP-Nigel-Params/with-SteepDescent/Higher-Symm/SD-CG/HFTN-CG
REM
REM
REM
REM
REM
REM ./C.cell (12c818d87b63d06a65506943cc24bca4)
REM
REM compiler GCC version 9.2.1 20190827 (Red Hat 9.2.1-1)
REM options -cpp -mtune=generic -march=x86-64 -g -O0 -fpre-include=/usr/include/finclude/math-vector-fortran.h
REM seed 657466819 2092125946 -1167736485 -656594810 365741916 -329764831 630010619 427652875 674543269 -1913407247 1326908588 -182956013 -1087994790 192269044 967398312 -1564322823 -1416805959 -1890742252 -1787025182 741395943 -268730374 1785093130 1748243991 -1217945011 -486343634 1498783410 -504911520 393608512 -955428083 110193498 -1193022545 -54030133 -427927437
REM
CELL 1.54180   50.00000   50.00000   50.00000   90.00000   90.00000   90.00000
LATT -1
SFAC C  
C      1  0.4927950000000  0.5137410000000  0.5215590000000 1.0
C      1  0.5066320000000  0.4674670000000  0.4497750000000 1.0
C      1  0.4757150000000  0.5960430000000  0.4797370000000 1.0
C      1  0.5674670000000  0.5012490000000  0.5704140000000 1.0
C      1  0.5266590000000  0.4185570000000  0.4489620000000 1.0
C      1  0.4981400000000  0.5260520000000  0.5823770000000 1.0
C      1  0.4675760000000  0.5588400000000  0.5611890000000 1.0
C      1  0.4811830000000  0.5959450000000  0.5303510000000 1.0
C      1  0.4971820000000  0.4457610000000  0.4085820000000 1.0
C      1  0.4652040000000  0.5241930000000  0.5236980000000 1.0
C      1  0.4661810000000  0.5445400000000  0.4265730000000 1.0
C      1  0.5090250000000  0.6055740000000  0.5284430000000 1.0
C      1  0.5275030000000  0.5092770000000  0.4408660000000 1.0
C      1  0.4686970000000  0.4281200000000  0.5582290000000 1.0
C      1  0.5075260000000  0.5112390000000  0.5474820000000 1.0
C      1  0.4671360000000  0.4802900000000  0.5443000000000 1.0
C      1  0.5418370000000  0.5562390000000  0.4857010000000 1.0
C      1  0.4689260000000  0.4944880000000  0.4839780000000 1.0
C      1  0.4933470000000  0.4659280000000  0.5455660000000 1.0
C      1  0.5275230000000  0.5249010000000  0.5892590000000 1.0
C      1  0.5814650000000  0.4582090000000  0.4730840000000 1.0
C      1  0.5892720000000  0.4678240000000  0.5199780000000 1.0
C      1  0.5523830000000  0.5613060000000  0.4578620000000 1.0
C      1  0.5254530000000  0.4981200000000  0.3935230000000 1.0
C      1  0.5283910000000  0.5322560000000  0.5414270000000 1.0
C      1  0.4225390000000  0.5220830000000  0.4442170000000 1.0
C      1  0.5088810000000  0.5514190000000  0.4960230000000 1.0
C      1  0.4795970000000  0.5094570000000  0.5979430000000 1.0
C      1  0.5966060000000  0.4868830000000  0.5403240000000 1.0
C      1  0.5731350000000  0.5150300000000  0.5429550000000 1.0
C      1  0.4993720000000  0.4968160000000  0.4449140000000 1.0
C      1  0.5244690000000  0.6029390000000  0.4834500000000 1.0
C      1  0.5387250000000  0.4547650000000  0.5694840000000 1.0
C      1  0.4638150000000  0.5543120000000  0.5165960000000 1.0
C      1  0.5092550000000  0.5218180000000  0.3981420000000 1.0
C      1  0.5044490000000  0.4062530000000  0.5232010000000 1.0
C      1  0.5641700000000  0.5546180000000  0.5716750000000 1.0
C      1  0.5316490000000  0.4728990000000  0.5904050000000 1.0
C      1  0.4491220000000  0.5091030000000  0.5040720000000 1.0
C      1  0.5015220000000  0.4268050000000  0.4324980000000 1.0
C      1  0.4487620000000  0.4951990000000  0.4367510000000 1.0
C      1  0.5753670000000  0.5102410000000  0.4568820000000 1.0
C      1  0.6004690000000  0.5253900000000  0.4941890000000 1.0
C      1  0.5047290000000  0.4665230000000  0.5990940000000 1.0
C      1  0.4033860000000  0.5035150000000  0.4935900000000 1.0
C      1  0.4132050000000  0.5228400000000  0.4720100000000 1.0
C      1  0.5916050000000  0.5031640000000  0.4800140000000 1.0
C      1  0.4442430000000  0.5377190000000  0.5540470000000 1.0
C      1  0.4126480000000  0.4899500000000  0.5383800000000 1.0
C      1  0.5393430000000  0.4947810000000  0.4185930000000 1.0
C      1  0.4778540000000  0.4412930000000  0.4813050000000 1.0
C      1  0.4474750000000  0.4525710000000  0.4179100000000 1.0
C      1  0.4352520000000  0.5184620000000  0.5748430000000 1.0
C      1  0.4808930000000  0.5138130000000  0.3983540000000 1.0
C      1  0.5801930000000  0.4763600000000  0.5625080000000 1.0
C      1  0.4477580000000  0.4706580000000  0.5662460000000 1.0
C      1  0.5167750000000  0.5339440000000  0.4263390000000 1.0
C      1  0.5259020000000  0.4217490000000  0.5369660000000 1.0
C      1  0.5282550000000  0.4157460000000  0.4791590000000 1.0
C      1  0.4532160000000  0.4787170000000  0.5167290000000 1.0
C      1  0.4960260000000  0.4612350000000  0.4951470000000 1.0
C      1  0.5186160000000  0.4693910000000  0.4768170000000 1.0
C      1  0.4475330000000  0.4275970000000  0.5139560000000 1.0
C      1  0.5359920000000  0.5128260000000  0.4936560000000 1.0
C      1  0.5523190000000  0.4221910000000  0.4948820000000 1.0
C      1  0.5892080000000  0.5479200000000  0.4801240000000 1.0
C      1  0.4463150000000  0.5384030000000  0.4455630000000 1.0
C      1  0.4228730000000  0.5617100000000  0.5111220000000 1.0
C      1  0.5264360000000  0.5824530000000  0.5364120000000 1.0
C      1  0.5526660000000  0.5836260000000  0.5201960000000 1.0
C      1  0.4241240000000  0.4690190000000  0.5195010000000 1.0
C      1  0.4817530000000  0.5668040000000  0.5362660000000 1.0
C      1  0.4639110000000  0.5358380000000  0.4000840000000 1.0
C      1  0.4907720000000  0.5423660000000  0.4436040000000 1.0
C      1  0.5045020000000  0.5703110000000  0.4487860000000 1.0
C      1  0.5321250000000  0.4674430000000  0.4249780000000 1.0
C      1  0.5661020000000  0.5429440000000  0.5005520000000 1.0
C      1  0.4746910000000  0.4254240000000  0.5286890000000 1.0
C      1  0.5165450000000  0.6191040000000  0.5049830000000 1.0
C      1  0.4530040000000  0.5173260000000  0.5963250000000 1.0
C      1  0.5760930000000  0.5403600000000  0.4542230000000 1.0
C      1  0.5362990000000  0.5461560000000  0.5692570000000 1.0
C      1  0.4754590000000  0.4552050000000  0.4544300000000 1.0
C      1  0.5192490000000  0.4820430000000  0.5493900000000 1.0
C      1  0.4090460000000  0.5142950000000  0.5222770000000 1.0
C      1  0.5619340000000  0.4591700000000  0.5334450000000 1.0
C      1  0.5401600000000  0.4803580000000  0.5283050000000 1.0
C      1  0.5752620000000  0.5447730000000  0.5480810000000 1.0
C      1  0.4573800000000  0.4685010000000  0.5938350000000 1.0
C      1  0.5409290000000  0.4999970000000  0.5827440000000 1.0
C      1  0.4763410000000  0.3947600000000  0.4578740000000 1.0
C      1  0.5480070000000  0.5091690000000  0.5225270000000 1.0
C      1  0.5025330000000  0.5881840000000  0.4719640000000 1.0
C      1  0.5734530000000  0.4331080000000  0.4809670000000 1.0
C      1  0.4297450000000  0.4737630000000  0.4275510000000 1.0
C      1  0.4499950000000  0.4440820000000  0.4903010000000 1.0
C      1  0.5071540000000  0.5215510000000  0.4952320000000 1.0
C      1  0.5567920000000  0.4546270000000  0.4325580000000 1.0
C      1  0.4889290000000  0.5138290000000  0.4703930000000 1.0
C      1  0.5116420000000  0.5564230000000  0.5269740000000 1.0
C      1  0.4279460000000  0.4405180000000  0.5317030000000 1.0
C      1  0.4565080000000  0.5435690000000  0.4717760000000 1.0
C      1  0.4755560000000  0.4138570000000  0.4377680000000 1.0
C      1  0.5502960000000  0.4310330000000  0.5230810000000 1.0
C      1  0.4378530000000  0.5858110000000  0.5115470000000 1.0
C      1  0.4414620000000  0.4418610000000  0.5586390000000 1.0
C      1  0.4107660000000  0.4745240000000  0.4912100000000 1.0
C      1  0.4762980000000  0.4935150000000  0.4205590000000 1.0
C      1  0.4914770000000  0.5550110000000  0.5781270000000 1.0
C      1  0.5069630000000  0.4022060000000  0.4939110000000 1.0
C      1  0.4946540000000  0.4491220000000  0.5217380000000 1.0
C      1  0.5481820000000  0.5857330000000  0.4890330000000 1.0
C      1  0.5388610000000  0.4928080000000  0.4708270000000 1.0
C      1  0.4205510000000  0.4643200000000  0.4638290000000 1.0
C      1  0.5697710000000  0.5598870000000  0.5238820000000 1.0
C      1  0.5508700000000  0.4284700000000  0.4391890000000 1.0
C      1  0.4817120000000  0.4814070000000  0.5929500000000 1.0
C      1  0.5674090000000  0.4733200000000  0.4530870000000 1.0
C      1  0.5202130000000  0.4335340000000  0.5636310000000 1.0
C      1  0.4564700000000  0.4786680000000  0.4619060000000 1.0
C      1  0.4760380000000  0.5587000000000  0.4894580000000 1.0
C      1  0.4352560000000  0.5335600000000  0.4886700000000 1.0
C      1  0.4733660000000  0.4645340000000  0.4088850000000 1.0
C      1  0.5873800000000  0.4774490000000  0.4925550000000 1.0
C      1  0.4342060000000  0.4382190000000  0.4659250000000 1.0
C      1  0.5205750000000  0.4600520000000  0.3988390000000 1.0
C      1  0.5305200000000  0.5611240000000  0.4372890000000 1.0
C      1  0.4544490000000  0.4355090000000  0.4414020000000 1.0
C      1  0.4817630000000  0.4092280000000  0.4813370000000 1.0
C      1  0.5170250000000  0.5693800000000  0.5697450000000 1.0
C      1  0.4924270000000  0.4458040000000  0.5689240000000 1.0
C      1  0.4257810000000  0.4916120000000  0.5649900000000 1.0
C      1  0.4241130000000  0.5395550000000  0.5305480000000 1.0
C      1  0.4635090000000  0.5978240000000  0.5063490000000 1.0
END
