TITL C-3577078-809-576 -3.60199035051101e-06 125000 -959.968865503142 0 0 153 (C1) n - 1
REM
REM in /home/bkarasulu/work/CARBON/AIRSS/Generating-Clusters/EDIP-Nigel-Params/with-SteepDescent/Higher-Symm/SD-CG/HFTN-CG
REM
REM
REM
REM
REM
REM ./C.cell (12c818d87b63d06a65506943cc24bca4)
REM
REM compiler GCC version 9.2.1 20190827 (Red Hat 9.2.1-1)
REM options -cpp -mtune=generic -march=x86-64 -g -O0 -fpre-include=/usr/include/finclude/math-vector-fortran.h
REM seed -1344547761 -2006482416 1232665630 -948192221 1733914264 -438760723 875949953 -1912947569 1628200203 375359113 -1944001207 595534701 -772833146 -1513653777 1619203762 878575421 1289356053 469494869 -1992258110 -239557948 329987523 -2077530876 1355089864 172589769 1001327703 273582067 1114098690 966023100 2000437873 -114812981 -1857528973 2073303897 -1546305961
REM
CELL 1.54180   50.00000   50.00000   50.00000   90.00000   90.00000   90.00000
LATT -1
SFAC C  
C      1  0.6004150000000  0.4786290000000  0.4825610000000 1.0
C      1  0.5030830000000  0.3980180000000  0.4862410000000 1.0
C      1  0.4053340000000  0.4606640000000  0.4852080000000 1.0
C      1  0.4373070000000  0.5777340000000  0.4847050000000 1.0
C      1  0.5563100000000  0.5862120000000  0.4849590000000 1.0
C      1  0.5998290000000  0.4746680000000  0.5124440000000 1.0
C      1  0.5056220000000  0.3983140000000  0.5165450000000 1.0
C      1  0.4038330000000  0.4614920000000  0.5151280000000 1.0
C      1  0.4376230000000  0.5771830000000  0.5144990000000 1.0
C      1  0.5534120000000  0.5887840000000  0.5142210000000 1.0
C      1  0.5431730000000  0.4868480000000  0.5274910000000 1.0
C      1  0.4993180000000  0.4650590000000  0.5216740000000 1.0
C      1  0.4583030000000  0.4857330000000  0.5284380000000 1.0
C      1  0.4806560000000  0.5230880000000  0.5191710000000 1.0
C      1  0.5237810000000  0.5331410000000  0.5248620000000 1.0
C      1  0.5211220000000  0.4944050000000  0.4824070000000 1.0
C      1  0.4975210000000  0.4537940000000  0.4752830000000 1.0
C      1  0.4640120000000  0.4845160000000  0.4806020000000 1.0
C      1  0.4736920000000  0.5313030000000  0.4744010000000 1.0
C      1  0.5269750000000  0.5357400000000  0.4700250000000 1.0
C      1  0.4382630000000  0.4983520000000  0.4854290000000 1.0
C      1  0.4827990000000  0.5576110000000  0.4805840000000 1.0
C      1  0.5525650000000  0.5357840000000  0.4845880000000 1.0
C      1  0.5450130000000  0.4673750000000  0.4825730000000 1.0
C      1  0.4770200000000  0.4392000000000  0.4883840000000 1.0
C      1  0.4364930000000  0.5000820000000  0.5167170000000 1.0
C      1  0.4834100000000  0.5547180000000  0.5111940000000 1.0
C      1  0.5509700000000  0.5348240000000  0.5168490000000 1.0
C      1  0.5491050000000  0.4626570000000  0.5135740000000 1.0
C      1  0.4793940000000  0.4429590000000  0.5176660000000 1.0
C      1  0.4970970000000  0.4740940000000  0.5508250000000 1.0
C      1  0.4735600000000  0.4948840000000  0.5528540000000 1.0
C      1  0.4876460000000  0.5223820000000  0.5491130000000 1.0
C      1  0.5185740000000  0.5200600000000  0.5513050000000 1.0
C      1  0.5246640000000  0.4896600000000  0.5513560000000 1.0
C      1  0.4931760000000  0.4678330000000  0.4498460000000 1.0
C      1  0.4714650000000  0.4898560000000  0.4522410000000 1.0
C      1  0.4846020000000  0.5160510000000  0.4529940000000 1.0
C      1  0.5141640000000  0.5151600000000  0.4505940000000 1.0
C      1  0.5196630000000  0.4831500000000  0.4502950000000 1.0
C      1  0.5469730000000  0.4992740000000  0.5989800000000 1.0
C      1  0.5085800000000  0.4773950000000  0.5933420000000 1.0
C      1  0.4624760000000  0.4764070000000  0.5978540000000 1.0
C      1  0.4635150000000  0.5244960000000  0.5966500000000 1.0
C      1  0.5095560000000  0.5240770000000  0.5941770000000 1.0
C      1  0.5515510000000  0.4985530000000  0.4098790000000 1.0
C      1  0.5079530000000  0.4803620000000  0.4015030000000 1.0
C      1  0.4621550000000  0.4762460000000  0.3969410000000 1.0
C      1  0.4645110000000  0.5243270000000  0.3998780000000 1.0
C      1  0.5120480000000  0.5276880000000  0.3990770000000 1.0
C      1  0.4978160000000  0.5880370000000  0.4368530000000 1.0
C      1  0.5793930000000  0.5382910000000  0.4385420000000 1.0
C      1  0.5539670000000  0.4330230000000  0.4405120000000 1.0
C      1  0.4578110000000  0.4318400000000  0.4381010000000 1.0
C      1  0.4204520000000  0.5219760000000  0.4386420000000 1.0
C      1  0.4938960000000  0.5836930000000  0.5592790000000 1.0
C      1  0.5808150000000  0.5309480000000  0.5606500000000 1.0
C      1  0.5552790000000  0.4369590000000  0.5575340000000 1.0
C      1  0.4535890000000  0.4278590000000  0.5619660000000 1.0
C      1  0.4150690000000  0.5207880000000  0.5589350000000 1.0
C      1  0.5632910000000  0.5072470000000  0.4844090000000 1.0
C      1  0.5228820000000  0.4434490000000  0.4831270000000 1.0
C      1  0.4533530000000  0.4561520000000  0.4842560000000 1.0
C      1  0.4460870000000  0.5290430000000  0.4839740000000 1.0
C      1  0.5143500000000  0.5599070000000  0.4794930000000 1.0
C      1  0.5626140000000  0.5059950000000  0.5160840000000 1.0
C      1  0.5239240000000  0.4448020000000  0.5144940000000 1.0
C      1  0.4534530000000  0.4574090000000  0.5228200000000 1.0
C      1  0.4471360000000  0.5294900000000  0.5158400000000 1.0
C      1  0.5134630000000  0.5587170000000  0.5136730000000 1.0
C      1  0.4502930000000  0.5003630000000  0.4042820000000 1.0
C      1  0.4864590000000  0.5409210000000  0.4068390000000 1.0
C      1  0.5372780000000  0.5238900000000  0.4144050000000 1.0
C      1  0.5350280000000  0.4741220000000  0.4098520000000 1.0
C      1  0.4854100000000  0.4624400000000  0.4035550000000 1.0
C      1  0.4508420000000  0.5005060000000  0.5901370000000 1.0
C      1  0.4855980000000  0.5400580000000  0.5896360000000 1.0
C      1  0.5382090000000  0.5248110000000  0.5904290000000 1.0
C      1  0.5373680000000  0.4739740000000  0.5902940000000 1.0
C      1  0.4847050000000  0.4611310000000  0.5910640000000 1.0
C      1  0.5063310000000  0.6052310000000  0.4825930000000 1.0
C      1  0.6036060000000  0.5308330000000  0.4862170000000 1.0
C      1  0.5556110000000  0.4105350000000  0.4846290000000 1.0
C      1  0.4323140000000  0.4139340000000  0.4855390000000 1.0
C      1  0.4004840000000  0.5369110000000  0.4823130000000 1.0
C      1  0.5044420000000  0.6044710000000  0.5139390000000 1.0
C      1  0.6047500000000  0.5272990000000  0.5158610000000 1.0
C      1  0.5570560000000  0.4095640000000  0.5159350000000 1.0
C      1  0.4321880000000  0.4153610000000  0.5158200000000 1.0
C      1  0.4001240000000  0.5374740000000  0.5137470000000 1.0
C      1  0.5903000000000  0.5553640000000  0.4595160000000 1.0
C      1  0.5720130000000  0.4288520000000  0.4649060000000 1.0
C      1  0.4583160000000  0.4089580000000  0.4572620000000 1.0
C      1  0.4005570000000  0.5138160000000  0.4613050000000 1.0
C      1  0.4842900000000  0.6013130000000  0.4616140000000 1.0
C      1  0.5924830000000  0.5471320000000  0.5369060000000 1.0
C      1  0.5740980000000  0.4293990000000  0.5337310000000 1.0
C      1  0.4547520000000  0.4072830000000  0.5375900000000 1.0
C      1  0.3947500000000  0.5144210000000  0.5344570000000 1.0
C      1  0.4811060000000  0.5985390000000  0.5345260000000 1.0
C      1  0.5486330000000  0.4624410000000  0.4350780000000 1.0
C      1  0.4856630000000  0.4461130000000  0.4288020000000 1.0
C      1  0.4395210000000  0.4991710000000  0.4316990000000 1.0
C      1  0.4826030000000  0.5637560000000  0.4262150000000 1.0
C      1  0.5542430000000  0.5453320000000  0.4239450000000 1.0
C      1  0.5527900000000  0.4667230000000  0.5657980000000 1.0
C      1  0.4828250000000  0.4418710000000  0.5684630000000 1.0
C      1  0.4361250000000  0.4976040000000  0.5647250000000 1.0
C      1  0.4786310000000  0.5566490000000  0.5657040000000 1.0
C      1  0.5502500000000  0.5380040000000  0.5668200000000 1.0
C      1  0.4759780000000  0.4105670000000  0.4805480000000 1.0
C      1  0.4138210000000  0.4867180000000  0.4693870000000 1.0
C      1  0.4641080000000  0.5790390000000  0.4681380000000 1.0
C      1  0.5707300000000  0.5599570000000  0.4803190000000 1.0
C      1  0.5729070000000  0.4586050000000  0.4715560000000 1.0
C      1  0.4837650000000  0.4165220000000  0.5318450000000 1.0
C      1  0.4108570000000  0.4893780000000  0.5279900000000 1.0
C      1  0.4655180000000  0.5738400000000  0.5267930000000 1.0
C      1  0.5655740000000  0.5579870000000  0.5293740000000 1.0
C      1  0.5778030000000  0.4525870000000  0.5151950000000 1.0
C      1  0.4500120000000  0.5577380000000  0.5647860000000 1.0
C      1  0.5417740000000  0.5653310000000  0.5653220000000 1.0
C      1  0.5772610000000  0.4811510000000  0.5672780000000 1.0
C      1  0.5064270000000  0.4256690000000  0.5681630000000 1.0
C      1  0.4254880000000  0.4707970000000  0.5653070000000 1.0
C      1  0.4571840000000  0.5661440000000  0.4411800000000 1.0
C      1  0.5430310000000  0.5705340000000  0.4264320000000 1.0
C      1  0.5733680000000  0.4911810000000  0.4274630000000 1.0
C      1  0.5071870000000  0.4270370000000  0.4291000000000 1.0
C      1  0.4251350000000  0.4756690000000  0.4428360000000 1.0
C      1  0.5233350000000  0.5832540000000  0.5537270000000 1.0
C      1  0.5896270000000  0.5028550000000  0.5549750000000 1.0
C      1  0.5305820000000  0.4204390000000  0.5548490000000 1.0
C      1  0.4284500000000  0.4439710000000  0.5566710000000 1.0
C      1  0.4260920000000  0.5480320000000  0.5536110000000 1.0
C      1  0.5270330000000  0.5873540000000  0.4417820000000 1.0
C      1  0.5872250000000  0.5104540000000  0.4434570000000 1.0
C      1  0.5290060000000  0.4173250000000  0.4437810000000 1.0
C      1  0.4331840000000  0.4470210000000  0.4459800000000 1.0
C      1  0.4327070000000  0.5483170000000  0.4456320000000 1.0
C      1  0.5279770000000  0.5862400000000  0.4718840000000 1.0
C      1  0.5907080000000  0.5064430000000  0.4735880000000 1.0
C      1  0.5272100000000  0.4148410000000  0.4739380000000 1.0
C      1  0.4278250000000  0.4419530000000  0.4750980000000 1.0
C      1  0.4264760000000  0.5508810000000  0.4743490000000 1.0
C      1  0.5250060000000  0.5851980000000  0.5242710000000 1.0
C      1  0.5910640000000  0.5018180000000  0.5252140000000 1.0
C      1  0.5291210000000  0.4161300000000  0.5255920000000 1.0
C      1  0.4264460000000  0.4431870000000  0.5269260000000 1.0
C      1  0.4258310000000  0.5502350000000  0.5243430000000 1.0
C      1  0.5058290000000  0.5035200000000  0.3857920000000 1.0
C      1  0.5053560000000  0.5005840000000  0.6088100000000 1.0
C      1  0.4920940000000  0.4920120000000  0.5008270000000 1.0
END
